#    Name: 2WGS_1_CAVITY_N1_ALL.mol2
#    Modification time : Mon Mar 10 19:48:36 2014

@<TRIPOS>MOLECULE
2WGS_1_CAVITY_N1_ALL.mol2
  115     0     7     0     0
SMALL
NO_CHARGES


@<TRIPOS>ATOM
      1 CZ        -37.8513  -40.7552  -23.1497 C.ar      5 PHE5        0.0000 
      2 DU        -30.7138  -39.9276  -26.1699 H         7 CUB7        0.0000 
      3 O         -31.5177  -39.0522  -27.0850 O.2       2 ALA2        0.0000 
      4 O         -29.4545  -35.0377  -22.5987 O.2       2 ALA2        0.0000 
      5 NZ        -30.2584  -34.1624  -23.5138 N.2       4 LYS4        0.0000 
      6 N         -31.0624  -33.2870  -24.4289 N.2       2 ALA2        0.0000 
      7 N         -30.7208  -35.5950  -22.0192 N.2       2 ALA2        0.0000 
      8 N         -31.5248  -34.7196  -22.9343 N.2       2 ALA2        0.0000 
      9 N         -32.3287  -33.8442  -23.8494 N.2       2 ALA2        0.0000 
     10 O         -32.3217  -38.1769  -28.0001 O.2       2 ALA2        0.0000 
     11 CZ        -35.3203  -38.5576  -23.2711 C.ar      5 PHE5        0.0000 
     12 CA        -36.1243  -37.6822  -24.1862 C.3       6 GLY6        0.0000 
     13 N         -31.9889  -35.0690  -20.4020 N.2       2 ALA2        0.0000 
     14 CA        -32.7929  -34.1937  -21.3171 C.3       6 GLY6        0.0000 
     15 CA        -33.2553  -35.6263  -19.8225 C.3       6 GLY6        0.0000 
     16 N         -28.1846  -36.6468  -25.2536 N.2       2 ALA2        0.0000 
     17 N         -28.9885  -35.7715  -26.1687 N.2       2 ALA2        0.0000 
     18 O         -29.7925  -34.8961  -27.0838 O.2       2 ALA2        0.0000 
     19 CA        -28.6487  -36.9963  -22.7213 C.3       6 GLY6        0.0000 
     20 N         -29.4527  -36.1209  -23.6364 N.2       2 ALA2        0.0000 
     21 O         -30.2567  -35.2455  -24.5515 O.2       2 ALA2        0.0000 
     22 O         -31.0606  -34.3702  -25.4666 O.2       2 ALA2        0.0000 
     23 N         -31.1797  -39.1939  -22.5999 N.2       2 ALA2        0.0000 
     24 CZ        -31.9837  -38.3185  -23.5150 C.ar      5 PHE5        0.0000 
     25 OD1       -32.7876  -37.4432  -24.4301 O.3       3 ASP3        0.0000 
     26 CZ        -37.5062  -45.2295  -22.8154 C.ar      5 PHE5        0.0000 
     27 CZ        -38.3102  -44.3541  -23.7305 C.ar      5 PHE5        0.0000 
     28 DU        -30.7155  -38.8444  -25.1322 H         7 CUB7        0.0000 
     29 O         -31.5195  -37.9691  -26.0473 O.2       2 ALA2        0.0000 
     30 DU        -33.2448  -42.1252  -26.0485 H         7 CUB7        0.0000 
     31 CA        -34.0487  -41.2499  -26.9636 C.3       6 GLY6        0.0000 
     32 DU        -34.5111  -42.6825  -25.4690 H         7 CUB7        0.0000 
     33 CA        -35.3151  -41.8071  -26.3841 C.3       6 GLY6        0.0000 
     34 N         -29.9116  -39.7198  -24.2171 N.2       2 ALA2        0.0000 
     35 CZ        -34.0557  -36.9172  -22.8130 C.ar      5 PHE5        0.0000 
     36 O         -34.8597  -36.0419  -23.7281 O.2       2 ALA2        0.0000 
     37 N         -29.9133  -38.6366  -23.1795 N.2       2 ALA2        0.0000 
     38 DU        -30.7173  -37.7613  -24.0946 H         7 CUB7        0.0000 
     39 O         -31.5213  -36.8859  -25.0097 O.2       2 ALA2        0.0000 
     40 CZ        -37.0456  -42.7137  -23.2723 C.ar      5 PHE5        0.0000 
     41 CZ        -37.8495  -41.8384  -24.1874 C.ar      5 PHE5        0.0000 
     42 N         -38.6535  -40.9630  -25.1025 N.2       2 ALA2        0.0000 
     43 CZ        -37.5080  -44.1463  -21.7777 C.ar      5 PHE5        0.0000 
     44 CZ        -38.3119  -43.2710  -22.6928 C.ar      5 PHE5        0.0000 
     45 CZ        -39.1159  -42.3956  -23.6079 C.ar      5 PHE5        0.0000 
     46 N         -31.1832  -37.0275  -20.5246 N.2       2 ALA2        0.0000 
     47 N         -31.9872  -36.1522  -21.4397 N.2       2 ALA2        0.0000 
     48 CA        -32.7911  -35.2768  -22.3548 C.3       6 GLY6        0.0000 
     49 CZ        -37.8530  -39.6721  -22.1121 C.ar      5 PHE5        0.0000 
     50 OG        -38.6570  -38.7967  -23.0272 O.2       1 SER1        0.0000 
     51 CA        -38.6587  -37.7135  -21.9895 C.3       6 GLY6        0.0000 
     52 N         -28.6435  -40.2457  -25.8343 N.2       2 ALA2        0.0000 
     53 NZ        -28.9921  -33.6051  -24.0934 N.2       4 LYS4        0.0000 
     54 OG        -38.6552  -39.8799  -24.0648 O.2       1 SER1        0.0000 
     55 CA        -33.2535  -36.7094  -20.8602 C.3       6 GLY6        0.0000 
     56 CA        -34.0575  -35.8341  -21.7753 C.3       6 GLY6        0.0000 
     57 CA        -35.3238  -36.3913  -21.1958 C.3       6 GLY6        0.0000 
     58 CA        -28.1828  -37.7300  -26.2913 C.3       6 GLY6        0.0000 
     59 N         -30.7191  -36.6781  -23.0569 N.2       2 ALA2        0.0000 
     60 O         -31.5230  -35.8028  -23.9720 O.2       2 ALA2        0.0000 
     61 DU        -31.9784  -41.5680  -26.6281 H         7 CUB7        0.0000 
     62 CA        -32.7824  -40.6926  -27.5431 C.3       6 GLY6        0.0000 
     63 CZ        -35.3221  -37.4744  -22.2334 C.ar      5 PHE5        0.0000 
     64 CA        -36.1260  -36.5991  -23.1485 C.3       6 GLY6        0.0000 
     65 CZ        -39.1176  -41.3125  -22.5702 C.ar      5 PHE5        0.0000 
     66 NZ        -30.2602  -33.0792  -22.4762 N.2       4 LYS4        0.0000 
     67 N         -30.3740  -41.1524  -22.7225 N.2       2 ALA2        0.0000 
     68 DU        -31.1779  -40.2770  -23.6376 H         7 CUB7        0.0000 
     69 DU        -31.9819  -39.4017  -24.5527 H         7 CUB7        0.0000 
     70 O         -32.7859  -38.5263  -25.4678 O.2       2 ALA2        0.0000 
     71 N         -28.6470  -38.0794  -23.7590 N.2       2 ALA2        0.0000 
     72 N         -29.4509  -37.2041  -24.6741 N.2       2 ALA2        0.0000 
     73 O         -30.2549  -36.3287  -25.5892 O.2       2 ALA2        0.0000 
     74 CZ        -35.7775  -43.2397  -24.8895 C.ar      5 PHE5        0.0000 
     75 N         -36.5814  -42.3643  -25.8046 N.2       2 ALA2        0.0000 
     76 CZ        -36.5867  -39.1148  -22.6916 C.ar      5 PHE5        0.0000 
     77 CA        -37.3906  -38.2395  -23.6067 C.3       6 GLY6        0.0000 
     78 CA        -38.1946  -37.3641  -24.5218 C.3       6 GLY6        0.0000 
     79 CZ        -35.3186  -39.6408  -24.3088 C.ar      5 PHE5        0.0000 
     80 CA        -36.1225  -38.7654  -25.2239 C.3       6 GLY6        0.0000 
     81 CZ        -35.7792  -42.1565  -23.8518 C.ar      5 PHE5        0.0000 
     82 N         -36.5832  -41.2812  -24.7669 N.2       2 ALA2        0.0000 
     83 CZ        -33.2500  -38.8757  -22.9355 C.ar      5 PHE5        0.0000 
     84 CZ        -34.0540  -38.0004  -23.8506 C.ar      5 PHE5        0.0000 
     85 CZ        -32.4443  -40.8343  -23.0581 C.ar      5 PHE5        0.0000 
     86 CZ        -33.2483  -39.9589  -23.9732 C.ar      5 PHE5        0.0000 
     87 O         -34.0522  -39.0835  -24.8883 O.2       2 ALA2        0.0000 
     88 CZ        -36.5849  -40.1980  -23.7293 C.ar      5 PHE5        0.0000 
     89 N         -37.3889  -39.3226  -24.6444 N.2       2 ALA2        0.0000 
     90 CA        -38.1928  -38.4473  -25.5595 C.3       6 GLY6        0.0000 
     91 CA        -37.3924  -37.1563  -22.5690 C.3       6 GLY6        0.0000 
     92 CA        -38.1963  -36.2810  -23.4841 C.3       6 GLY6        0.0000 
     93 N         -29.4492  -38.2872  -25.7118 N.2       2 ALA2        0.0000 
     94 O         -30.2531  -37.4119  -26.6268 O.2       2 ALA2        0.0000 
     95 N         -28.9903  -34.6883  -25.1310 N.2       2 ALA2        0.0000 
     96 DU        -31.1762  -41.3602  -24.6753 H         7 CUB7        0.0000 
     97 DU        -31.9801  -40.4848  -25.5904 H         7 CUB7        0.0000 
     98 O         -32.7841  -39.6095  -26.5055 O.2       2 ALA2        0.0000 
     99 CZ        -32.4426  -41.9174  -24.0958 C.ar      5 PHE5        0.0000 
    100 CZ        -33.2465  -41.0421  -25.0109 C.ar      5 PHE5        0.0000 
    101 O         -34.0505  -40.1667  -25.9260 O.2       2 ALA2        0.0000 
    102 O         -34.8544  -39.2913  -26.8411 O.2       2 ALA2        0.0000 
    103 CZ        -33.7089  -42.4747  -23.5163 C.ar      5 PHE5        0.0000 
    104 CZ        -34.5129  -41.5993  -24.4313 C.ar      5 PHE5        0.0000 
    105 CZ        -35.3168  -40.7239  -25.3464 C.ar      5 PHE5        0.0000 
    106 CA        -36.1208  -39.8486  -26.2615 C.3       6 GLY6        0.0000 
    107 N         -29.9186  -35.3872  -20.0665 N.2       2 ALA2        0.0000 
    108 O         -30.7226  -34.5118  -20.9816 O.2       2 ALA2        0.0000 
    109 CA        -31.5265  -33.6364  -21.8967 C.3       6 GLY6        0.0000 
    110 N         -31.1815  -38.1107  -21.5623 N.2       2 ALA2        0.0000 
    111 CZ        -31.9854  -37.2353  -22.4774 C.ar      5 PHE5        0.0000 
    112 O         -32.7894  -36.3600  -23.3925 O.2       2 ALA2        0.0000 
    113 CZ        -37.0438  -43.7969  -24.3100 C.ar      5 PHE5        0.0000 
    114 CZ        -37.8478  -42.9216  -25.2251 C.ar      5 PHE5        0.0000 
    115 CA        -34.0470  -42.3330  -28.0013 C.3       6 GLY6        0.0000 
@<TRIPOS>BOND
@<TRIPOS>SUBSTRUCTURE
     1 SER1       50 GROUP   
     2 ALA2        3 GROUP   
     3 ASP3       25 GROUP   
     4 LYS4        5 GROUP   
     5 PHE5        1 GROUP   
     6 GLY6       12 GROUP   
     7 CUB7        2 GROUP   
@<TRIPOS>SET

