#    Name: 2wgs_1AZ_1_INTS_M
#    Modification time : Tue Mar 25 04:17:33 2014

@<TRIPOS>MOLECULE
2wgs_1AZ_1_INTS_M
   54     0     6     0     0
SMALL
NO_CHARGES


@<TRIPOS>ATOM
      1 CA        -37.0740  -39.9870  -27.0940 C.3       2 GLC5        0.0000 
      2 CA        -37.6990  -39.6800  -25.0310 C.3       6 GLL5        0.0000 
      3 CA        -36.4490  -40.2940  -29.1570 C.3       4 GLP5        0.0000 
      4 CA        -37.0670  -37.6095  -25.4585 C.3       2 GLC5        0.0000 
      5 CA        -36.4350  -35.5390  -25.8860 C.3       4 GLP5        0.0000 
      6 CA        -38.2195  -44.8460  -25.1965 C.3       2 GLC5        0.0000 
      7 CA        -36.0650  -44.7010  -24.9190 C.3       6 GLL5        0.0000 
      8 CA        -40.3740  -44.9910  -25.4740 C.3       4 GLP5        0.0000 
      9 CA        -36.9750  -44.6160  -26.7810 C.3       2 GLC5        0.0000 
     10 CA        -37.8850  -44.5310  -28.6430 C.3       4 GLP5        0.0000 
     11 CA        -39.4505  -40.1465  -21.6385 C.3       2 GLC5        0.0000 
     12 CA        -38.6780  -41.2880  -23.3570 C.3       6 GLL5        0.0000 
     13 CA        -40.2230  -39.0050  -19.9200 C.3       4 GLP5        0.0000 
     14 CA        -36.8755  -43.4345  -21.9685 C.3       2 GLC5        0.0000 
     15 CA        -38.0120  -45.2100  -22.6010 C.3       6 GLL5        0.0000 
     16 CA        -35.7390  -41.6590  -21.3360 C.3       4 GLP5        0.0000 
     17 CA        -39.1930  -45.1005  -24.0375 C.3       2 GLC5        0.0000 
     18 CA        -35.4030  -37.4625  -20.8675 C.3       2 GLC5        0.0000 
     19 CA        -35.5180  -36.9090  -22.7260 C.3       6 GLL5        0.0000 
     20 CA        -35.2880  -38.0160  -19.0090 C.3       4 GLP5        0.0000 
     21 CA        -35.8500  -35.0180  -22.7700 C.3       2 GLC5        0.0000 
     22 CA        -36.1820  -33.1270  -22.8140 C.3       4 GLP5        0.0000 
     23 CA        -38.8810  -37.6595  -20.6895 C.3       2 GLC5        0.0000 
     24 CA        -37.5390  -36.3140  -21.4590 C.3       6 GLL5        0.0000 
     25 CA        -38.2525  -35.6570  -19.7495 C.3       2 GLC5        0.0000 
     26 CA        -38.9660  -35.0000  -18.0400 C.3       4 GLP5        0.0000 
     27 CA        -36.4235  -35.3455  -20.1430 C.3       2 GLC5        0.0000 
     28 CA        -35.3080  -34.3770  -18.8270 C.3       4 GLP5        0.0000 
     29 CA        -36.4135  -37.1650  -20.2340 C.3       2 GLC5        0.0000 
     30 CA        -36.8605  -34.7205  -22.1365 C.3       2 GLC5        0.0000 
     31 CA        -39.1600  -35.0150  -21.9045 C.3       2 GLC5        0.0000 
     32 CA        -40.7810  -33.7160  -22.3500 C.3       4 GLP5        0.0000 
     33 N         -39.9905  -38.3460  -23.3965 N.am      1 SEC2        0.0000 
     34 N         -38.7560  -38.0950  -22.9990 N.am      5 SEL2        0.0000 
     35 N         -41.2250  -38.5970  -23.7940 N.am      3 SEP2        0.0000 
     36 CA        -32.8620  -33.1900  -23.0535 C.3       2 GLC5        0.0000 
     37 CA        -31.7050  -34.6850  -23.3950 C.3       6 GLL5        0.0000 
     38 CA        -34.0190  -31.6950  -22.7120 C.3       4 GLP5        0.0000 
     39 CA        -30.2445  -32.5460  -21.8085 C.3       2 GLC5        0.0000 
     40 CA        -30.2640  -34.3800  -22.9790 C.3       6 GLL5        0.0000 
     41 CA        -30.2250  -30.7120  -20.6380 C.3       4 GLP5        0.0000 
     42 N         -28.7105  -33.8680  -21.5320 N.am      1 SEC2        0.0000 
     43 N         -30.2340  -33.8070  -21.6540 N.am      5 SEL2        0.0000 
     44 N         -27.1870  -33.9290  -21.4100 N.am      3 SEP2        0.0000 
     45 CA        -30.5255  -32.6690  -20.6400 C.3       2 GLC5        0.0000 
     46 CA        -30.8260  -34.6260  -20.6420 C.3       6 GLL5        0.0000 
     47 CA        -29.2800  -36.1330  -20.5600 C.3       2 GLC5        0.0000 
     48 CA        -27.7340  -37.6400  -20.4780 C.3       4 GLP5        0.0000 
     49 CA        -29.0865  -33.8605  -19.8860 C.3       2 GLC5        0.0000 
     50 CA        -27.3470  -33.0950  -19.1300 C.3       4 GLP5        0.0000 
     51 CA        -33.7780  -34.6885  -19.9450 C.3       2 GLC5        0.0000 
     52 CA        -32.2480  -35.0000  -21.0630 C.3       6 GLL5        0.0000 
     53 CA        -33.1335  -33.3475  -21.8875 C.3       2 GLC5        0.0000 
     54 CA        -35.8095  -36.4080  -24.5525 C.3       2 GLC5        0.0000 
@<TRIPOS>BOND
@<TRIPOS>SUBSTRUCTURE
     1 SEC2       33 GROUP        1 X    SEC  0     ROOT SEC X 2
     2 GLC5        1 GROUP        1 X    GLC  0     **** GLC X 6
     3 SEP2       35 GROUP        1 Y    SEP  0     ROOT SEP Y 9
     4 GLP5        3 GROUP        1 Y    GLP  0     **** GLP Y 13
     5 SEL2       34 GROUP        1 Z    SEL  0     ROOT SEL Z 16
     6 GLL5        2 GROUP        1 Z    GLL  0     **** GLL Z 20
@<TRIPOS>SET

