#    Name: 2wgs_1AZ_1_ligand
#    Modification time : Tue Mar 25 04:17:33 2014

@<TRIPOS>MOLECULE
2wgs_1AZ_1_ligand
   47    50     1     0     0
SMALL
NO_CHARGES


@<TRIPOS>ATOM
      1 O1        -35.0140  -39.2490  -25.3770 O.2       1 1AZ501      0.0000 
      2 C5        -35.5790  -38.5740  -24.4770 C.2       1 1AZ501      0.0000 
      3 N1        -36.8990  -38.7310  -24.2350 N.am      1 1AZ501      0.0000 
      4 C4        -37.6990  -39.6800  -25.0310 C.3       1 1AZ501      0.0000 
      5 C3        -37.7850  -41.0490  -24.4040 C.ar      1 1AZ501      0.0000 
      6 C2        -36.9830  -42.0680  -24.9020 C.ar      1 1AZ501      0.0000 
      7 C1        -37.0760  -43.3320  -24.3240 C.ar      1 1AZ501      0.0000 
      8 CL1       -36.0650  -44.7010  -24.9190 Cl        1 1AZ501      0.0000 
      9 C16       -38.6780  -41.2880  -23.3570 C.ar      1 1AZ501      0.0000 
     10 C17       -38.7720  -42.5540  -22.7770 C.ar      1 1AZ501      0.0000 
     11 C18       -37.9570  -43.5620  -23.2790 C.ar      1 1AZ501      0.0000 
     12 CL2       -38.0120  -45.2100  -22.6010 Cl        1 1AZ501      0.0000 
     13 C6        -34.8500  -37.6450  -23.7120 C.2       1 1AZ501      0.0000 
     14 N2        -33.5480  -37.2640  -23.6970 N.pl3     1 1AZ501      0.0000 
     15 C7        -32.4570  -37.7870  -24.5730 C.3       1 1AZ501      0.0000 
     16 C8        -33.3990  -36.3240  -22.7510 C.2       1 1AZ501      0.0000 
     17 N4        -34.5940  -36.1100  -22.1610 N.2       1 1AZ501      0.0000 
     18 C13       -35.5180  -36.9090  -22.7260 C.2       1 1AZ501      0.0000 
     19 N5        -36.8370  -37.0760  -22.4950 N.am      1 1AZ501      0.0000 
     20 C14       -37.5390  -36.3140  -21.4590 C.3       1 1AZ501      0.0000 
     21 C15       -37.5350  -37.9560  -23.2250 C.2       1 1AZ501      0.0000 
     22 O3        -38.7560  -38.0950  -22.9990 O.2       1 1AZ501      0.0000 
     23 N3        -32.1400  -35.6370  -22.3770 N.3       1 1AZ501      0.0000 
     24 C9        -31.7050  -34.6850  -23.3950 C.3       1 1AZ501      0.0000 
     25 C10       -30.2640  -34.3800  -22.9790 C.3       1 1AZ501      0.0000 
     26 O2        -30.2340  -33.8070  -21.6540 O.3       1 1AZ501      0.0000 
     27 C11       -30.8260  -34.6260  -20.6420 C.3       1 1AZ501      0.0000 
     28 C12       -32.2480  -35.0000  -21.0630 C.3       1 1AZ501      0.0000 
     29 H         -37.2663  -39.7819  -26.0439 H         1 1AZ501      0.0000 
     30 H         -38.7247  -39.2885  -25.1666 H         1 1AZ501      0.0000 
     31 H         -36.3404  -41.8965  -25.6729 H         1 1AZ501      0.0000 
     32 H         -39.2734  -40.5214  -23.0095 H         1 1AZ501      0.0000 
     33 H         -39.4148  -42.7301  -22.0142 H         1 1AZ501      0.0000 
     34 H         -32.2700  -33.7840  -23.3570 H         1 1AZ501      0.0000 
     35 H         -31.6956  -35.1238  -24.3645 H         1 1AZ501      0.0000 
     36 H         -29.8374  -33.6942  -23.7205 H         1 1AZ501      0.0000 
     37 H         -29.6956  -35.3166  -23.0221 H         1 1AZ501      0.0000 
     38 H         -30.8876  -34.1050  -19.6822 H         1 1AZ501      0.0000 
     39 H         -30.2669  -35.5540  -20.4917 H         1 1AZ501      0.0000 
     40 H         -32.6555  -35.6797  -20.3316 H         1 1AZ501      0.0000 
     41 H         -32.8398  -34.0998  -21.1126 H         1 1AZ501      0.0000 
     42 H         -31.5800  -37.3488  -24.3757 H         1 1AZ501      0.0000 
     43 H         -32.3259  -38.7714  -24.4553 H         1 1AZ501      0.0000 
     44 H         -32.6513  -37.6309  -25.5414 H         1 1AZ501      0.0000 
     45 H         -37.1555  -36.4814  -20.5508 H         1 1AZ501      0.0000 
     46 H         -37.4861  -35.3289  -21.6225 H         1 1AZ501      0.0000 
     47 H         -38.5092  -36.5523  -21.4159 H         1 1AZ501      0.0000 
@<TRIPOS>BOND
     1    2    1 2    
     2    3    2 am   
     3   13    2 1    
     4    4    3 1    
     5   21    3 am   
     6    5    4 1    
     7   29    4 1    
     8   30    4 1    
     9    6    5 ar   
    10    9    5 ar   
    11    7    6 ar   
    12   31    6 1    
    13    8    7 1    
    14   11    7 ar   
    15   10    9 ar   
    16   32    9 1    
    17   11   10 ar   
    18   33   10 1    
    19   12   11 1    
    20   14   13 1    
    21   18   13 2    
    22   15   14 1    
    23   16   14 1    
    24   42   15 1    
    25   43   15 1    
    26   44   15 1    
    27   17   16 2    
    28   23   16 1    
    29   18   17 1    
    30   19   18 1    
    31   20   19 1    
    32   21   19 am   
    33   45   20 1    
    34   46   20 1    
    35   47   20 1    
    36   22   21 2    
    37   24   23 1    
    38   28   23 1    
    39   25   24 1    
    40   34   24 1    
    41   35   24 1    
    42   26   25 1    
    43   36   25 1    
    44   37   25 1    
    45   27   26 1    
    46   28   27 1    
    47   38   27 1    
    48   39   27 1    
    49   40   28 1    
    50   41   28 1    
@<TRIPOS>SUBSTRUCTURE
     1 1AZ501      1 GROUP   
@<TRIPOS>SET

