#    Name: 3RYH_1_CAVITY_N1_6.mol2
#    Modification time : Mon Mar 10 21:59:19 2014

@<TRIPOS>MOLECULE
3RYH_1_CAVITY_N1_6.mol2
   91     0     6     0     0
SMALL
NO_CHARGES


@<TRIPOS>ATOM
      1 N           3.1878   90.3603   94.7161 N.2       2 ALA2        0.0000 
      2 CA          2.4655   90.4987   92.7264 C.3       5 GLY6        0.0000 
      3 OG         -2.3752   84.8502   98.6139 O.2       1 SER1        0.0000 
      4 NZ         -1.9507   85.5909   97.3805 N.2       4 LYS4        0.0000 
      5 NZ         -1.1016   87.0722   94.9137 N.2       4 LYS4        0.0000 
      6 NZ         -3.5220   84.2480   97.8575 N.2       4 LYS4        0.0000 
      7 NZ         -3.0975   84.9886   96.6241 N.2       4 LYS4        0.0000 
      8 NZ         -2.6730   85.7293   95.3907 N.2       4 LYS4        0.0000 
      9 CA         -2.2484   86.4699   94.1573 C.3       5 GLY6        0.0000 
     10 NZ         -4.6688   83.6457   97.1011 N.2       4 LYS4        0.0000 
     11 O          -4.2443   84.3864   95.8677 O.2       2 ALA2        0.0000 
     12 OG         -3.8198   85.1270   94.6343 O.2       1 SER1        0.0000 
     13 OG         -3.3952   85.8677   93.4009 O.2       1 SER1        0.0000 
     14 O          -2.9707   86.6083   92.1676 O.2       2 ALA2        0.0000 
     15 CA         -4.9666   84.5248   93.8779 C.3       5 GLY6        0.0000 
     16 OG         -4.5421   85.2654   92.6446 O.2       1 SER1        0.0000 
     17 O          -4.1175   86.0061   91.4112 O.2       2 ALA2        0.0000 
     18 N           1.1723   90.9150   94.3555 N.2       2 ALA2        0.0000 
     19 N          -0.3990   89.5721   94.8325 N.2       2 ALA2        0.0000 
     20 CA          0.0255   90.3128   93.5991 C.3       5 GLY6        0.0000 
     21 CA          0.4501   91.0534   92.3658 C.3       5 GLY6        0.0000 
     22 CA         -1.5458   88.9699   94.0761 C.3       5 GLY6        0.0000 
     23 CA         -1.1213   89.7105   92.8428 C.3       5 GLY6        0.0000 
     24 CA         -0.6968   90.4512   91.6094 C.3       5 GLY6        0.0000 
     25 CA         -0.2722   91.1918   90.3760 C.3       5 GLY6        0.0000 
     26 CA         -3.9662   86.1457   97.0199 C.3       5 GLY6        0.0000 
     27 NZ         -3.5417   86.8863   95.7865 N.2       4 LYS4        0.0000 
     28 NZ         -3.1171   87.6270   94.5531 N.2       4 LYS4        0.0000 
     29 OD1        -2.6926   88.3676   93.3198 O.3       3 ASP3        0.0000 
     30 CA         -5.1130   85.5434   96.2635 C.3       5 GLY6        0.0000 
     31 CA         -4.6885   86.2841   95.0301 C.3       5 GLY6        0.0000 
     32 OD1        -4.2639   87.0247   93.7968 O.3       3 ASP3        0.0000 
     33 CA         -5.4107   86.4224   93.0404 C.3       5 GLY6        0.0000 
     34 OD1        -4.9862   87.1631   91.8070 O.3       3 ASP3        0.0000 
     35 CA         -0.1209   91.3314   95.9847 C.3       5 GLY6        0.0000 
     36 CA          0.3037   92.0721   94.7513 C.3       5 GLY6        0.0000 
     37 NZ         -1.2677   90.7292   95.2283 N.2       4 LYS4        0.0000 
     38 DU         -0.8432   91.4698   93.9950 H         6 CUB7        0.0000 
     39 DU         -0.4186   92.2105   92.7616 H         6 CUB7        0.0000 
     40 NZ         -2.8390   89.3863   95.7053 N.2       4 LYS4        0.0000 
     41 OD1        -2.4145   90.1269   94.4719 O.3       3 ASP3        0.0000 
     42 OD1        -1.9900   90.8675   93.2386 O.3       3 ASP3        0.0000 
     43 OD1        -1.5654   91.6082   92.0052 O.3       3 ASP3        0.0000 
     44 CA         -4.4103   88.0433   96.1823 C.3       5 GLY6        0.0000 
     45 N          -3.9858   88.7840   94.9489 N.2       2 ALA2        0.0000 
     46 OD1        -3.5613   89.5246   93.7156 O.3       3 ASP3        0.0000 
     47 N          -5.5571   87.4411   95.4259 N.2       2 ALA2        0.0000 
     48 NZ         -6.0406   94.6154   90.4465 N.2       4 LYS4        0.0000 
     49 N          -5.1326   88.1817   94.1926 N.2       2 ALA2        0.0000 
     50 N          -6.2794   87.5795   93.4362 N.2       2 ALA2        0.0000 
     51 OD1        -5.8549   88.3201   92.2028 O.3       3 ASP3        0.0000 
     52 O          -7.0017   87.7179   91.4464 O.2       2 ALA2        0.0000 
     53 OD1        -2.5609   91.1455   96.8575 O.3       3 ASP3        0.0000 
     54 CA         -2.1364   91.8862   95.6241 C.3       5 GLY6        0.0000 
     55 N          -1.7118   92.6268   94.3908 N.2       2 ALA2        0.0000 
     56 OD1        -3.7077   90.5433   96.1011 O.3       3 ASP3        0.0000 
     57 OD1        -3.2832   91.2839   94.8677 O.3       3 ASP3        0.0000 
     58 OD1        -2.8586   92.0246   93.6344 O.3       3 ASP3        0.0000 
     59 OD1        -2.4341   92.7652   92.4010 O.3       3 ASP3        0.0000 
     60 NZ         -2.0096   93.5059   91.1676 N.2       4 LYS4        0.0000 
     61 N          -4.8545   89.9410   95.3447 N.2       2 ALA2        0.0000 
     62 OD1        -4.4300   90.6817   94.1114 O.3       3 ASP3        0.0000 
     63 OD1        -5.5768   90.0794   93.3550 O.3       3 ASP3        0.0000 
     64 N          -6.7236   89.4772   92.5986 N.2       2 ALA2        0.0000 
     65 OD1        -6.2991   90.2178   91.3652 O.3       3 ASP3        0.0000 
     66 N          -3.7273   93.1816   94.0302 N.2       2 ALA2        0.0000 
     67 N          -3.3028   93.9223   92.7968 N.2       2 ALA2        0.0000 
     68 NZ         -4.8741   92.5794   93.2738 N.2       4 LYS4        0.0000 
     69 NZ         -4.4496   93.3200   92.0404 N.2       4 LYS4        0.0000 
     70 CA         -4.0251   94.0607   90.8070 C.3       5 GLY6        0.0000 
     71 NZ         -6.4455   91.2364   93.7508 N.2       4 LYS4        0.0000 
     72 NZ         -6.0209   91.9771   92.5174 N.2       4 LYS4        0.0000 
     73 NZ         -5.5964   92.7177   91.2840 N.2       4 LYS4        0.0000 
     74 O          -7.1678   91.3748   91.7610 O.2       2 ALA2        0.0000 
     75 N          -0.6378   82.5362   97.8222 N.2       2 ALA2        0.0000 
     76 CA         -0.2133   83.2768   96.5889 C.3       5 GLY6        0.0000 
     77 CA          0.2112   84.0175   95.3555 C.3       5 GLY6        0.0000 
     78 N          -2.2092   81.1933   98.2992 N.2       2 ALA2        0.0000 
     79 CA         -1.7846   81.9339   97.0659 C.3       5 GLY6        0.0000 
     80 CA         -1.3601   82.6746   95.8325 C.3       5 GLY6        0.0000 
     81 N          -1.9310   82.9526   99.4514 N.2       2 ALA2        0.0000 
     82 OG         -1.5065   83.6932   98.2180 O.2       1 SER1        0.0000 
     83 OG         -1.0820   84.4339   96.9847 O.2       1 SER1        0.0000 
     84 NZ         -0.6575   85.1745   95.7513 N.2       4 LYS4        0.0000 
     85 NZ         -3.0779   82.3503   98.6950 N.2       4 LYS4        0.0000 
     86 NZ         -2.6533   83.0910   97.4617 N.2       4 LYS4        0.0000 
     87 OG         -2.2288   83.8316   96.2283 O.2       1 SER1        0.0000 
     88 CA         -1.8043   84.5722   94.9949 C.3       5 GLY6        0.0000 
     89 O          -1.3798   85.3129   93.7615 O.2       2 ALA2        0.0000 
     90 CA         -3.8001   82.4887   96.7053 C.3       5 GLY6        0.0000 
     91 OG         -2.5266   84.7106   93.0051 O.2       1 SER1        0.0000 
@<TRIPOS>BOND
@<TRIPOS>SUBSTRUCTURE
     1 SER1        3 GROUP   
     2 ALA2        1 GROUP   
     3 ASP3       29 GROUP   
     4 LYS4        4 GROUP   
     5 GLY6        2 GROUP   
     6 CUB7       38 GROUP   
@<TRIPOS>SET

