#    Name: 3ryh_G2P_1_INTS_M
#    Modification time : Mon Apr  7 21:54:21 2014

@<TRIPOS>MOLECULE
3ryh_G2P_1_INTS_M
   80     0    12     0     0
SMALL
NO_CHARGES


@<TRIPOS>ATOM
      1 Zn         -4.8080   89.4390   91.6640 Zn        3 ZIC7        0.0000 
      2 Zn         -5.8740   89.1360   92.2560 Zn       11 ZIL7        0.0000 
      3 Zn         -3.7420   89.7420   91.0720 Zn        7 ZIP7        0.0000 
      4 N          -8.5855   89.6605   89.7330 N.am      2 SEC2        0.0000 
      5 N          -7.5010   88.9240   90.3210 N.am     10 SEL2        0.0000 
      6 N          -9.6700   90.3970   89.1450 N.am      6 SEP2        0.0000 
      7 N          -7.4835   88.1810   89.2420 N.am      2 SEC2        0.0000 
      8 N          -7.4660   87.4380   88.1630 N.am      6 SEP2        0.0000 
      9 N          -6.0930   89.0875   89.8160 N.am      2 SEC2        0.0000 
     10 N          -4.6850   89.2510   89.3110 N.am      6 SEP2        0.0000 
     11 N          -9.0985   88.8640   93.3845 N.am      2 SEC2        0.0000 
     12 N          -8.1040   88.1040   92.6270 N.am     10 SEL2        0.0000 
     13 N         -10.0930   89.6240   94.1420 N.am      6 SEP2        0.0000 
     14 N          -7.7860   88.7950   94.0970 N.am      2 SEC2        0.0000 
     15 N          -7.4680   89.4860   95.5670 N.am      6 SEP2        0.0000 
     16 N          -8.5050   86.7895   92.6930 N.am      2 SEC2        0.0000 
     17 N          -8.9060   85.4750   92.7590 N.am      6 SEP2        0.0000 
     18 N          -7.5745   86.1650   92.0310 N.am      2 SEC2        0.0000 
     19 N          -6.2430   86.8550   91.3030 N.am     10 SEL2        0.0000 
     20 N          -7.3230   86.1445   90.6370 N.am      2 SEC2        0.0000 
     21 N          -8.4030   85.4340   89.9710 N.am      6 SEP2        0.0000 
     22 N          -6.8545   87.1465   89.7330 N.am      2 SEC2        0.0000 
     23 Zn         -3.6970   88.5500   91.1640 Zn        3 ZIC7        0.0000 
     24 Zn         -3.6520   87.3580   91.2560 Zn       11 ZIL7        0.0000 
     25 N          -2.5185   86.7460   90.5070 N.am      2 SEC2        0.0000 
     26 N          -3.6520   87.3580   91.2560 N.am     10 SEL2        0.0000 
     27 N          -1.3850   86.1340   89.7580 N.am      6 SEP2        0.0000 
     28 N          -5.6860   84.0455   90.0735 N.am      2 SEC2        0.0000 
     29 N          -4.9210   84.7910   90.8880 N.am     10 SEL2        0.0000 
     30 N          -6.4510   83.3000   89.2590 N.am      6 SEP2        0.0000 
     31 CA         -6.0535   85.3905   93.8630 C.3       4 GLC5        0.0000 
     32 CA         -4.5850   86.1390   93.1570 C.3      12 GLL5        0.0000 
     33 CA         -7.5220   84.6420   94.5690 C.3       8 GLP5        0.0000 
     34 N          -1.2540   84.4500   92.2230 N.am      2 SEC2        0.0000 
     35 N          -2.6060   84.4850   92.9040 N.am     10 SEL2        0.0000 
     36 N           0.0980   84.4150   91.5420 N.am      6 SEP2        0.0000 
     37 N          -3.2185   83.2950   93.2500 N.am      2 SEC2        0.0000 
     38 N          -3.8310   82.1050   93.5960 N.am      6 SEP2        0.0000 
     39 N          -3.7135   83.5015   94.3815 N.am      2 SEC2        0.0000 
     40 N          -3.5960   84.8980   95.1670 N.am     10 SEL2        0.0000 
     41 CA         -5.5745   84.7345   95.5030 C.3       4 GLC5        0.0000 
     42 CA         -3.6270   84.8270   96.4370 C.3      12 GLL5        0.0000 
     43 CA         -3.4030   86.4755   97.6785 C.3       4 GLC5        0.0000 
     44 CA         -3.1790   88.1240   98.9200 C.3       8 GLP5        0.0000 
     45 CA         -3.2855   82.1790   95.4080 C.3       4 GLC5        0.0000 
     46 CA         -3.4020   83.4110   96.7390 C.3      12 GLL5        0.0000 
     47 CA         -3.1690   80.9470   94.0770 C.3       8 GLP5        0.0000 
     48 CA         -5.2335   82.5990   96.8995 C.3       4 GLC5        0.0000 
     49 CA         -7.0650   81.7870   97.0600 C.3       8 GLP5        0.0000 
     50 CA         -2.4025   86.0360   98.6075 C.3       4 GLC5        0.0000 
     51 CA         -1.6260   83.9480   98.2950 C.3      12 GLL5        0.0000 
     52 CA          0.1390   84.7530   98.6635 C.3       4 GLC5        0.0000 
     53 CA          1.9040   85.5580   99.0320 C.3       8 GLP5        0.0000 
     54 O          -0.3985   84.7595   99.4660 O.2       1 ALC1        0.0000 
     55 O          -1.3850   83.7860   99.5420 O.2       9 ALL1        0.0000 
     56 O           0.5880   85.7330   99.3900 O.2       5 ALP1        0.0000 
     57 CA         -0.5550   82.7130   95.1040 C.3       4 GLC5        0.0000 
     58 CA         -0.9690   82.9440   97.1790 C.3      12 GLL5        0.0000 
     59 CA         -0.1410   82.4820   93.0290 C.3       8 GLP5        0.0000 
     60 CA         -2.0690   81.9455   95.6280 C.3       4 GLC5        0.0000 
     61 CA          0.7730   83.6280   98.1305 C.3       4 GLC5        0.0000 
     62 CA          2.5150   84.3120   99.0820 C.3       8 GLP5        0.0000 
     63 CA          0.9505   83.1315   94.3860 C.3       4 GLC5        0.0000 
     64 CA          2.0420   83.7810   95.7430 C.3      12 GLL5        0.0000 
     65 N           5.6520   83.3500   94.6275 N.am      2 SEC2        0.0000 
     66 N           4.1850   84.0930   94.8490 N.am     10 SEL2        0.0000 
     67 N           7.1190   82.6070   94.4060 N.am      6 SEP2        0.0000 
     68 O           5.1415   81.5970   95.9220 O.2       1 ALC1        0.0000 
     69 O           3.8840   82.1200   95.9610 O.2       9 ALL1        0.0000 
     70 O           6.3990   81.0740   95.8830 O.2       5 ALP1        0.0000 
     71 O           2.9040   79.3645   98.2465 O.2       1 ALC1        0.0000 
     72 O           3.7940   79.8930   97.1740 O.2       9 ALL1        0.0000 
     73 O           2.0140   78.8360   99.3190 O.2       5 ALP1        0.0000 
     74 O           5.0965   80.4835   96.5285 O.2       1 ALC1        0.0000 
     75 N           1.0915   81.0260   98.2215 N.am      2 SEC2        0.0000 
     76 N           1.7030   81.5910   96.9440 N.am     10 SEL2        0.0000 
     77 N           0.4800   80.4610   99.4990 N.am      6 SEP2        0.0000 
     78 CA          0.8990   81.9100   95.0635 C.3       4 GLC5        0.0000 
     79 CA          1.2080   82.8610   96.4770 C.3      12 GLL5        0.0000 
     80 CA          0.5900   80.9590   93.6500 C.3       8 GLP5        0.0000 
@<TRIPOS>BOND
@<TRIPOS>SUBSTRUCTURE
     1 ALC1       54 GROUP        1 X    ALC  0     ROOT ALC X 1
     2 SEC2        4 GROUP        1 X    SEC  0     **** SEC X 2
     3 ZIC7        1 GROUP        1 X    ZIC  0     **** ZIC X 5
     4 GLC5       31 GROUP        1 X    GLC  0     **** GLC X 6
     5 ALP1       56 GROUP        1 Y    ALP  0     ROOT ALP Y 8
     6 SEP2        6 GROUP        1 Y    SEP  0     **** SEP Y 9
     7 ZIP7        3 GROUP        1 Y    ZIP  0     **** ZIP Y 12
     8 GLP5       33 GROUP        1 Y    GLP  0     **** GLP Y 13
     9 ALL1       55 GROUP        1 Z    ALL  0     ROOT ALL Z 15
    10 SEL2        5 GROUP        1 Z    SEL  0     **** SEL Z 16
    11 ZIL7        2 GROUP        1 Z    ZIL  0     **** ZIL Z 19
    12 GLL5       32 GROUP        1 Z    GLL  0     **** GLL Z 20
@<TRIPOS>SET

