#    Name: 3ryh_G2P_1_ligand
#    Modification time : Mon Apr  7 21:54:21 2014

@<TRIPOS>MOLECULE
3ryh_G2P_1_ligand
   46    48     1     0     0
SMALL
NO_CHARGES


@<TRIPOS>ATOM
      1 PG         -6.8990   88.3260   91.7170 P.3       1 G2P600      0.0000 
      2 O1G        -5.8740   89.1360   92.2560 O.co2     1 G2P600      0.0000 
      3 O2G        -7.5010   88.9240   90.3210 O.co2     1 G2P600      0.0000 
      4 O3G        -8.1040   88.1040   92.6270 O.co2     1 G2P600      0.0000 
      5 O3B        -6.2430   86.8550   91.3030 O.3       1 G2P600      0.0000 
      6 PB         -4.7890   86.2370   91.5760 P.3       1 G2P600      0.0000 
      7 O1B        -3.6520   87.3580   91.2560 O.co2     1 G2P600      0.0000 
      8 O2B        -4.9210   84.7910   90.8880 O.co2     1 G2P600      0.0000 
      9 C3A        -4.5850   86.1390   93.1570 C.3       1 G2P600      0.0000 
     10 PA         -3.0250   85.7400   93.8410 P.3       1 G2P600      0.0000 
     11 O1A        -1.8830   86.5650   93.8220 O.co2     1 G2P600      0.0000 
     12 O2A        -2.6060   84.4850   92.9040 O.co2     1 G2P600      0.0000 
     13 O5'        -3.5960   84.8980   95.1670 O.3       1 G2P600      0.0000 
     14 C5'        -3.6270   84.8270   96.4370 C.3       1 G2P600      0.0000 
     15 C4'        -3.4020   83.4110   96.7390 C.3       1 G2P600      0.0000 
     16 O4'        -2.0830   82.8400   96.2860 O.3       1 G2P600      0.0000 
     17 C3'        -2.9280   83.2700   98.2670 C.3       1 G2P600      0.0000 
     18 O3'        -3.0720   81.8130   98.9500 O.3       1 G2P600      0.0000 
     19 C2'        -1.6260   83.9480   98.2950 C.3       1 G2P600      0.0000 
     20 O2'        -1.3850   83.7860   99.5420 O.3       1 G2P600      0.0000 
     21 C1'        -0.9690   82.9440   97.1790 C.3       1 G2P600      0.0000 
     22 N9          0.1350   83.5000   96.5360 N.pl3     1 G2P600      0.0000 
     23 C8          0.2060   84.6500   95.9780 C.2       1 G2P600      0.0000 
     24 N7          1.3060   84.9120   95.4540 N.2       1 G2P600      0.0000 
     25 C5          2.0420   83.7810   95.7430 C.2       1 G2P600      0.0000 
     26 C6          3.4790   83.3630   95.4470 C.2       1 G2P600      0.0000 
     27 O6          4.1850   84.0930   94.8490 O.2       1 G2P600      0.0000 
     28 N1          3.8840   82.1200   95.9610 N.am      1 G2P600      0.0000 
     29 C2          3.0910   81.1510   96.7440 C.2       1 G2P600      0.0000 
     30 N2          3.7940   79.8930   97.1740 N.pl3     1 G2P600      0.0000 
     31 N3          1.7030   81.5910   96.9440 N.2       1 G2P600      0.0000 
     32 C4          1.2080   82.8610   96.4770 C.2       1 G2P600      0.0000 
     33 H          -5.2708   85.3801   93.5812 H         1 G2P600      0.0000 
     34 H          -4.8537   87.1015   93.6341 H         1 G2P600      0.0000 
     35 H          -4.5885   85.1112   96.9011 H         1 G2P600      0.0000 
     36 H          -2.8414   85.4014   96.9599 H         1 G2P600      0.0000 
     37 H          -4.1457   82.7493   96.6151 H         1 G2P600      0.0000 
     38 H          -3.6606   83.9511   98.8171 H         1 G2P600      0.0000 
     39 H          -1.7448   84.8561   97.8545 H         1 G2P600      0.0000 
     40 H          -0.8134   82.0393   97.6892 H         1 G2P600      0.0000 
     41 H          -0.6021   85.3027   95.9720 H         1 G2P600      0.0000 
     42 H           4.8951   81.8115   95.7746 H         1 G2P600      0.0000 
     43 H           3.2463   79.2396   97.6966 H         1 G2P600      0.0000 
     44 H           4.7530   79.8103   96.9030 H         1 G2P600      0.0000 
     45 H          -4.0292   81.7534   99.2331 H         1 G2P600      0.0000 
     46 H          -0.6669   84.4486   99.7549 H         1 G2P600      0.0000 
@<TRIPOS>BOND
     1    2    1 ar   
     2    3    1 ar   
     3    4    1 ar   
     4    5    1 1    
     5    6    5 1    
     6    7    6 ar   
     7    8    6 ar   
     8    9    6 1    
     9   10    9 1    
    10   33    9 1    
    11   34    9 1    
    12   11   10 ar   
    13   12   10 ar   
    14   13   10 1    
    15   14   13 1    
    16   15   14 1    
    17   35   14 1    
    18   36   14 1    
    19   16   15 1    
    20   17   15 1    
    21   37   15 1    
    22   21   16 1    
    23   18   17 1    
    24   19   17 1    
    25   38   17 1    
    26   45   18 1    
    27   20   19 1    
    28   21   19 1    
    29   39   19 1    
    30   46   20 1    
    31   22   21 1    
    32   40   21 1    
    33   23   22 1    
    34   32   22 1    
    35   24   23 2    
    36   41   23 1    
    37   25   24 1    
    38   26   25 1    
    39   32   25 2    
    40   27   26 2    
    41   28   26 am   
    42   29   28 1    
    43   42   28 1    
    44   30   29 1    
    45   31   29 2    
    46   43   30 1    
    47   44   30 1    
    48   32   31 1    
@<TRIPOS>SUBSTRUCTURE
     1 G2P600      1 GROUP   
@<TRIPOS>SET

