#    Name: 3r6i_JMS_1_INTS_M
#    Modification time : Tue Mar 25 11:04:45 2014

@<TRIPOS>MOLECULE
3r6i_JMS_1_INTS_M
   36     0     9     0     0
SMALL
NO_CHARGES


@<TRIPOS>ATOM
      1 N           1.7495   -2.7490  -13.3515 N.am      2 SEC2        0.0000 
      2 N           0.7260   -3.4230  -13.5890 N.am      8 SEL2        0.0000 
      3 N           2.7730   -2.0750  -13.1140 N.am      5 SEP2        0.0000 
      4 N           1.2155   -3.6965  -14.8705 N.am      2 SEC2        0.0000 
      5 N           1.7050   -3.9700  -16.1520 N.am      5 SEP2        0.0000 
      6 O           0.1150   -6.0580  -14.0810 O.2       1 ALC1        0.0000 
      7 O          -1.2210   -5.5600  -14.0460 O.2       7 ALL1        0.0000 
      8 O           1.4510   -6.5560  -14.1160 O.2       4 ALP1        0.0000 
      9 CA         -0.3430   -8.4660  -11.6485 C.3       3 GLC5        0.0000 
     10 CA         -2.1040   -7.7460  -12.1740 C.3       9 GLL5        0.0000 
     11 CA          1.4180   -9.1860  -11.1230 C.3       6 GLP5        0.0000 
     12 CA         -3.2030   -8.1965  -11.1255 C.3       3 GLC5        0.0000 
     13 CA         -4.3020   -8.6470  -10.0770 C.3       6 GLP5        0.0000 
     14 CA         -0.5800   -6.7845  -11.7370 C.3       3 GLC5        0.0000 
     15 CA          0.9440   -5.8230  -11.3000 C.3       6 GLP5        0.0000 
     16 CA         -3.8330  -10.1940  -12.3680 C.3       3 GLC5        0.0000 
     17 CA         -2.7430  -10.4830  -14.1360 C.3       9 GLL5        0.0000 
     18 CA         -4.9230   -9.9050  -10.6000 C.3       6 GLP5        0.0000 
     19 CA         -4.5190   -9.7395  -14.1515 C.3       3 GLC5        0.0000 
     20 CA         -6.2950   -8.9960  -14.1670 C.3       6 GLP5        0.0000 
     21 CA         -0.6820   -8.3470  -18.2715 C.3       3 GLC5        0.0000 
     22 CA         -1.8280   -8.1210  -16.6930 C.3       9 GLL5        0.0000 
     23 CA          0.4640   -8.5730  -19.8500 C.3       6 GLP5        0.0000 
     24 CA         -1.4530   -3.7535  -16.7610 C.3       3 GLC5        0.0000 
     25 CA         -1.0720   -5.7050  -16.9030 C.3       9 GLL5        0.0000 
     26 CA         -1.8340   -1.8020  -16.6190 C.3       6 GLP5        0.0000 
     27 CA         -1.1815   -4.7785  -18.2860 C.3       3 GLC5        0.0000 
     28 CA         -1.2910   -3.8520  -19.6690 C.3       6 GLP5        0.0000 
     29 CA         -0.3040   -7.1390  -18.3765 C.3       3 GLC5        0.0000 
     30 CA         -1.9318   -2.7825  -14.8629 C.3       3 GLC5        0.0000 
     31 CA         -1.5680   -3.4330  -12.9170 C.3       9 GLL5        0.0000 
     32 CA         -2.6122   -9.9413  -17.5897 C.3       3 GLC5        0.0000 
     33 CA         -3.2170  -11.2160  -18.8360 C.3       6 GLP5        0.0000 
     34 CA          0.4297   -5.6405  -16.7375 C.3       3 GLC5        0.0000 
     35 CA         -1.4990   -6.9870  -15.9530 C.3       9 GLL5        0.0000 
     36 CA          2.1450   -4.9350  -17.0470 C.3       6 GLP5        0.0000 
@<TRIPOS>BOND
@<TRIPOS>SUBSTRUCTURE
     1 ALC1        6 GROUP        1 X    ALC  0     ROOT ALC X 1
     2 SEC2        1 GROUP        1 X    SEC  0     **** SEC X 2
     3 GLC5        9 GROUP        1 X    GLC  0     **** GLC X 6
     4 ALP1        8 GROUP        1 Y    ALP  0     ROOT ALP Y 8
     5 SEP2        3 GROUP        1 Y    SEP  0     **** SEP Y 9
     6 GLP5       11 GROUP        1 Y    GLP  0     **** GLP Y 13
     7 ALL1        7 GROUP        1 Z    ALL  0     ROOT ALL Z 15
     8 SEL2        2 GROUP        1 Z    SEL  0     **** SEL Z 16
     9 GLL5       10 GROUP        1 Z    GLL  0     **** GLL Z 20
@<TRIPOS>SET

