#    Name: 3r6i_JMS_1_ligand
#    Modification time : Tue Mar 25 11:04:45 2014

@<TRIPOS>MOLECULE
3r6i_JMS_1_ligand
   29    30     1     0     0
SMALL
NO_CHARGES


@<TRIPOS>ATOM
      1 OXT         0.2280   -2.6140  -11.6490 O.co2     1 JMS332      0.0000 
      2 C7         -0.0910   -3.1820  -12.7100 C.2       1 JMS332      0.0000 
      3 OH          0.7260   -3.4230  -13.5890 O.co2     1 JMS332      0.0000 
      4 C1         -1.5680   -3.4330  -12.9170 C.ar      1 JMS332      0.0000 
      5 C6         -2.4420   -2.4550  -12.3740 C.ar      1 JMS332      0.0000 
      6 C5         -3.8540   -2.6110  -12.4710 C.ar      1 JMS332      0.0000 
      7 C4         -4.3540   -3.7660  -13.1240 C.ar      1 JMS332      0.0000 
      8 C3         -3.4740   -4.7550  -13.6390 C.ar      1 JMS332      0.0000 
      9 C2         -2.0540   -4.5820  -13.5680 C.ar      1 JMS332      0.0000 
     10 N          -1.2210   -5.5600  -14.0460 N.pl3     1 JMS332      0.0000 
     11 C1B        -1.5910   -6.7950  -14.5870 C.ar      1 JMS332      0.0000 
     12 C2B        -1.9850   -7.9470  -13.8880 C.ar      1 JMS332      0.0000 
     13 CL1        -2.1040   -7.7460  -12.1740 Cl        1 JMS332      0.0000 
     14 C3B        -2.2820   -9.1340  -14.6310 C.ar      1 JMS332      0.0000 
     15 C7B        -2.7430  -10.4830  -14.1360 C.3       1 JMS332      0.0000 
     16 C4B        -2.1870   -9.2120  -15.9940 C.ar      1 JMS332      0.0000 
     17 C5B        -1.8280   -8.1210  -16.6930 C.ar      1 JMS332      0.0000 
     18 C6B        -1.4990   -6.9870  -15.9530 C.ar      1 JMS332      0.0000 
     19 CL2        -1.0720   -5.7050  -16.9030 Cl        1 JMS332      0.0000 
     20 H          -2.0561   -1.6307  -11.9088 H         1 JMS332      0.0000 
     21 H          -4.4753   -1.9215  -12.0872 H         1 JMS332      0.0000 
     22 H          -5.3674   -3.8905  -13.2267 H         1 JMS332      0.0000 
     23 H          -3.8537   -5.6023  -14.0665 H         1 JMS332      0.0000 
     24 H          -0.1583   -5.3646  -14.0046 H         1 JMS332      0.0000 
     25 H          -2.3918  -10.1072  -16.4719 H         1 JMS332      0.0000 
     26 H          -1.7911   -8.1003  -17.7044 H         1 JMS332      0.0000 
     27 H          -2.0845  -10.8916  -13.5040 H         1 JMS332      0.0000 
     28 H          -3.6157  -10.4224  -13.6514 H         1 JMS332      0.0000 
     29 H          -2.8692  -11.1310  -14.8871 H         1 JMS332      0.0000 
@<TRIPOS>BOND
     1    2    1 ar   
     2    3    2 ar   
     3    4    2 1    
     4    5    4 ar   
     5    9    4 ar   
     6    6    5 ar   
     7   20    5 1    
     8    7    6 ar   
     9   21    6 1    
    10    8    7 ar   
    11   22    7 1    
    12    9    8 ar   
    13   23    8 1    
    14   10    9 1    
    15   11   10 1    
    16   24   10 1    
    17   12   11 ar   
    18   18   11 ar   
    19   13   12 1    
    20   14   12 ar   
    21   15   14 1    
    22   16   14 ar   
    23   27   15 1    
    24   28   15 1    
    25   29   15 1    
    26   17   16 ar   
    27   25   16 1    
    28   18   17 ar   
    29   26   17 1    
    30   19   18 1    
@<TRIPOS>SUBSTRUCTURE
     1 JMS332      1 GROUP   
@<TRIPOS>SET

