#    Name: 2yjw_YJW_1_INTS_M
#    Modification time : Mon Apr  7 18:22:02 2014

@<TRIPOS>MOLECULE
2yjw_YJW_1_INTS_M
   46     0     9     0     0
SMALL
NO_CHARGES


@<TRIPOS>ATOM
      1 N           3.1220   33.0420   27.3490 N.am      2 SEC2        0.0000 
      2 N           2.4800   34.4780   27.0150 N.am      8 SEL2        0.0000 
      3 N           3.7640   31.6060   27.6830 N.am      5 SEP2        0.0000 
      4 CA          1.5950   39.5425   27.7930 C.3       3 GLC5        0.0000 
      5 CA          0.8550   37.7570   27.8960 C.3       9 GLL5        0.0000 
      6 CA          2.3350   41.3280   27.6900 C.3       6 GLP5        0.0000 
      7 CA         -4.0055   36.9710   23.9385 C.3       3 GLC5        0.0000 
      8 CA         -2.1870   37.5500   24.6040 C.3       9 GLL5        0.0000 
      9 CA         -5.8240   36.3920   23.2730 C.3       6 GLP5        0.0000 
     10 O           5.1470   33.2475   24.2405 O.2       1 ALC1        0.0000 
     11 O           4.0900   33.8750   24.7420 O.2       7 ALL1        0.0000 
     12 O           6.2040   32.6200   23.7390 O.2       4 ALP1        0.0000 
     13 CA          3.0070   36.5750   26.1797 C.3       3 GLC5        0.0000 
     14 CA          0.9950   35.9710   26.1200 C.3       9 GLL5        0.0000 
     15 CA          4.8460   36.9180   25.6390 C.3       6 GLP5        0.0000 
     16 CA          2.5975   37.7535   28.6973 C.3       3 GLC5        0.0000 
     17 CA          1.3410   36.4930   27.3210 C.3       9 GLL5        0.0000 
     18 CA          4.0970   38.3820   29.7860 C.3       6 GLP5        0.0000 
     19 CA          1.7788   34.4578   22.5355 C.3       3 GLC5        0.0000 
     20 CA          1.6100   33.9110   24.8230 C.3       9 GLL5        0.0000 
     21 CA          1.3140   35.2120   20.5710 C.3       6 GLP5        0.0000 
     22 CA          3.5448   35.3107   25.0695 C.3       3 GLC5        0.0000 
     23 CA          2.8770   33.4960   24.1770 C.3       9 GLL5        0.0000 
     24 CA          2.7058   31.8753   25.2020 C.3       3 GLC5        0.0000 
     25 CA          3.1680   30.0470   25.9040 C.3       6 GLP5        0.0000 
     26 CA          0.2868   35.3822   28.3051 C.3       3 GLC5        0.0000 
     27 CA         -0.4380   33.7700   29.3020 C.3       6 GLP5        0.0000 
     28 CA          0.7500   36.3590   22.0810 C.3       3 GLC5        0.0000 
     29 CA          0.6070   37.1520   24.0620 C.3       9 GLL5        0.0000 
     30 CA          1.5090   38.9760   22.8435 C.3       3 GLC5        0.0000 
     31 CA         -0.2350   37.8600   23.1200 C.3       9 GLL5        0.0000 
     32 CA          2.8320   40.4460   22.0960 C.3       6 GLP5        0.0000 
     33 CA         -3.2105   36.8300   26.4862 C.3       3 GLC5        0.0000 
     34 CA         -4.6610   36.4570   27.8890 C.3       6 GLP5        0.0000 
     35 CA          4.2818   34.2137   22.5560 C.3       3 GLC5        0.0000 
     36 CA          5.7370   35.3190   21.5280 C.3       6 GLP5        0.0000 
     37 CA          1.7145   33.8828   21.6535 C.3       3 GLC5        0.0000 
     38 CA          2.7760   32.7210   22.9910 C.3       9 GLL5        0.0000 
     39 CA          2.6415   31.3003   24.3200 C.3       3 GLC5        0.0000 
     40 CA          1.4540   32.3860   22.4810 C.3       9 GLL5        0.0000 
     41 CA          2.1395   30.4597   22.5590 C.3       3 GLC5        0.0000 
     42 CA          2.1640   28.3660   22.3820 C.3       6 GLP5        0.0000 
     43 CA          0.7940   34.1905   22.1310 C.3       3 GLC5        0.0000 
     44 CA          0.2170   32.7550   23.1130 C.3       9 GLL5        0.0000 
     45 CA          0.2284   32.4920   25.6343 C.3       3 GLC5        0.0000 
     46 CA         -0.1370   31.7330   27.4390 C.3       6 GLP5        0.0000 
@<TRIPOS>BOND
@<TRIPOS>SUBSTRUCTURE
     1 ALC1       10 GROUP        1 X    ALC  0     ROOT ALC X 1
     2 SEC2        1 GROUP        1 X    SEC  0     **** SEC X 2
     3 GLC5        4 GROUP        1 X    GLC  0     **** GLC X 6
     4 ALP1       12 GROUP        1 Y    ALP  0     ROOT ALP Y 8
     5 SEP2        3 GROUP        1 Y    SEP  0     **** SEP Y 9
     6 GLP5        6 GROUP        1 Y    GLP  0     **** GLP Y 13
     7 ALL1       11 GROUP        1 Z    ALL  0     ROOT ALL Z 15
     8 SEL2        2 GROUP        1 Z    SEL  0     **** SEL Z 16
     9 GLL5        5 GROUP        1 Z    GLL  0     **** GLL Z 20
@<TRIPOS>SET

