#    Name: 2yjw_YJW_1_ligand
#    Modification time : Mon Apr  7 18:22:02 2014

@<TRIPOS>MOLECULE
2yjw_YJW_1_ligand
   33    35     1     0     0
SMALL
NO_CHARGES


@<TRIPOS>ATOM
      1 N2          2.4800   34.4780   27.0150 N.2       1 YJW1224     0.0000 
      2 C3          1.6850   34.7600   25.9700 C.2       1 YJW1224     0.0000 
      3 C4          0.9950   35.9710   26.1200 C.2       1 YJW1224     0.0000 
      4 C5          1.3410   36.4930   27.3210 C.2       1 YJW1224     0.0000 
      5 C6          1.6100   33.9110   24.8230 C.ar      1 YJW1224     0.0000 
      6 C7          0.0730   36.6500   25.2550 C.ar      1 YJW1224     0.0000 
      7 C8          0.8550   37.7570   27.8960 C.3       1 YJW1224     0.0000 
      8 C12         0.6070   37.1520   24.0620 C.ar      1 YJW1224     0.0000 
      9 C13        -0.2350   37.8600   23.1200 C.ar      1 YJW1224     0.0000 
     10 C14        -1.6020   38.0390   23.3830 C.ar      1 YJW1224     0.0000 
     11 C15        -2.1870   37.5500   24.6040 C.ar      1 YJW1224     0.0000 
     12 C16        -1.3330   36.8560   25.5630 C.ar      1 YJW1224     0.0000 
     13 C21         2.8770   33.4960   24.1770 C.ar      1 YJW1224     0.0000 
     14 C22         2.7760   32.7210   22.9910 C.ar      1 YJW1224     0.0000 
     15 C23         1.4540   32.3860   22.4810 C.ar      1 YJW1224     0.0000 
     16 C24         0.2170   32.7550   23.1130 C.ar      1 YJW1224     0.0000 
     17 C25         0.3310   33.5830   24.2690 C.ar      1 YJW1224     0.0000 
     18 O29         1.4220   31.6850   21.3160 O.3       1 YJW1224     0.0000 
     19 O30         4.0900   33.8750   24.7420 O.3       1 YJW1224     0.0000 
     20 O11         2.2360   35.6750   27.9430 O.3       1 YJW1224     0.0000 
     21 H           1.5948   37.0290   23.8350 H         1 YJW1224     0.0000 
     22 H           0.1868   38.2235   22.2655 H         1 YJW1224     0.0000 
     23 H          -2.2030   38.5207   22.7089 H         1 YJW1224     0.0000 
     24 H          -3.1587   37.6787   24.7999 H         1 YJW1224     0.0000 
     25 H          -1.7163   36.5241   26.4287 H         1 YJW1224     0.0000 
     26 H           3.5924   32.4019   22.5009 H         1 YJW1224     0.0000 
     27 H          -0.6535   32.4520   22.7652 H         1 YJW1224     0.0000 
     28 H          -0.5157   33.9506   24.7123 H         1 YJW1224     0.0000 
     29 H           1.2557   37.9344   28.7949 H         1 YJW1224     0.0000 
     30 H           1.0794   38.5397   27.3154 H         1 YJW1224     0.0000 
     31 H          -0.1381   37.7541   28.0132 H         1 YJW1224     0.0000 
     32 H           0.9089   30.8534   21.5285 H         1 YJW1224     0.0000 
     33 H           4.7813   33.3466   24.2491 H         1 YJW1224     0.0000 
@<TRIPOS>BOND
     1    2    1 2    
     2   20    1 1    
     3    3    2 1    
     4    5    2 1    
     5    4    3 2    
     6    6    3 1    
     7    7    4 1    
     8   20    4 1    
     9   13    5 ar   
    10   17    5 ar   
    11    8    6 ar   
    12   12    6 ar   
    13   29    7 1    
    14   30    7 1    
    15   31    7 1    
    16    9    8 ar   
    17   21    8 1    
    18   10    9 ar   
    19   22    9 1    
    20   11   10 ar   
    21   23   10 1    
    22   12   11 ar   
    23   24   11 1    
    24   25   12 1    
    25   14   13 ar   
    26   19   13 1    
    27   15   14 ar   
    28   26   14 1    
    29   16   15 ar   
    30   18   15 1    
    31   17   16 ar   
    32   27   16 1    
    33   28   17 1    
    34   32   18 1    
    35   33   19 1    
@<TRIPOS>SUBSTRUCTURE
     1 YJW1224     1 GROUP   
@<TRIPOS>SET

