#    Name: 4ixh_IMP_8_INTS_M
#    Modification time : Tue Mar 25 04:55:26 2014

@<TRIPOS>MOLECULE
4ixh_IMP_8_INTS_M
   52     0     9     0     0
SMALL
NO_CHARGES


@<TRIPOS>ATOM
      1 N          15.0000  -37.3755    1.1010 N.am      2 SEC2        0.0000 
      2 N          15.8920  -36.0570    1.2190 N.am      8 SEL2        0.0000 
      3 N          14.1080  -38.6940    0.9830 N.am      5 SEP2        0.0000 
      4 N          15.4230  -35.2305    0.1965 N.am      2 SEC2        0.0000 
      5 N          14.9540  -34.4040   -0.8260 N.am      5 SEP2        0.0000 
      6 N          14.9190  -36.0280    1.9995 N.am      2 SEC2        0.0000 
      7 N          13.9460  -35.9990    2.7800 N.am      5 SEP2        0.0000 
      8 N          17.8730  -34.4845   -0.1310 N.am      2 SEC2        0.0000 
      9 N          18.2160  -35.8870    0.1660 N.am      8 SEL2        0.0000 
     10 N          17.5300  -33.0820   -0.4280 N.am      5 SEP2        0.0000 
     11 N          19.6020  -35.9680    0.1040 N.am      2 SEC2        0.0000 
     12 N          20.9880  -36.0490    0.0420 N.am      5 SEP2        0.0000 
     13 N          16.8200  -38.9410    2.0775 N.am      2 SEC2        0.0000 
     14 N          17.4580  -37.9220    1.2980 N.am      8 SEL2        0.0000 
     15 N          16.1820  -39.9600    2.8570 N.am      5 SEP2        0.0000 
     16 N          15.7830  -38.3080    1.1405 N.am      2 SEC2        0.0000 
     17 CA         16.1310  -37.6870    3.5395 C.3       3 GLC5        0.0000 
     18 CA         17.3820  -35.9670    3.9080 C.3       9 GLL5        0.0000 
     19 CA         14.8800  -39.4070    3.1710 C.3       6 GLP5        0.0000 
     20 CA         16.8245  -37.4075    6.7245 C.3       3 GLC5        0.0000 
     21 CA         17.8320  -35.6230    6.4270 C.3       9 GLL5        0.0000 
     22 CA         15.8170  -39.1920    7.0220 C.3       6 GLP5        0.0000 
     23 N          17.5670  -38.0495    6.4005 N.am      2 SEC2        0.0000 
     24 N          18.3770  -36.8630    6.8370 N.am      8 SEL2        0.0000 
     25 N          16.7570  -39.2360    5.9640 N.am      5 SEP2        0.0000 
     26 O          19.5760  -37.1150    6.4930 O.2       1 ALC1        0.0000 
     27 O          18.3770  -36.8630    6.8370 O.2       7 ALL1        0.0000 
     28 O          20.7750  -37.3670    6.1490 O.2       4 ALP1        0.0000 
     29 O          20.2695  -35.9700    6.8140 O.2       1 ALC1        0.0000 
     30 O          19.7640  -34.5730    7.4790 O.2       7 ALL1        0.0000 
     31 O          20.6240  -35.4200    7.6930 O.2       1 ALC1        0.0000 
     32 O          21.4840  -36.2670    7.9070 O.2       4 ALP1        0.0000 
     33 N          13.8190  -31.2215    7.6835 N.am      2 SEC2        0.0000 
     34 N          15.1240  -31.5900    7.1790 N.am      8 SEL2        0.0000 
     35 N          12.5140  -30.8530    8.1880 N.am      5 SEP2        0.0000 
     36 CA         13.9990  -30.6220    6.2800 C.3       3 GLC5        0.0000 
     37 CA         15.8500  -30.5410    6.7500 C.3       9 GLL5        0.0000 
     38 CA         12.1480  -30.7030    5.8100 C.3       6 GLP5        0.0000 
     39 N          13.7300  -28.6120    7.7995 N.am      2 SEC2        0.0000 
     40 N          14.4120  -28.7830    6.5780 N.am      8 SEL2        0.0000 
     41 N          13.0480  -28.4410    9.0210 N.am      5 SEP2        0.0000 
     42 O          16.4060  -27.1055    5.4970 O.2       1 ALC1        0.0000 
     43 O          16.5530  -28.3410    6.1490 O.2       7 ALL1        0.0000 
     44 O          16.2590  -25.8700    4.8450 O.2       4 ALP1        0.0000 
     45 CA         19.5985  -35.9535    3.4250 C.3       3 GLC5        0.0000 
     46 CA         21.4150  -36.2860    2.4000 C.3       6 GLP5        0.0000 
     47 CA         15.8945  -35.8105    5.8172 C.3       3 GLC5        0.0000 
     48 CA         18.1820  -35.2750    4.9920 C.3       9 GLL5        0.0000 
     49 CA         13.9820  -35.9990    6.1960 C.3       6 GLP5        0.0000 
     50 CA         15.6052  -31.2897    5.0460 C.3       3 GLC5        0.0000 
     51 CA         17.0830  -31.0340    6.3460 C.3       9 GLL5        0.0000 
     52 CA         14.7440  -31.7920    3.5440 C.3       6 GLP5        0.0000 
@<TRIPOS>BOND
@<TRIPOS>SUBSTRUCTURE
     1 ALC1       26 GROUP        1 X    ALC  0     ROOT ALC X 1
     2 SEC2        1 GROUP        1 X    SEC  0     **** SEC X 2
     3 GLC5       17 GROUP        1 X    GLC  0     **** GLC X 6
     4 ALP1       28 GROUP        1 Y    ALP  0     ROOT ALP Y 8
     5 SEP2        3 GROUP        1 Y    SEP  0     **** SEP Y 9
     6 GLP5       19 GROUP        1 Y    GLP  0     **** GLP Y 13
     7 ALL1       27 GROUP        1 Z    ALL  0     ROOT ALL Z 15
     8 SEL2        2 GROUP        1 Z    SEL  0     **** SEL Z 16
     9 GLL5       18 GROUP        1 Z    GLL  0     **** GLL Z 20
@<TRIPOS>SET

