#    Name: 4ixh_IMP_8_ligand
#    Modification time : Tue Mar 25 04:55:27 2014

@<TRIPOS>MOLECULE
4ixh_IMP_8_ligand
   34    36     1     0     0
SMALL
NO_CHARGES


@<TRIPOS>ATOM
      1 P          17.3510  -36.4080    1.2940 P.3       1 IMP501      0.0000 
      2 O1P        15.8920  -36.0570    1.2190 O.co2     1 IMP501      0.0000 
      3 O2P        18.2160  -35.8870    0.1660 O.co2     1 IMP501      0.0000 
      4 O3P        17.4580  -37.9220    1.2980 O.co2     1 IMP501      0.0000 
      5 O5'        17.9910  -35.8030    2.6270 O.3       1 IMP501      0.0000 
      6 C5'        17.3820  -35.9670    3.9080 C.3       1 IMP501      0.0000 
      7 C4'        18.1820  -35.2750    4.9920 C.3       1 IMP501      0.0000 
      8 O4'        17.9720  -33.8450    4.9360 O.3       1 IMP501      0.0000 
      9 C3'        17.8320  -35.6230    6.4270 C.3       1 IMP501      0.0000 
     10 O3'        18.3770  -36.8630    6.8370 O.3       1 IMP501      0.0000 
     11 C2'        18.3750  -34.4260    7.2130 C.3       1 IMP501      0.0000 
     12 O2'        19.7640  -34.5730    7.4790 O.3       1 IMP501      0.0000 
     13 C1'        18.2070  -33.2790    6.2130 C.3       1 IMP501      0.0000 
     14 N9         17.0820  -32.3860    6.5520 N.pl3     1 IMP501      0.0000 
     15 C8         15.8570  -32.7250    7.0580 C.2       1 IMP501      0.0000 
     16 N7         15.1240  -31.5900    7.1790 N.2       1 IMP501      0.0000 
     17 C5         15.8500  -30.5410    6.7500 C.2       1 IMP501      0.0000 
     18 C6         15.5760  -29.1750    6.6510 C.2       1 IMP501      0.0000 
     19 O6         14.4120  -28.7830    6.5780 O.2       1 IMP501      0.0000 
     20 N1         16.5530  -28.3410    6.1490 N.am      1 IMP501      0.0000 
     21 C2         17.7690  -28.8530    5.7580 C.2       1 IMP501      0.0000 
     22 N3         18.0320  -30.2000    5.8610 N.2       1 IMP501      0.0000 
     23 C4         17.0830  -31.0340    6.3460 C.2       1 IMP501      0.0000 
     24 H          17.2955  -37.0340    4.1789 H         1 IMP501      0.0000 
     25 H          16.3591  -35.5514    3.9235 H         1 IMP501      0.0000 
     26 H          19.2420  -35.4704    4.8506 H         1 IMP501      0.0000 
     27 H          16.7522  -35.5828    6.5061 H         1 IMP501      0.0000 
     28 H          17.7769  -34.2453    8.0372 H         1 IMP501      0.0000 
     29 H          19.1319  -32.7120    6.2060 H         1 IMP501      0.0000 
     30 H          15.5729  -33.6114    7.2851 H         1 IMP501      0.0000 
     31 H          16.3696  -27.3261    6.0665 H         1 IMP501      0.0000 
     32 H          18.4969  -28.2156    5.3807 H         1 IMP501      0.0000 
     33 H          19.0347  -37.1051    6.1237 H         1 IMP501      0.0000 
     34 H          19.9135  -35.5601    7.5358 H         1 IMP501      0.0000 
@<TRIPOS>BOND
     1    2    1 ar   
     2    3    1 ar   
     3    4    1 ar   
     4    5    1 1    
     5    6    5 1    
     6    7    6 1    
     7   24    6 1    
     8   25    6 1    
     9    8    7 1    
    10    9    7 1    
    11   26    7 1    
    12   13    8 1    
    13   10    9 1    
    14   11    9 1    
    15   27    9 1    
    16   33   10 1    
    17   12   11 1    
    18   13   11 1    
    19   28   11 1    
    20   34   12 1    
    21   14   13 1    
    22   29   13 1    
    23   15   14 1    
    24   23   14 1    
    25   16   15 2    
    26   30   15 1    
    27   17   16 1    
    28   18   17 1    
    29   23   17 2    
    30   19   18 2    
    31   20   18 am   
    32   21   20 1    
    33   31   20 1    
    34   22   21 2    
    35   32   21 1    
    36   23   22 1    
@<TRIPOS>SUBSTRUCTURE
     1 IMP501      1 GROUP   
@<TRIPOS>SET

