#    Name: 4a2b_AGS_1_INTS_M
#    Modification time : Tue Mar 25 04:52:36 2014

@<TRIPOS>MOLECULE
4a2b_AGS_1_INTS_M
   74     0    15     0     0
SMALL
NO_CHARGES


@<TRIPOS>ATOM
      1 N          -7.6205  -13.7875  -22.4865 N.am      2 SEC2        0.0000 
      2 N          -8.6970  -14.6070  -23.0800 N.am     12 SEL2        0.0000 
      3 N          -6.5440  -12.9680  -21.8930 N.am      7 SEP2        0.0000 
      4 N          -7.1955  -14.7620  -23.3405 N.am      2 SEC2        0.0000 
      5 N          -5.6940  -14.9170  -23.6010 N.am      7 SEP2        0.0000 
      6 N          -9.6185  -15.2995  -22.4895 N.am      2 SEC2        0.0000 
      7 N         -10.5400  -15.9920  -21.8990 N.am      7 SEP2        0.0000 
      8 Zn        -11.3840  -12.7790  -24.1765 Zn        4 ZIC7        0.0000 
      9 Zn        -10.8860  -13.7380  -24.1960 Zn       14 ZIL7        0.0000 
     10 Zn        -11.8820  -11.8200  -24.1570 Zn        9 ZIP7        0.0000 
     11 N         -10.7130  -14.8650  -23.0475 N.am      2 SEC2        0.0000 
     12 N         -10.8860  -13.7380  -24.1960 N.am     12 SEL2        0.0000 
     13 NZ         -9.9525   -9.5540  -24.1375 N.4       3 LYC4        0.0000 
     14 NZ         -9.9130  -10.5640  -24.7270 N.4      13 LYL4        0.0000 
     15 NZ         -9.9920   -8.5440  -23.5480 N.4       8 LYP4        0.0000 
     16 Zn        -10.8975  -11.1920  -24.4420 Zn        4 ZIC7        0.0000 
     17 Zn         -9.9130  -10.5640  -24.7270 Zn       14 ZIL7        0.0000 
     18 N          -9.9525   -9.5540  -24.1375 N.am      2 SEC2        0.0000 
     19 N          -9.9130  -10.5640  -24.7270 N.am     12 SEL2        0.0000 
     20 N          -9.9920   -8.5440  -23.5480 N.am      7 SEP2        0.0000 
     21 NZ         -8.7435   -9.6625  -23.9830 N.4       3 LYC4        0.0000 
     22 NZ         -7.4950  -10.7810  -24.4180 N.4      13 LYL4        0.0000 
     23 N          -6.1750  -11.2135  -23.9680 N.am      2 SEC2        0.0000 
     24 N          -7.4950  -10.7810  -24.4180 N.am     12 SEL2        0.0000 
     25 N          -4.8550  -11.6460  -23.5180 N.am      7 SEP2        0.0000 
     26 N          -6.5200   -9.7930  -23.9440 N.am      2 SEC2        0.0000 
     27 N          -5.5450   -8.8050  -23.4700 N.am      7 SEP2        0.0000 
     28 N          -8.7435   -9.6625  -23.9830 N.am      2 SEC2        0.0000 
     29 N          -8.4225  -13.6925  -26.6980 N.am      2 SEC2        0.0000 
     30 N          -8.7480  -12.8970  -25.2200 N.am     12 SEL2        0.0000 
     31 N          -8.0970  -14.4880  -28.1760 N.am      7 SEP2        0.0000 
     32 N         -11.0830  -10.2550  -29.0340 N.am      2 SEC2        0.0000 
     33 N         -10.4760  -10.8500  -27.9080 N.am     12 SEL2        0.0000 
     34 N         -11.6900   -9.6600  -30.1600 N.am      7 SEP2        0.0000 
     35 NZ         -9.6630   -8.5705  -25.3545 N.4       3 LYC4        0.0000 
     36 NZ         -9.3340   -8.5970  -27.1610 N.4      13 LYL4        0.0000 
     37 CA         -5.2445   -9.8010  -27.7815 C.3       5 GLC5        0.0000 
     38 CA         -6.9400  -10.0150  -29.0910 C.3      15 GLL5        0.0000 
     39 CA         -3.5490   -9.5870  -26.4720 C.3      10 GLP5        0.0000 
     40 CA         -6.2375   -8.4245  -28.2870 C.3       5 GLC5        0.0000 
     41 CA         -5.5350   -6.8340  -27.4830 C.3      10 GLP5        0.0000 
     42 CA         -6.4705  -11.9070  -28.2220 C.3       5 GLC5        0.0000 
     43 CA         -6.0010  -13.7990  -27.3530 C.3      10 GLP5        0.0000 
     44 CA         -5.1405  -11.7790  -29.4030 C.3       5 GLC5        0.0000 
     45 CA         -6.4700  -10.3340  -30.4960 C.3      15 GLL5        0.0000 
     46 CA         -3.8110  -13.2240  -28.3100 C.3      10 GLP5        0.0000 
     47 CA         -6.4430  -11.8835  -31.4690 C.3       5 GLC5        0.0000 
     48 CA         -6.4160  -13.4330  -32.4420 C.3      10 GLP5        0.0000 
     49 CA         -5.4000   -8.1255  -29.0840 C.3       5 GLC5        0.0000 
     50 CA         -5.2650   -9.4170  -30.6850 C.3      15 GLL5        0.0000 
     51 O          -2.9990   -9.4520  -30.2015 O.2       1 ALC1        0.0000 
     52 O          -4.0920  -10.1810  -30.4670 O.2      11 ALL1        0.0000 
     53 O          -1.9060   -8.7230  -29.9360 O.2       6 ALP1        0.0000 
     54 CA         -3.1945   -8.6490  -32.1590 C.3       5 GLC5        0.0000 
     55 CA         -5.2310   -9.0480  -32.1810 C.3      15 GLL5        0.0000 
     56 CA         -1.1580   -8.2500  -32.1370 C.3      10 GLP5        0.0000 
     57 CA         -4.3705   -7.1110  -32.4435 C.3       5 GLC5        0.0000 
     58 CA         -3.5100   -5.1740  -32.7060 C.3      10 GLP5        0.0000 
     59 CA         -7.2700  -11.0235  -32.6850 C.3       5 GLC5        0.0000 
     60 CA         -6.7020   -8.9960  -32.5050 C.3      15 GLL5        0.0000 
     61 CA         -7.8380  -13.0510  -32.8650 C.3      10 GLP5        0.0000 
     62 CA         -8.6985   -8.9555  -31.7485 C.3       5 GLC5        0.0000 
     63 CA        -10.6950   -8.9150  -30.9920 C.3      10 GLP5        0.0000 
     64 CA         -5.8520   -5.8350  -36.2275 C.3       5 GLC5        0.0000 
     65 CA         -7.5880   -6.8350  -35.9620 C.3      15 GLL5        0.0000 
     66 CA         -4.1160   -4.8350  -36.4930 C.3      10 GLP5        0.0000 
     67 CA         -8.3420   -8.1410  -36.8345 C.3       5 GLC5        0.0000 
     68 CA         -9.0960   -9.4470  -37.7070 C.3      10 GLP5        0.0000 
     69 CA         -8.7000   -9.5448  -30.3927 C.3       5 GLC5        0.0000 
     70 CA         -9.7788   -5.3780  -34.3852 C.3       5 GLC5        0.0000 
     71 CA         -7.7880   -5.7290  -33.6230 C.3      15 GLL5        0.0000 
     72 CA        -11.6370   -5.3890  -34.5750 C.3      10 GLP5        0.0000 
     73 CA         -5.7886   -5.8163  -34.0451 C.3       5 GLC5        0.0000 
     74 CA         -3.9380   -5.4390  -34.1120 C.3      10 GLP5        0.0000 
@<TRIPOS>BOND
@<TRIPOS>SUBSTRUCTURE
     1 ALC1       51 GROUP        1 X    ALC  0     ROOT ALC X 1
     2 SEC2        1 GROUP        1 X    SEC  0     **** SEC X 2
     3 LYC4       13 GROUP        1 X    LYC  0     **** LYC X 4
     4 ZIC7        8 GROUP        1 X    ZIC  0     **** ZIC X 5
     5 GLC5       37 GROUP        1 X    GLC  0     **** GLC X 6
     6 ALP1       53 GROUP        1 Y    ALP  0     ROOT ALP Y 8
     7 SEP2        3 GROUP        1 Y    SEP  0     **** SEP Y 9
     8 LYP4       15 GROUP        1 Y    LYP  0     **** LYP Y 11
     9 ZIP7       10 GROUP        1 Y    ZIP  0     **** ZIP Y 12
    10 GLP5       39 GROUP        1 Y    GLP  0     **** GLP Y 13
    11 ALL1       52 GROUP        1 Z    ALL  0     ROOT ALL Z 15
    12 SEL2        2 GROUP        1 Z    SEL  0     **** SEL Z 16
    13 LYL4       14 GROUP        1 Z    LYL  0     **** LYL Z 18
    14 ZIL7        9 GROUP        1 Z    ZIL  0     **** ZIL Z 19
    15 GLL5       38 GROUP        1 Z    GLL  0     **** GLL Z 20
@<TRIPOS>SET

