#    Name: 4a2b_AGS_1_ligand
#    Modification time : Tue Mar 25 04:52:36 2014

@<TRIPOS>MOLECULE
4a2b_AGS_1_ligand
   42    44     1     0     0
SMALL
NO_CHARGES


@<TRIPOS>ATOM
      1 PG         -9.4570  -14.1810  -24.3490 P.3       1 AGS1393     0.0000 
      2 O2G        -8.6970  -14.6070  -23.0800 O.co2     1 AGS1393     0.0000 
      3 O3G       -10.8860  -13.7380  -24.1960 O.co2     1 AGS1393     0.0000 
      4 PB         -8.6710  -11.2860  -25.1150 P.3       1 AGS1393     0.0000 
      5 O1B        -9.9130  -10.5640  -24.7270 O.co2     1 AGS1393     0.0000 
      6 O2B        -7.4950  -10.7810  -24.4180 O.co2     1 AGS1393     0.0000 
      7 O3B        -8.7480  -12.8970  -25.2200 O.3       1 AGS1393     0.0000 
      8 PA         -9.1650  -10.0200  -27.6510 P.3       1 AGS1393     0.0000 
      9 O1A       -10.4760  -10.8500  -27.9080 O.co2     1 AGS1393     0.0000 
     10 O2A        -9.3340   -8.5970  -27.1610 O.co2     1 AGS1393     0.0000 
     11 O3A        -8.2910  -10.8690  -26.6360 O.3       1 AGS1393     0.0000 
     12 O5'        -8.2720  -10.4300  -28.9870 O.3       1 AGS1393     0.0000 
     13 C5'        -6.9400  -10.0150  -29.0910 C.3       1 AGS1393     0.0000 
     14 C4'        -6.4700  -10.3340  -30.4960 C.3       1 AGS1393     0.0000 
     15 O4'        -7.4120   -9.7150  -31.3990 O.3       1 AGS1393     0.0000 
     16 C3'        -5.2650   -9.4170  -30.6850 C.3       1 AGS1393     0.0000 
     17 O3'        -4.0920  -10.1810  -30.4670 O.3       1 AGS1393     0.0000 
     18 C2'        -5.2310   -9.0480  -32.1810 C.3       1 AGS1393     0.0000 
     19 O2'        -4.6900  -10.1600  -32.9460 O.3       1 AGS1393     0.0000 
     20 C1'        -6.7020   -8.9960  -32.5050 C.3       1 AGS1393     0.0000 
     21 N9         -7.1050   -7.5440  -32.5830 N.pl3     1 AGS1393     0.0000 
     22 C8         -7.3470   -6.5920  -31.6190 C.2       1 AGS1393     0.0000 
     23 N7         -7.7620   -5.4400  -32.2750 N.2       1 AGS1393     0.0000 
     24 C5         -7.7880   -5.7290  -33.6230 C.ar      1 AGS1393     0.0000 
     25 C6         -8.0530   -5.0050  -34.7680 C.ar      1 AGS1393     0.0000 
     26 N6         -8.4550   -3.7350  -34.7450 N.pl3     1 AGS1393     0.0000 
     27 N1         -7.9690   -5.5750  -35.9270 N.ar      1 AGS1393     0.0000 
     28 C2         -7.5880   -6.8350  -35.9620 C.ar      1 AGS1393     0.0000 
     29 N3         -7.2690   -7.6230  -34.9130 N.ar      1 AGS1393     0.0000 
     30 C4         -7.3580   -7.0200  -33.7610 C.ar      1 AGS1393     0.0000 
     31 H          -6.2828  -10.5378  -28.3925 H         1 AGS1393     0.0000 
     32 H          -6.8231   -8.9401  -28.9359 H         1 AGS1393     0.0000 
     33 H          -6.2563  -11.2720  -30.6559 H         1 AGS1393     0.0000 
     34 H          -5.3452   -8.5711  -30.1161 H         1 AGS1393     0.0000 
     35 H          -4.7904   -8.1537  -32.3264 H         1 AGS1393     0.0000 
     36 H          -6.8705   -9.4787  -33.4316 H         1 AGS1393     0.0000 
     37 H          -7.2512   -6.6951  -30.6849 H         1 AGS1393     0.0000 
     38 H          -8.5878   -3.3318  -33.8396 H         1 AGS1393     0.0000 
     39 H          -8.5878   -3.2993  -35.6352 H         1 AGS1393     0.0000 
     40 H          -7.5179   -7.3095  -36.9490 H         1 AGS1393     0.0000 
     41 H          -3.3853   -9.5109  -30.2402 H         1 AGS1393     0.0000 
     42 H          -4.3539  -10.8062  -32.2608 H         1 AGS1393     0.0000 
@<TRIPOS>BOND
     1    2    1 ar   
     2    3    1 ar   
     3    7    1 1    
     4    5    4 ar   
     5    6    4 ar   
     6    7    4 1    
     7   11    4 1    
     8    9    8 ar   
     9   10    8 ar   
    10   11    8 1    
    11   12    8 1    
    12   13   12 1    
    13   14   13 1    
    14   31   13 1    
    15   32   13 1    
    16   15   14 1    
    17   16   14 1    
    18   33   14 1    
    19   20   15 1    
    20   17   16 1    
    21   18   16 1    
    22   34   16 1    
    23   41   17 1    
    24   19   18 1    
    25   20   18 1    
    26   35   18 1    
    27   42   19 1    
    28   21   20 1    
    29   36   20 1    
    30   22   21 1    
    31   30   21 1    
    32   23   22 2    
    33   37   22 1    
    34   24   23 1    
    35   25   24 ar   
    36   30   24 ar   
    37   26   25 1    
    38   27   25 ar   
    39   38   26 1    
    40   39   26 1    
    41   28   27 ar   
    42   29   28 ar   
    43   40   28 1    
    44   30   29 ar   
@<TRIPOS>SUBSTRUCTURE
     1 AGS1393     1 GROUP   
@<TRIPOS>SET

