#    Name: 1dww_H2B_1_INTS_M
#    Modification time : Mon Mar 24 22:30:00 2014

@<TRIPOS>MOLECULE
1dww_H2B_1_INTS_M
   26     0     9     0     0
SMALL
NO_CHARGES


@<TRIPOS>ATOM
      1 O         112.1300  110.8340   31.1120 O.2       1 ALC1        0.0000 
      2 O         113.3830  111.4290   32.1660 O.2       7 ALL1        0.0000 
      3 O         110.8770  110.2390   30.0580 O.2       4 ALP1        0.0000 
      4 O         114.8870  111.9600   29.9655 O.2       1 ALC1        0.0000 
      5 O         115.3720  112.2860   31.3640 O.2       7 ALL1        0.0000 
      6 O         114.4020  111.6340   28.5670 O.2       4 ALP1        0.0000 
      7 N         114.2810  112.9310   35.8015 N.am      2 SEC2        0.0000 
      8 N         114.8630  111.4170   35.8200 N.am      8 SEL2        0.0000 
      9 N         113.6990  114.4450   35.7830 N.am      5 SEP2        0.0000 
     10 CA        113.0225  110.2970   31.2565 C.3       3 GLC5        0.0000 
     11 CA        112.6190  110.9870   33.1660 C.3       9 GLL5        0.0000 
     12 CA        113.4260  109.6070   29.3470 C.3       6 GLP5        0.0000 
     13 O         111.1390  110.3690   31.4840 O.2       1 ALC1        0.0000 
     14 O         111.4010  110.4990   32.9100 O.2       7 ALL1        0.0000 
     15 CA        112.3365  109.1045   36.8735 C.3       3 GLC5        0.0000 
     16 CA        111.1160  109.9640   35.2660 C.3       9 GLL5        0.0000 
     17 CA        113.5570  108.2450   38.4810 C.3       6 GLP5        0.0000 
     18 CA        109.9370  109.1280   32.6455 C.3       3 GLC5        0.0000 
     19 CA        110.5320  110.1880   33.9460 C.3       9 GLL5        0.0000 
     20 CA        109.3420  108.0680   31.3450 C.3       6 GLP5        0.0000 
     21 O         109.2690  106.2290   35.8565 O.2       1 ALC1        0.0000 
     22 O         109.7980  107.4180   35.7780 O.2       7 ALL1        0.0000 
     23 O         108.7400  105.0400   35.9350 O.2       4 ALP1        0.0000 
     24 CA        110.7190  107.8255   37.7084 C.3       3 GLC5        0.0000 
     25 CA        109.2140  108.6410   36.2510 C.3       9 GLL5        0.0000 
     26 CA        112.3410  106.8930   38.4670 C.3       6 GLP5        0.0000 
@<TRIPOS>BOND
@<TRIPOS>SUBSTRUCTURE
     1 ALC1        1 GROUP        1 X    ALC  0     ROOT ALC X 1
     2 SEC2        7 GROUP        1 X    SEC  0     **** SEC X 2
     3 GLC5       10 GROUP        1 X    GLC  0     **** GLC X 6
     4 ALP1        3 GROUP        1 Y    ALP  0     ROOT ALP Y 8
     5 SEP2        9 GROUP        1 Y    SEP  0     **** SEP Y 9
     6 GLP5       12 GROUP        1 Y    GLP  0     **** GLP Y 13
     7 ALL1        2 GROUP        1 Z    ALL  0     ROOT ALL Z 15
     8 SEL2        8 GROUP        1 Z    SEL  0     **** SEL Z 16
     9 GLL5       11 GROUP        1 Z    GLL  0     **** GLL Z 20
@<TRIPOS>SET

