#    Name: 1dww_H2B_1_ligand
#    Modification time : Mon Mar 24 22:30:01 2014

@<TRIPOS>MOLECULE
1dww_H2B_1_ligand
   32    33     1     0     0
SMALL
NO_CHARGES


@<TRIPOS>ATOM
      1 N1        113.3830  111.4290   32.1660 N.pl3     1 H2B902      0.0000 
      2 C2        114.6300  111.8470   32.3990 C.cat     1 H2B902      0.0000 
      3 N2        115.3720  112.2860   31.3640 N.pl3     1 H2B902      0.0000 
      4 N3        115.1390  111.8880   33.6380 N.am      1 H2B902      0.0000 
      5 C4        114.4330  111.4460   34.6760 C.2       1 H2B902      0.0000 
      6 O4        114.8630  111.4170   35.8200 O.2       1 H2B902      0.0000 
      7 C4A       113.1250  110.9950   34.4930 C.2       1 H2B902      0.0000 
      8 C8A       112.6190  110.9870   33.1660 C.2       1 H2B902      0.0000 
      9 N5        112.4290  110.5020   35.5140 N.2       1 H2B902      0.0000 
     10 N8        111.4010  110.4990   32.9100 N.pl3     1 H2B902      0.0000 
     11 C6        111.1160  109.9640   35.2660 C.3       1 H2B902      0.0000 
     12 C7        110.5320  110.1880   33.9460 C.3       1 H2B902      0.0000 
     13 C9        110.3380  109.6470   36.5420 C.3       1 H2B902      0.0000 
     14 O9        109.7810  110.8480   37.0770 O.3       1 H2B902      0.0000 
     15 C10       109.2140  108.6410   36.2510 C.3       1 H2B902      0.0000 
     16 C11       108.4180  108.3720   37.5030 C.3       1 H2B902      0.0000 
     17 O10       109.7980  107.4180   35.7780 O.3       1 H2B902      0.0000 
     18 H         113.0018  111.4488   31.1875 H         1 H2B902      0.0000 
     19 H         114.9436  112.2335   30.4619 H         1 H2B902      0.0000 
     20 H         116.2851  112.6253   31.5899 H         1 H2B902      0.0000 
     21 H         116.1051  112.2736   33.7871 H         1 H2B902      0.0000 
     22 H         111.0801  110.3426   31.9308 H         1 H2B902      0.0000 
     23 H         111.5307  108.7174   35.0603 H         1 H2B902      0.0000 
     24 H         109.9086  109.2703   33.6831 H         1 H2B902      0.0000 
     25 H         109.7330  110.9942   34.0534 H         1 H2B902      0.0000 
     26 H         111.0193  109.1877   37.2454 H         1 H2B902      0.0000 
     27 H         108.5666  109.0725   35.5086 H         1 H2B902      0.0000 
     28 H         108.9877  107.9893   38.2303 H         1 H2B902      0.0000 
     29 H         108.0019  109.2062   37.8649 H         1 H2B902      0.0000 
     30 H         107.6762  107.7218   37.3389 H         1 H2B902      0.0000 
     31 H         110.3181  111.0386   37.8987 H         1 H2B902      0.0000 
     32 H         109.1342  106.7073   36.0109 H         1 H2B902      0.0000 
@<TRIPOS>BOND
     1    2    1 ar   
     2    8    1 1    
     3   18    1 1    
     4    3    2 ar   
     5    4    2 ar   
     6   19    3 1    
     7   20    3 1    
     8    5    4 am   
     9   21    4 1    
    10    6    5 2    
    11    7    5 1    
    12    8    7 1    
    13    9    7 2    
    14   10    8 2    
    15   11    9 1    
    16   12   10 1    
    17   22   10 1    
    18   12   11 1    
    19   13   11 1    
    20   23   11 1    
    21   24   12 1    
    22   25   12 1    
    23   14   13 1    
    24   15   13 1    
    25   26   13 1    
    26   31   14 1    
    27   16   15 1    
    28   17   15 1    
    29   27   15 1    
    30   28   16 1    
    31   29   16 1    
    32   30   16 1    
    33   32   17 1    
@<TRIPOS>SUBSTRUCTURE
     1 H2B902      1 GROUP   
@<TRIPOS>SET

