#    Name: 4F3K_1_CAVITY_N1_ALL.mol2
#    Modification time : Mon Mar 10 18:38:38 2014

@<TRIPOS>MOLECULE
4F3K_1_CAVITY_N1_ALL.mol2
   76     0     6     0     0
SMALL
NO_CHARGES


@<TRIPOS>ATOM
      1 NZ          0.2492   -7.3108   21.6080 N.2       3 LYS4        0.0000 
      2 CZ         -0.5599   -5.3177   20.1509 C.ar      4 PHE5        0.0000 
      3 CZ          0.0298   -4.9134   18.8323 C.ar      4 PHE5        0.0000 
      4 NZ         -1.1298   -7.1585   21.0379 N.2       3 LYS4        0.0000 
      5 NZ         -0.5401   -6.7542   19.7193 N.2       3 LYS4        0.0000 
      6 NZ          0.0496   -6.3498   18.4007 N.2       3 LYS4        0.0000 
      7 CZ         -1.9390   -5.1655   19.5808 C.ar      4 PHE5        0.0000 
      8 CZ         -1.3492   -4.7611   18.2622 C.ar      4 PHE5        0.0000 
      9 CA         -2.5089   -7.0062   20.4678 C.3       5 GLY6        0.0000 
     10 CA         -1.9192   -6.6019   19.1492 C.3       5 GLY6        0.0000 
     11 CZ         -1.3294   -6.1976   17.8306 C.ar      4 PHE5        0.0000 
     12 CZ         -0.7397   -5.7932   16.5120 C.ar      4 PHE5        0.0000 
     13 CA         -2.4891   -8.4426   20.0362 C.3       5 GLY6        0.0000 
     14 DU         -1.8993   -8.0383   18.7176 H         6 CUB7        0.0000 
     15 DU         -1.3096   -7.6340   17.3990 H         6 CUB7        0.0000 
     16 CA         -0.1301   -6.8253   14.7618 C.3       5 GLY6        0.0000 
     17 NZ         -4.0068    1.7646   22.4874 N.2       3 LYS4        0.0000 
     18 CZ         -3.9870    0.3282   22.0558 C.ar      4 PHE5        0.0000 
     19 CZ         -3.3774   -0.7039   20.3055 C.ar      4 PHE5        0.0000 
     20 CZ         -3.3576   -2.1403   19.8739 C.ar      4 PHE5        0.0000 
     21 CZ         -3.3378   -3.5768   19.4423 C.ar      4 PHE5        0.0000 
     22 CZ         -2.7481   -3.1724   18.1237 C.ar      4 PHE5        0.0000 
     23 CA         -3.3180   -5.0132   19.0107 C.3       5 GLY6        0.0000 
     24 CZ         -2.7283   -4.6089   17.6921 C.ar      4 PHE5        0.0000 
     25 CA         -3.2982   -6.4496   18.5791 C.3       5 GLY6        0.0000 
     26 DU         -2.7085   -6.0453   17.2605 H         6 CUB7        0.0000 
     27 CZ         -2.1187   -5.6410   15.9419 C.ar      4 PHE5        0.0000 
     28 DU         -3.2784   -7.8860   18.1475 H         6 CUB7        0.0000 
     29 OG         -2.6887   -7.4817   16.8289 O.2       1 SER1        0.0000 
     30 OG         -2.0989   -7.0774   15.5103 O.2       1 SER1        0.0000 
     31 O          -5.4056    3.3533   22.3489 O.2       2 ALA2        0.0000 
     32 N          -4.8159    3.7577   21.0303 N.2       2 ALA2        0.0000 
     33 N          -5.9756    1.5126   23.2359 N.2       2 ALA2        0.0000 
     34 DU         -5.3858    1.9169   21.9173 H         6 CUB7        0.0000 
     35 CZ         -4.7961    2.3212   20.5987 C.ar      4 PHE5        0.0000 
     36 CZ         -5.3660    0.4805   21.4857 C.ar      4 PHE5        0.0000 
     37 CZ         -4.7763    0.8848   20.1671 C.ar      4 PHE5        0.0000 
     38 OG         -5.9360   -1.3603   22.3727 O.2       1 SER1        0.0000 
     39 CZ         -5.3462   -0.9559   21.0541 C.ar      4 PHE5        0.0000 
     40 CZ         -4.7565   -0.5516   19.7355 C.ar      4 PHE5        0.0000 
     41 CZ         -5.3264   -2.3924   20.6225 C.ar      4 PHE5        0.0000 
     42 CZ         -4.7367   -1.9880   19.3039 C.ar      4 PHE5        0.0000 
     43 CZ         -4.1470   -1.5837   17.9853 C.ar      4 PHE5        0.0000 
     44 CA         -5.3066   -3.8288   20.1909 C.3       5 GLY6        0.0000 
     45 CA         -4.7169   -3.4245   18.8723 C.3       5 GLY6        0.0000 
     46 CZ         -4.1272   -3.0201   17.5537 C.ar      4 PHE5        0.0000 
     47 CA         -3.5374   -2.6158   16.2350 C.3       5 GLY6        0.0000 
     48 CA         -4.6971   -4.8609   18.4407 C.3       5 GLY6        0.0000 
     49 CA         -4.1074   -4.4566   17.1221 C.3       5 GLY6        0.0000 
     50 CA         -3.5176   -4.0522   15.8034 C.3       5 GLY6        0.0000 
     51 CA         -4.6773   -6.2973   18.0091 C.3       5 GLY6        0.0000 
     52 CA         -4.0875   -5.8930   16.6905 C.3       5 GLY6        0.0000 
     53 CZ         -3.4978   -5.4887   15.3718 C.ar      4 PHE5        0.0000 
     54 OG         -4.0677   -7.3294   16.2589 O.2       1 SER1        0.0000 
     55 CA         -6.1950    3.9100   20.4602 C.3       5 GLY6        0.0000 
     56 CA         -7.3546    1.6649   22.6658 C.3       5 GLY6        0.0000 
     57 CA         -6.7649    2.0692   21.3472 C.3       5 GLY6        0.0000 
     58 CA         -6.1752    2.4735   20.0286 C.3       5 GLY6        0.0000 
     59 O          -7.9246   -0.1759   23.5528 O.2       2 ALA2        0.0000 
     60 OG         -7.3348    0.2284   22.2342 O.2       1 SER1        0.0000 
     61 DU         -6.7451    0.6328   20.9156 H         6 CUB7        0.0000 
     62 CA         -6.1554    1.0371   19.5970 C.3       5 GLY6        0.0000 
     63 NZ         -7.3150   -1.2080   21.8026 N.2       3 LYS4        0.0000 
     64 DU         -6.7253   -0.8037   20.4840 H         6 CUB7        0.0000 
     65 CA         -6.1356   -0.3993   19.1654 C.3       5 GLY6        0.0000 
     66 CA         -7.2952   -2.6444   21.3710 C.3       5 GLY6        0.0000 
     67 CA         -6.7055   -2.2401   20.0524 C.3       5 GLY6        0.0000 
     68 CA         -6.1158   -1.8358   18.7338 C.3       5 GLY6        0.0000 
     69 CA         -5.5260   -1.4314   17.4152 C.3       5 GLY6        0.0000 
     70 CA         -6.0960   -3.2722   18.3022 C.3       5 GLY6        0.0000 
     71 CA         -5.5062   -2.8679   16.9836 C.3       5 GLY6        0.0000 
     72 NZ         -8.7139    0.3807   21.6641 N.2       3 LYS4        0.0000 
     73 CA         -8.1242    0.7850   20.3455 C.3       5 GLY6        0.0000 
     74 NZ         -8.6941   -1.0557   21.2325 N.2       3 LYS4        0.0000 
     75 NZ         -8.1044   -0.6514   19.9139 N.2       3 LYS4        0.0000 
     76 CA         -8.0846   -2.0878   19.4823 C.3       5 GLY6        0.0000 
@<TRIPOS>BOND
@<TRIPOS>SUBSTRUCTURE
     1 SER1       29 GROUP   
     2 ALA2       31 GROUP   
     3 LYS4        1 GROUP   
     4 PHE5        2 GROUP   
     5 GLY6        9 GROUP   
     6 CUB7       14 GROUP   
@<TRIPOS>SET

