#    Name: 4f3k_HCE_1_INTS_M
#    Modification time : Mon Mar 24 18:55:01 2014

@<TRIPOS>MOLECULE
4f3k_HCE_1_INTS_M
   92     0     9     0     0
SMALL
NO_CHARGES


@<TRIPOS>ATOM
      1 N          -2.7500   -7.4365   14.8675 N.am      2 SEC2        0.0000 
      2 N          -1.6840   -6.7930   16.0390 N.am      8 SEL2        0.0000 
      3 N          -3.8160   -8.0800   13.6960 N.am      5 SEP2        0.0000 
      4 N          -3.8110   -7.7480   14.8915 N.am      2 SEC2        0.0000 
      5 N          -3.8060   -7.4160   16.0870 N.am      8 SEL2        0.0000 
      6 CA         -3.9430   -6.1880   19.6720 C.3       3 GLC5        0.0000 
      7 CA         -3.1130   -5.8920   17.7330 C.3       9 GLL5        0.0000 
      8 CA         -4.7730   -6.4840   21.6110 C.3       6 GLP5        0.0000 
      9 CA         -3.7290   -3.1385   15.5205 C.3       3 GLC5        0.0000 
     10 CA         -3.5540   -4.5290   17.2570 C.3       9 GLL5        0.0000 
     11 CA         -3.9040   -1.7480   13.7840 C.3       6 GLP5        0.0000 
     12 CA         -2.2375   -3.3920   16.5595 C.3       3 GLC5        0.0000 
     13 CA         -0.9210   -2.2550   15.8620 C.3       6 GLP5        0.0000 
     14 CA         -5.0140   -4.6420   15.8450 C.3       3 GLC5        0.0000 
     15 CA         -6.4740   -4.7550   14.4330 C.3       6 GLP5        0.0000 
     16 CA         -4.5005   -5.1895   20.0240 C.3       3 GLC5        0.0000 
     17 CA         -4.2280   -3.8950   18.4370 C.3       9 GLL5        0.0000 
     18 CA         -3.0090   -3.6935   20.0485 C.3       3 GLC5        0.0000 
     19 CA         -1.7900   -3.4920   21.6600 C.3       6 GLP5        0.0000 
     20 CA         -6.3305   -3.8870   18.0240 C.3       3 GLC5        0.0000 
     21 CA         -4.9660   -2.2780   17.9110 C.3       9 GLL5        0.0000 
     22 CA         -7.6950   -5.4960   18.1370 C.3       6 GLP5        0.0000 
     23 CA         -4.4350   -2.0130   15.8475 C.3       3 GLC5        0.0000 
     24 CA         -4.2880   -1.3385   22.3285 C.3       3 GLC5        0.0000 
     25 CA         -5.8660   -0.9630   21.6800 C.3       9 GLL5        0.0000 
     26 CA         -2.7100   -1.7140   22.9770 C.3       6 GLP5        0.0000 
     27 CA         -8.2480   -2.0610   18.3780 C.3       3 GLC5        0.0000 
     28 CA         -7.3620   -1.1660   19.8550 C.3       9 GLL5        0.0000 
     29 CA         -9.1340   -2.9560   16.9010 C.3       6 GLP5        0.0000 
     30 N          -9.7355   -1.5170   20.0320 N.am      2 SEC2        0.0000 
     31 N          -8.4560   -1.9370   20.4350 N.am      8 SEL2        0.0000 
     32 N         -11.0150   -1.0970   19.6290 N.am      5 SEP2        0.0000 
     33 O          -8.7045   -1.5220   21.8920 O.2       1 ALC1        0.0000 
     34 O          -8.4560   -1.9370   20.4350 O.2       7 ALL1        0.0000 
     35 O          -8.9530   -1.1070   23.3490 O.2       4 ALP1        0.0000 
     36 O          -7.9570   -0.5175   22.5310 O.2       1 ALC1        0.0000 
     37 O          -6.9610    0.0720   21.7130 O.2       7 ALL1        0.0000 
     38 CA         -5.7515    0.4195   24.4460 C.3       3 GLC5        0.0000 
     39 CA         -6.6280    1.2090   22.5340 C.3       9 GLL5        0.0000 
     40 CA         -4.8750   -0.3700   26.3580 C.3       6 GLP5        0.0000 
     41 CA         -4.5400    0.8575   24.6075 C.3       3 GLC5        0.0000 
     42 CA         -4.2050    2.0850   22.8570 C.3       9 GLL5        0.0000 
     43 CA         -3.7085    4.1625   23.4005 C.3       3 GLC5        0.0000 
     44 CA         -3.2120    6.2400   23.9440 C.3       6 GLP5        0.0000 
     45 O          -2.0360    2.8440   22.7370 O.2       1 ALC1        0.0000 
     46 O          -3.3600    2.8940   22.2420 O.2       7 ALL1        0.0000 
     47 O          -0.7120    2.7940   23.2320 O.2       4 ALP1        0.0000 
     48 CA         -6.9285    3.8755   21.1990 C.3       3 GLC5        0.0000 
     49 CA         -5.2020    2.8890   21.0970 C.3       9 GLL5        0.0000 
     50 CA         -8.6550    4.8620   21.3010 C.3       6 GLP5        0.0000 
     51 CA         -4.8570    3.6630   17.4385 C.3       3 GLC5        0.0000 
     52 CA         -5.6320    4.1150   19.1010 C.3       9 GLL5        0.0000 
     53 CA         -4.0820    3.2110   15.7760 C.3       6 GLP5        0.0000 
     54 CA         -5.1085    5.9575   18.0140 C.3       3 GLC5        0.0000 
     55 CA         -4.5850    7.8000   16.9270 C.3       6 GLP5        0.0000 
     56 CA         -7.1435    4.4885   20.2010 C.3       3 GLC5        0.0000 
     57 CA         -7.0765    3.2325   18.3615 C.3       3 GLC5        0.0000 
     58 CA         -8.5210    2.3500   17.6220 C.3       6 GLP5        0.0000 
     59 N          -3.7440    4.9780   17.8390 N.am      2 SEC2        0.0000 
     60 N          -4.3510    4.6430   19.1540 N.am      8 SEL2        0.0000 
     61 N          -3.1370    5.3130   16.5240 N.am      5 SEP2        0.0000 
     62 CA         -3.3175    5.9840   18.7260 C.3       3 GLC5        0.0000 
     63 CA         -3.5530    4.3130   20.1890 C.3       9 GLL5        0.0000 
     64 CA         -3.0820    7.6550   17.2630 C.3       6 GLP5        0.0000 
     65 CA         -4.3635    6.3060   20.5690 C.3       3 GLC5        0.0000 
     66 CA         -5.1740    8.2990   20.9490 C.3       6 GLP5        0.0000 
     67 O          -1.4740    5.3285   19.0175 O.2       1 ALC1        0.0000 
     68 O          -2.3140    4.8520   20.2260 O.2       7 ALL1        0.0000 
     69 O          -0.6340    5.8050   17.8090 O.2       4 ALP1        0.0000 
     70 O          -1.3315    4.8160   21.2905 O.2       1 ALC1        0.0000 
     71 O          -0.3490    4.7800   22.3550 O.2       4 ALP1        0.0000 
     72 CA         -5.7930   -4.8540   17.9920 C.3       3 GLC5        0.0000 
     73 CA         -2.7375   -2.3487   17.6410 C.3       3 GLC5        0.0000 
     74 CA         -0.8780   -1.6110   17.1080 C.3       6 GLP5        0.0000 
     75 CA         -3.8893   -0.1365   18.4507 C.3       3 GLC5        0.0000 
     76 CA         -2.8750    1.5260   18.2250 C.3       6 GLP5        0.0000 
     77 CA         -6.2073   -0.4060   17.7953 C.3       3 GLC5        0.0000 
     78 CA         -4.8410   -1.3200   19.4420 C.3       9 GLL5        0.0000 
     79 CA         -7.5110    0.9870   16.9140 C.3       6 GLP5        0.0000 
     80 CA         -4.1450   -2.2243   21.1472 C.3       3 GLC5        0.0000 
     81 CA         -2.8480   -2.9520   22.3910 C.3       6 GLP5        0.0000 
     82 CA         -5.9038   -3.2695   21.6472 C.3       3 GLC5        0.0000 
     83 CA         -6.0430   -1.6730   20.3650 C.3       9 GLL5        0.0000 
     84 CA         -5.8530   -5.2210   22.2720 C.3       6 GLP5        0.0000 
     85 CA         -7.4578    0.2802   18.4998 C.3       3 GLC5        0.0000 
     86 CA         -7.4827    2.8910   22.4793 C.3       3 GLC5        0.0000 
     87 CA         -5.3410    2.0510   22.1410 C.3       9 GLL5        0.0000 
     88 CA         -8.9810    4.1520   22.6210 C.3       6 GLP5        0.0000 
     89 CA         -3.4823    5.0568   22.3077 C.3       3 GLC5        0.0000 
     90 CA         -3.9520    3.4340   21.1540 C.3       9 GLL5        0.0000 
     91 CA         -5.4017    3.0666   23.6611 C.3       3 GLC5        0.0000 
     92 CA         -5.6550    3.7600   25.4750 C.3       6 GLP5        0.0000 
@<TRIPOS>BOND
@<TRIPOS>SUBSTRUCTURE
     1 ALC1       33 GROUP        1 X    ALC  0     ROOT ALC X 1
     2 SEC2        1 GROUP        1 X    SEC  0     **** SEC X 2
     3 GLC5        6 GROUP        1 X    GLC  0     **** GLC X 6
     4 ALP1       35 GROUP        1 Y    ALP  0     ROOT ALP Y 8
     5 SEP2        3 GROUP        1 Y    SEP  0     **** SEP Y 9
     6 GLP5        8 GROUP        1 Y    GLP  0     **** GLP Y 13
     7 ALL1       34 GROUP        1 Z    ALL  0     ROOT ALL Z 15
     8 SEL2        2 GROUP        1 Z    SEL  0     **** SEL Z 16
     9 GLL5        7 GROUP        1 Z    GLL  0     **** GLL Z 20
@<TRIPOS>SET

