#    Name: 4f3k_HCE_1_ligand
#    Modification time : Mon Mar 24 18:55:01 2014

@<TRIPOS>MOLECULE
4f3k_HCE_1_ligand
   51    53     1     0     0
SMALL
NO_CHARGES


@<TRIPOS>ATOM
      1 O          -1.6840   -6.7930   16.0390 O.co2     1 HCE301      0.0000 
      2 C          -2.8460   -6.7580   16.5070 C.2       1 HCE301      0.0000 
      3 OXT        -3.8060   -7.4160   16.0870 O.co2     1 HCE301      0.0000 
      4 CA         -3.1130   -5.8920   17.7330 C.3       1 HCE301      0.0000 
      5 N          -1.9090   -5.8060   18.5590 N.4       1 HCE301      0.0000 
      6 CB         -3.5540   -4.5290   17.2570 C.3       1 HCE301      0.0000 
      7 CG         -4.2280   -3.8950   18.4370 C.3       1 HCE301      0.0000 
      8 S5'        -4.9660   -2.2780   17.9110 S.3       1 HCE301      0.0000 
      9 C5'        -4.8410   -1.3200   19.4420 C.3       1 HCE301      0.0000 
     10 C4'        -6.0430   -1.6730   20.3650 C.3       1 HCE301      0.0000 
     11 C1'        -5.8660   -0.9630   21.6800 C.3       1 HCE301      0.0000 
     12 C3'        -7.3620   -1.1660   19.8550 C.3       1 HCE301      0.0000 
     13 O3'        -8.4560   -1.9370   20.4350 O.3       1 HCE301      0.0000 
     14 C2'        -7.4470    0.3130   20.3160 C.3       1 HCE301      0.0000 
     15 N1'        -6.9610    0.0720   21.7130 N.4       1 HCE301      0.0000 
     16 C10        -6.6280    1.2090   22.5340 C.3       1 HCE301      0.0000 
     17 C9         -5.3410    2.0510   22.1410 C.2       1 HCE301      0.0000 
     18 C8         -4.2050    2.0850   22.8570 C.2       1 HCE301      0.0000 
     19 N7         -3.3600    2.8940   22.2420 N.pl3     1 HCE301      0.0000 
     20 C5         -3.9520    3.4340   21.1540 C.ar      1 HCE301      0.0000 
     21 C4         -5.2020    2.8890   21.0970 C.ar      1 HCE301      0.0000 
     22 N3         -6.0490    3.2140   20.0910 N.ar      1 HCE301      0.0000 
     23 C2         -5.6320    4.1150   19.1010 C.ar      1 HCE301      0.0000 
     24 N1         -4.3510    4.6430   19.1540 N.ar      1 HCE301      0.0000 
     25 C6         -3.5530    4.3130   20.1890 C.ar      1 HCE301      0.0000 
     26 N6         -2.3140    4.8520   20.2260 N.pl3     1 HCE301      0.0000 
     27 H          -3.9235   -6.3431   18.2855 H         1 HCE301      0.0000 
     28 H          -4.2490   -4.6355   16.4483 H         1 HCE301      0.0000 
     29 H          -2.6984   -3.9526   16.9671 H         1 HCE301      0.0000 
     30 H          -3.5757   -3.5790   19.2090 H         1 HCE301      0.0000 
     31 H          -5.0865   -4.4048   18.7898 H         1 HCE301      0.0000 
     32 H          -4.8623   -0.3236   19.1001 H         1 HCE301      0.0000 
     33 H          -3.9136   -1.6259   19.8376 H         1 HCE301      0.0000 
     34 H          -6.0823   -2.7122   20.5336 H         1 HCE301      0.0000 
     35 H          -4.9104   -0.4834   21.7112 H         1 HCE301      0.0000 
     36 H          -5.9920   -1.6525   22.4880 H         1 HCE301      0.0000 
     37 H          -7.3675   -1.1832   18.7985 H         1 HCE301      0.0000 
     38 H          -8.4364    0.6108   20.3108 H         1 HCE301      0.0000 
     39 H          -6.7677    0.8735   19.7756 H         1 HCE301      0.0000 
     40 H          -7.8326   -0.4840   22.2349 H         1 HCE301      0.0000 
     41 H          -6.4787    0.9089   23.6065 H         1 HCE301      0.0000 
     42 H          -7.4741    1.9475   22.5719 H         1 HCE301      0.0000 
     43 H          -4.0455    1.5969   23.6792 H         1 HCE301      0.0000 
     44 H          -2.4399    3.0847   22.5196 H         1 HCE301      0.0000 
     45 H          -6.2736    4.3766   18.3476 H         1 HCE301      0.0000 
     46 H          -1.9191    4.9854   21.1350 H         1 HCE301      0.0000 
     47 H          -1.9022    5.0696   19.3411 H         1 HCE301      0.0000 
     48 H          -1.1430   -5.4031   18.0581 H         1 HCE301      0.0000 
     49 H          -2.0560   -5.2430   19.3723 H         1 HCE301      0.0000 
     50 H          -1.6109   -6.7064   18.8758 H         1 HCE301      0.0000 
     51 H          -8.3802   -1.7919   21.4215 H         1 HCE301      0.0000 
@<TRIPOS>BOND
     1    2    1 ar   
     2    3    2 ar   
     3    4    2 1    
     4    5    4 1    
     5    6    4 1    
     6   27    4 1    
     7   48    5 1    
     8   49    5 1    
     9   50    5 1    
    10    7    6 1    
    11   28    6 1    
    12   29    6 1    
    13    8    7 1    
    14   30    7 1    
    15   31    7 1    
    16    9    8 1    
    17   10    9 1    
    18   32    9 1    
    19   33    9 1    
    20   11   10 1    
    21   12   10 1    
    22   34   10 1    
    23   15   11 1    
    24   35   11 1    
    25   36   11 1    
    26   13   12 1    
    27   14   12 1    
    28   37   12 1    
    29   51   13 1    
    30   15   14 1    
    31   38   14 1    
    32   39   14 1    
    33   16   15 1    
    34   40   15 1    
    35   17   16 1    
    36   41   16 1    
    37   42   16 1    
    38   18   17 2    
    39   21   17 1    
    40   19   18 1    
    41   43   18 1    
    42   20   19 1    
    43   44   19 1    
    44   21   20 ar   
    45   25   20 ar   
    46   22   21 ar   
    47   23   22 ar   
    48   24   23 ar   
    49   45   23 1    
    50   25   24 ar   
    51   26   25 1    
    52   46   26 1    
    53   47   26 1    
@<TRIPOS>SUBSTRUCTURE
     1 HCE301      1 GROUP   
@<TRIPOS>SET

