#    Name: 3nmq_7PP_1_INTS_M
#    Modification time : Tue Mar 25 01:52:28 2014

@<TRIPOS>MOLECULE
3nmq_7PP_1_INTS_M
   76     0     9     0     0
SMALL
NO_CHARGES


@<TRIPOS>ATOM
      1 CA         -1.9005    8.1090   29.0050 C.3       3 GLC5        0.0000 
      2 CA         -1.0080    9.1800   28.0850 C.3       9 GLL5        0.0000 
      3 CA         -2.7930    7.0380   29.9250 C.3       6 GLP5        0.0000 
      4 CA         -1.9530   10.1755   29.5155 C.3       3 GLC5        0.0000 
      5 CA         -2.8980   11.1710   30.9460 C.3       6 GLP5        0.0000 
      6 CA          0.3395   10.4570   28.7400 C.3       3 GLC5        0.0000 
      7 CA          1.6870   11.7340   29.3950 C.3       6 GLP5        0.0000 
      8 CA          0.0140   11.6445   27.0055 C.3       3 GLC5        0.0000 
      9 CA         -0.7040    9.8680   26.4610 C.3       9 GLL5        0.0000 
     10 CA          0.7320   13.4210   27.5500 C.3       6 GLP5        0.0000 
     11 N          -2.8945   10.6420   26.6135 N.am      2 SEC2        0.0000 
     12 N          -1.6830   10.4400   25.7600 N.am      8 SEL2        0.0000 
     13 N          -4.1060   10.8440   27.4670 N.am      5 SEP2        0.0000 
     14 CA         -0.9650   10.1050   22.7020 C.3       3 GLC5        0.0000 
     15 CA         -1.4380   10.9800   24.5480 C.3       9 GLL5        0.0000 
     16 CA         -0.4920    9.2300   20.8560 C.3       6 GLP5        0.0000 
     17 CA         -2.6790    9.3430   25.3740 C.3       3 GLC5        0.0000 
     18 CA         -3.9200    7.7060   26.2000 C.3       6 GLP5        0.0000 
     19 CA         -0.3530   12.2005   26.0490 C.3       3 GLC5        0.0000 
     20 CA         -2.3135   12.5285   25.6440 C.3       3 GLC5        0.0000 
     21 CA         -3.1890   14.0770   26.7400 C.3       6 GLP5        0.0000 
     22 O          -3.8090   11.7100   24.0990 O.2       1 ALC1        0.0000 
     23 O          -2.4570   11.5350   23.8540 O.2       7 ALL1        0.0000 
     24 O          -5.1610   11.8850   24.3440 O.2       4 ALP1        0.0000 
     25 CA          0.1630    9.8350   22.7795 C.3       3 GLC5        0.0000 
     26 CA          0.8180   10.4400   24.7030 C.3       9 GLL5        0.0000 
     27 CA          0.7750   11.9305   26.1265 C.3       3 GLC5        0.0000 
     28 CA          1.1385   10.0470   22.0095 C.3       3 GLC5        0.0000 
     29 CA          2.7690   10.8640   23.1630 C.3       9 GLL5        0.0000 
     30 CA          1.4295   13.5735   25.9110 C.3       3 GLC5        0.0000 
     31 CA          2.1270   13.7260   24.2720 C.3       9 GLL5        0.0000 
     32 CA          2.6380   14.6665   22.9200 C.3       3 GLC5        0.0000 
     33 CA          3.1490   15.6070   21.5680 C.3       6 GLP5        0.0000 
     34 CA          1.3425   15.3885   25.2835 C.3       3 GLC5        0.0000 
     35 CA          0.5580   17.0510   26.2950 C.3       6 GLP5        0.0000 
     36 CA          3.4250   14.1450   27.1620 C.3       3 GLC5        0.0000 
     37 CA          4.6230   15.6990   26.3680 C.3       9 GLL5        0.0000 
     38 CA          2.2270   12.5910   27.9560 C.3       6 GLP5        0.0000 
     39 CA          4.3600   15.6575   27.9570 C.3       3 GLC5        0.0000 
     40 CA          4.0970   15.6160   29.5460 C.3       6 GLP5        0.0000 
     41 CA          3.3180   16.9965   25.4280 C.3       3 GLC5        0.0000 
     42 CA          2.0130   18.2940   24.4880 C.3       6 GLP5        0.0000 
     43 CA          5.2780   17.3865   26.2025 C.3       3 GLC5        0.0000 
     44 CA          5.9330   19.0740   26.0370 C.3       6 GLP5        0.0000 
     45 CA          6.2935   15.1615   23.2050 C.3       3 GLC5        0.0000 
     46 CA          7.1030   14.5460   24.8330 C.3       9 GLL5        0.0000 
     47 CA          5.4840   15.7770   21.5770 C.3       6 GLP5        0.0000 
     48 CA          8.3595   13.8865   23.2410 C.3       3 GLC5        0.0000 
     49 CA          9.6160   13.2270   21.6490 C.3       6 GLP5        0.0000 
     50 CA          7.3715   16.4320   24.6645 C.3       3 GLC5        0.0000 
     51 CA          7.6400   18.3180   24.4960 C.3       6 GLP5        0.0000 
     52 CA          5.4240   12.3815   22.0485 C.3       3 GLC5        0.0000 
     53 CA          6.1620   12.3870   23.9210 C.3       9 GLL5        0.0000 
     54 CA          4.6860   12.3760   20.1760 C.3       6 GLP5        0.0000 
     55 CA          4.3910    9.3170   26.2465 C.3       3 GLC5        0.0000 
     56 CA          2.7290    9.6650   25.3830 C.3       9 GLL5        0.0000 
     57 CA          6.0530    8.9690   27.1100 C.3       6 GLP5        0.0000 
     58 CA          3.6220   10.4155   26.9230 C.3       3 GLC5        0.0000 
     59 CA          1.7800    9.4190   26.3580 C.3       9 GLL5        0.0000 
     60 CA          5.4640   11.4120   27.4880 C.3       6 GLP5        0.0000 
     61 CA          4.3930    8.1260   28.3725 C.3       3 GLC5        0.0000 
     62 CA          2.7330    7.2830   29.6350 C.3       9 GLL5        0.0000 
     63 O           0.7590    7.0530   31.2400 O.2       1 ALC1        0.0000 
     64 O           0.6040    6.1690   29.9420 O.2       7 ALL1        0.0000 
     65 O           0.9140    7.9370   32.5380 O.2       4 ALP1        0.0000 
     66 CA         -2.3880    8.6150   26.7365 C.3       3 GLC5        0.0000 
     67 CA          4.5732   11.9825   25.6940 C.3       3 GLC5        0.0000 
     68 CA          3.8290   11.9130   23.6480 C.3       9 GLL5        0.0000 
     69 CA          3.1490   13.1105   26.1560 C.3       3 GLC5        0.0000 
     70 CA          3.5360   13.1930   24.1520 C.3       9 GLL5        0.0000 
     71 CA          4.0518   12.3334   21.9774 C.3       3 GLC5        0.0000 
     72 CA          5.8194   12.3537   25.8901 C.3       3 GLC5        0.0000 
     73 CA          2.0882   11.1215   26.8619 C.3       3 GLC5        0.0000 
     74 CA          1.9505   10.0790   28.6785 C.3       3 GLC5        0.0000 
     75 CA          2.0830    8.7440   27.4850 C.3       9 GLL5        0.0000 
     76 CA          4.1335    8.6965   27.5360 C.3       3 GLC5        0.0000 
@<TRIPOS>BOND
@<TRIPOS>SUBSTRUCTURE
     1 ALC1       22 GROUP        1 X    ALC  0     ROOT ALC X 1
     2 SEC2       11 GROUP        1 X    SEC  0     **** SEC X 2
     3 GLC5        1 GROUP        1 X    GLC  0     **** GLC X 6
     4 ALP1       24 GROUP        1 Y    ALP  0     ROOT ALP Y 8
     5 SEP2       13 GROUP        1 Y    SEP  0     **** SEP Y 9
     6 GLP5        3 GROUP        1 Y    GLP  0     **** GLP Y 13
     7 ALL1       23 GROUP        1 Z    ALL  0     ROOT ALL Z 15
     8 SEL2       12 GROUP        1 Z    SEL  0     **** SEL Z 16
     9 GLL5        2 GROUP        1 Z    GLL  0     **** GLL Z 20
@<TRIPOS>SET

