#    Name: 3nmq_7PP_1_ligand
#    Modification time : Tue Mar 25 01:52:28 2014

@<TRIPOS>MOLECULE
3nmq_7PP_1_ligand
   53    55     1     0     0
SMALL
NO_CHARGES


@<TRIPOS>ATOM
      1 CL         -1.0080    9.1800   28.0850 Cl        1 7PP1        0.0000 
      2 C1         -0.7040    9.8680   26.4610 C.ar      1 7PP1        0.0000 
      3 N5         -1.6830   10.4400   25.7600 N.ar      1 7PP1        0.0000 
      4 C21        -1.4380   10.9800   24.5480 C.ar      1 7PP1        0.0000 
      5 N4         -2.4570   11.5350   23.8540 N.pl3     1 7PP1        0.0000 
      6 N3         -0.1860   10.9850   24.0350 N.ar      1 7PP1        0.0000 
      7 C20         0.8180   10.4400   24.7030 C.ar      1 7PP1        0.0000 
      8 C2          0.5600    9.8590   25.9470 C.ar      1 7PP1        0.0000 
      9 N1          2.1190   10.3280   24.3890 N.pl3     1 7PP1        0.0000 
     10 C11         2.7690   10.8640   23.1630 C.3       1 7PP1        0.0000 
     11 C12         3.8290   11.9130   23.6480 C.ar      1 7PP1        0.0000 
     12 C18         3.5360   13.1930   24.1520 C.ar      1 7PP1        0.0000 
     13 C19         2.1270   13.7260   24.2720 C.3       1 7PP1        0.0000 
     14 C16         4.6060   14.0670   24.5600 C.ar      1 7PP1        0.0000 
     15 O2          4.3380   15.3140   25.0370 O.3       1 7PP1        0.0000 
     16 C17         4.6230   15.6990   26.3680 C.3       1 7PP1        0.0000 
     17 C14         5.9390   13.6570   24.4270 C.ar      1 7PP1        0.0000 
     18 C15         7.1030   14.5460   24.8330 C.3       1 7PP1        0.0000 
     19 C13         6.1620   12.3870   23.9210 C.ar      1 7PP1        0.0000 
     20 N2          5.1510   11.5880   23.5700 N.ar      1 7PP1        0.0000 
     21 C10         2.7290    9.6650   25.3830 C.2       1 7PP1        0.0000 
     22 C3          1.7800    9.4190   26.3580 C.2       1 7PP1        0.0000 
     23 C4          2.0830    8.7440   27.4850 C.1       1 7PP1        0.0000 
     24 C5          2.3450    8.1040   28.4390 C.1       1 7PP1        0.0000 
     25 C6          2.7330    7.2830   29.6350 C.3       1 7PP1        0.0000 
     26 C7          2.0140    5.9290   29.7950 C.3       1 7PP1        0.0000 
     27 C9          2.4570    5.2210   31.0960 C.3       1 7PP1        0.0000 
     28 C8          2.2090    5.0250   28.5850 C.3       1 7PP1        0.0000 
     29 O1          0.6040    6.1690   29.9420 O.3       1 7PP1        0.0000 
     30 H          -3.3546   11.5092   24.2941 H         1 7PP1        0.0000 
     31 H          -2.2227   11.9220   22.9622 H         1 7PP1        0.0000 
     32 H           2.0624   11.3717   22.5388 H         1 7PP1        0.0000 
     33 H           3.2863   10.0934   22.6288 H         1 7PP1        0.0000 
     34 H           7.1553   12.0654   23.8194 H         1 7PP1        0.0000 
     35 H           3.6447    9.4012   25.4314 H         1 7PP1        0.0000 
     36 H           2.5593    7.8745   30.5630 H         1 7PP1        0.0000 
     37 H           3.8296    7.0875   29.6107 H         1 7PP1        0.0000 
     38 H           2.1109   14.6511   24.6514 H         1 7PP1        0.0000 
     39 H           1.6679   13.7652   23.3845 H         1 7PP1        0.0000 
     40 H           1.5634   13.1547   24.8686 H         1 7PP1        0.0000 
     41 H           5.5983   15.6235   26.5757 H         1 7PP1        0.0000 
     42 H           4.3581   16.6469   26.5453 H         1 7PP1        0.0000 
     43 H           4.1371   15.1299   27.0314 H         1 7PP1        0.0000 
     44 H           7.9840   14.1012   24.6715 H         1 7PP1        0.0000 
     45 H           7.1102   15.4051   24.3213 H         1 7PP1        0.0000 
     46 H           7.0681   14.7833   25.8038 H         1 7PP1        0.0000 
     47 H           3.4415    5.0459   31.1068 H         1 7PP1        0.0000 
     48 H           2.2477    5.7682   31.9064 H         1 7PP1        0.0000 
     49 H           2.0010    4.3386   31.2124 H         1 7PP1        0.0000 
     50 H           3.1752    4.8241   28.4234 H         1 7PP1        0.0000 
     51 H           1.7421    4.1479   28.6976 H         1 7PP1        0.0000 
     52 H           1.8524    5.4417   27.7488 H         1 7PP1        0.0000 
     53 H           0.5188    6.7032   30.7830 H         1 7PP1        0.0000 
@<TRIPOS>BOND
     1    2    1 1    
     2    3    2 ar   
     3    8    2 ar   
     4    4    3 ar   
     5    5    4 1    
     6    6    4 ar   
     7   30    5 1    
     8   31    5 1    
     9    7    6 ar   
    10    8    7 ar   
    11    9    7 1    
    12   22    8 1    
    13   10    9 1    
    14   21    9 1    
    15   11   10 1    
    16   32   10 1    
    17   33   10 1    
    18   12   11 ar   
    19   20   11 ar   
    20   13   12 1    
    21   14   12 ar   
    22   38   13 1    
    23   39   13 1    
    24   40   13 1    
    25   15   14 1    
    26   17   14 ar   
    27   16   15 1    
    28   41   16 1    
    29   42   16 1    
    30   43   16 1    
    31   18   17 1    
    32   19   17 ar   
    33   44   18 1    
    34   45   18 1    
    35   46   18 1    
    36   20   19 ar   
    37   34   19 1    
    38   22   21 2    
    39   35   21 1    
    40   23   22 1    
    41   24   23 3    
    42   25   24 1    
    43   26   25 1    
    44   36   25 1    
    45   37   25 1    
    46   27   26 1    
    47   28   26 1    
    48   29   26 1    
    49   47   27 1    
    50   48   27 1    
    51   49   27 1    
    52   50   28 1    
    53   51   28 1    
    54   52   28 1    
    55   53   29 1    
@<TRIPOS>SUBSTRUCTURE
     1 7PP1        1 GROUP   
@<TRIPOS>SET

