#    Name: 3ps1_ZH2_1_INTS_M
#    Modification time : Tue Mar 25 08:25:30 2014

@<TRIPOS>MOLECULE
3ps1_ZH2_1_INTS_M
   78     0    12     0     0
SMALL
NO_CHARGES


@<TRIPOS>ATOM
      1 CA         32.1125   -5.3915  -12.5380 C.3       4 GLC5        0.0000 
      2 CA         32.6250   -7.3850  -11.7380 C.3      12 GLL5        0.0000 
      3 CA         31.6000   -3.3980  -13.3380 C.3       8 GLP5        0.0000 
      4 CA         27.5395   -9.5575   -5.6465 C.3       4 GLC5        0.0000 
      5 CA         29.3580  -10.0740   -6.2250 C.3      12 GLL5        0.0000 
      6 CA         25.7210   -9.0410   -5.0680 C.3       8 GLP5        0.0000 
      7 Zn         30.1855  -13.7490   -7.1430 Zn        3 ZIC7        0.0000 
      8 Zn         30.3710  -12.7360   -7.2580 Zn       11 ZIL7        0.0000 
      9 Zn         30.0000  -14.7620   -7.0280 Zn        7 ZIP7        0.0000 
     10 N          29.8160  -12.1115   -8.3470 N.am      2 SEC2        0.0000 
     11 N          30.3710  -12.7360   -7.2580 N.am     10 SEL2        0.0000 
     12 N          29.2610  -11.4870   -9.4360 N.am      6 SEP2        0.0000 
     13 N          32.7965  -13.3945   -4.9480 N.am      2 SEC2        0.0000 
     14 N          32.2980  -13.2280   -6.1670 N.am     10 SEL2        0.0000 
     15 N          33.2950  -13.5610   -3.7290 N.am      6 SEP2        0.0000 
     16 Zn         30.9990  -14.6270   -6.6325 Zn        3 ZIC7        0.0000 
     17 Zn         31.9980  -14.4920   -6.2370 Zn       11 ZIL7        0.0000 
     18 CA         33.6730  -11.6910   -6.8440 C.3       4 GLC5        0.0000 
     19 CA         31.6510  -10.8280   -6.6770 C.3      12 GLL5        0.0000 
     20 CA         35.6950  -12.5540   -7.0110 C.3       8 GLP5        0.0000 
     21 O          30.3670  -10.9055   -8.7290 O.2       1 ALC1        0.0000 
     22 O          31.4730  -10.3240   -8.0220 O.2       9 ALL1        0.0000 
     23 O          29.2610  -11.4870   -9.4360 O.2       5 ALP1        0.0000 
     24 N          34.6630  -10.1525   -7.6615 N.am      2 SEC2        0.0000 
     25 N          33.4560   -9.1640   -7.9950 N.am     10 SEL2        0.0000 
     26 N          35.8700  -11.1410   -7.3280 N.am      6 SEP2        0.0000 
     27 CA         33.0130   -6.5675  -14.7365 C.3       4 GLC5        0.0000 
     28 CA         30.9410   -6.7910  -14.8690 C.3      12 GLL5        0.0000 
     29 CA         35.0850   -6.3440  -14.6040 C.3       8 GLP5        0.0000 
     30 CA         29.4335   -8.0480  -14.6300 C.3       4 GLC5        0.0000 
     31 CA         27.9260   -9.3050  -14.3910 C.3       8 GLP5        0.0000 
     32 N          30.1545  -11.5685   -3.5835 N.am      2 SEC2        0.0000 
     33 N          30.7620  -10.7310   -4.4920 N.am     10 SEL2        0.0000 
     34 N          29.5470  -12.4060   -2.6750 N.am      6 SEP2        0.0000 
     35 CA         33.2550  -10.1028  -11.6995 C.3       4 GLC5        0.0000 
     36 CA         32.2340   -9.0240  -10.0010 C.3      12 GLL5        0.0000 
     37 CA         34.8030  -10.9100  -13.0300 C.3       8 GLP5        0.0000 
     38 CA         29.9292  -10.6955  -11.5503 C.3       4 GLC5        0.0000 
     39 CA         31.1800   -9.5670  -10.7370 C.3      12 GLL5        0.0000 
     40 CA         28.8460  -12.0930  -11.7400 C.3       8 GLP5        0.0000 
     41 CA         32.7938   -8.8225  -14.2135 C.3       4 GLC5        0.0000 
     42 CA         31.5880   -7.9460  -12.4850 C.3      12 GLL5        0.0000 
     43 CA         34.1790  -10.0110  -15.2830 C.3       8 GLP5        0.0000 
     44 CA         30.7752   -5.7195  -13.3095 C.3       4 GLC5        0.0000 
     45 CA         31.2290   -7.3220  -13.8030 C.3      12 GLL5        0.0000 
     46 CA         30.1420   -3.8050  -13.4750 C.3       8 GLP5        0.0000 
     47 CA         30.4490   -5.1255  -14.4935 C.3       4 GLC5        0.0000 
     48 CA         31.8095   -7.1675  -16.9005 C.3       4 GLC5        0.0000 
     49 CA         32.8630   -7.8890  -18.2890 C.3       8 GLP5        0.0000 
     50 CA         30.0083   -6.7443  -18.4533 C.3       4 GLC5        0.0000 
     51 CA         30.5710   -6.1010  -16.1550 C.3      12 GLL5        0.0000 
     52 CA         29.6060   -7.6760  -20.2360 C.3       8 GLP5        0.0000 
     53 CA         28.7755   -5.7745  -15.3830 C.3       4 GLC5        0.0000 
     54 CA         26.7950   -5.1030  -15.2540 C.3       8 GLP5        0.0000 
     55 CA         33.7990   -9.2835  -12.0723 C.3       4 GLC5        0.0000 
     56 CA         34.6445   -7.2480  -10.5322 C.3       4 GLC5        0.0000 
     57 CA         32.9650   -7.9290  -10.4910 C.3      12 GLL5        0.0000 
     58 CA         36.4940   -6.8390   -9.9500 C.3       8 GLP5        0.0000 
     59 CA         33.5509   -6.9268  -13.5225 C.3       4 GLC5        0.0000 
     60 CA         29.0800  -11.1500   -4.4815 C.3       4 GLC5        0.0000 
     61 CA         30.7580  -10.1020   -5.7090 C.3      12 GLL5        0.0000 
     62 CA         28.1020  -12.2120   -2.9960 C.3       8 GLP5        0.0000 
     63 CA         29.5264   -8.8182  -13.4775 C.3       4 GLC5        0.0000 
     64 CA         30.8450   -9.0290  -11.9840 C.3      12 GLL5        0.0000 
     65 CA         27.9236   -2.5274  -18.8992 C.3       4 GLC5        0.0000 
     66 CA         28.5190   -4.7910  -18.8360 C.3      12 GLL5        0.0000 
     67 CA         27.2690   -0.7670  -18.1900 C.3       8 GLP5        0.0000 
     68 CA         27.0845   -6.1698  -19.6187 C.3       4 GLC5        0.0000 
     69 CA         28.1510   -4.1140  -19.9990 C.3      12 GLL5        0.0000 
     70 CA         25.8340   -7.8870  -19.8200 C.3       8 GLP5        0.0000 
     71 CA         28.0418   -5.0418  -16.7905 C.3       4 GLC5        0.0000 
     72 CA         31.4555   -3.8370  -17.0823 C.3       4 GLC5        0.0000 
     73 CA         30.8400   -4.1480  -19.2030 C.3      12 GLL5        0.0000 
     74 CA         32.4620   -3.0150  -15.6540 C.3       8 GLP5        0.0000 
     75 CA         31.6560   -6.2740  -18.3998 C.3       4 GLC5        0.0000 
     76 CA         30.2500   -5.5240  -17.1860 C.3      12 GLL5        0.0000 
     77 CA         29.5505   -5.9041  -19.9191 C.3       4 GLC5        0.0000 
     78 CA         29.8660   -4.8160  -18.4500 C.3      12 GLL5        0.0000 
@<TRIPOS>BOND
@<TRIPOS>SUBSTRUCTURE
     1 ALC1       21 GROUP        1 X    ALC  0     ROOT ALC X 1
     2 SEC2       10 GROUP        1 X    SEC  0     **** SEC X 2
     3 ZIC7        7 GROUP        1 X    ZIC  0     **** ZIC X 5
     4 GLC5        1 GROUP        1 X    GLC  0     **** GLC X 6
     5 ALP1       23 GROUP        1 Y    ALP  0     ROOT ALP Y 8
     6 SEP2       12 GROUP        1 Y    SEP  0     **** SEP Y 9
     7 ZIP7        9 GROUP        1 Y    ZIP  0     **** ZIP Y 12
     8 GLP5        3 GROUP        1 Y    GLP  0     **** GLP Y 13
     9 ALL1       22 GROUP        1 Z    ALL  0     ROOT ALL Z 15
    10 SEL2       11 GROUP        1 Z    SEL  0     **** SEL Z 16
    11 ZIL7        8 GROUP        1 Z    ZIL  0     **** ZIL Z 19
    12 GLL5        2 GROUP        1 Z    GLL  0     **** GLL Z 20
@<TRIPOS>SET

