#    Name: 3ps1_ZH2_1_ligand
#    Modification time : Tue Mar 25 08:25:30 2014

@<TRIPOS>MOLECULE
3ps1_ZH2_1_ligand
   45    46     1     0     0
SMALL
NO_CHARGES


@<TRIPOS>ATOM
      1 C10        31.1800   -9.5670  -10.7370 C.ar      1 ZH2401      0.0000 
      2 C13        31.2290   -7.3220  -13.8030 C.1       1 ZH2401      0.0000 
      3 C15        30.5710   -6.1010  -16.1550 C.1       1 ZH2401      0.0000 
      4 C17        29.8660   -4.8160  -18.4500 C.ar      1 ZH2401      0.0000 
      5 C20        29.1240   -3.4550  -20.7630 C.ar      1 ZH2401      0.0000 
      6 C22        30.4690   -3.4720  -20.3650 C.ar      1 ZH2401      0.0000 
      7 C24        32.6250   -7.3850  -11.7380 C.ar      1 ZH2401      0.0000 
      8 C26        30.7580  -10.1020   -5.7090 C.3       1 ZH2401      0.0000 
      9 C28        29.3580  -10.0740   -6.2250 C.3       1 ZH2401      0.0000 
     10 O01        30.3710  -12.7360   -7.2580 O.2       1 ZH2401      0.0000 
     11 C02        31.3690  -12.3010   -6.7130 C.2       1 ZH2401      0.0000 
     12 N03        32.2980  -13.2280   -6.1670 N.2       1 ZH2401      0.0000 
     13 O04        31.9980  -14.4920   -6.2370 O.2       1 ZH2401      0.0000 
     14 C05        31.6510  -10.8280   -6.6770 C.3       1 ZH2401      0.0000 
     15 N06        31.4730  -10.3240   -8.0220 N.am      1 ZH2401      0.0000 
     16 C07        32.5160   -9.5750   -8.6470 C.2       1 ZH2401      0.0000 
     17 O08        33.4560   -9.1640   -7.9950 O.2       1 ZH2401      0.0000 
     18 C09        32.2340   -9.0240  -10.0010 C.ar      1 ZH2401      0.0000 
     19 C11        30.8450   -9.0290  -11.9840 C.ar      1 ZH2401      0.0000 
     20 C12        31.5880   -7.9460  -12.4850 C.ar      1 ZH2401      0.0000 
     21 C14        30.9410   -6.7910  -14.8690 C.1       1 ZH2401      0.0000 
     22 C16        30.2500   -5.5240  -17.1860 C.1       1 ZH2401      0.0000 
     23 C18        28.5190   -4.7910  -18.8360 C.ar      1 ZH2401      0.0000 
     24 C19        28.1510   -4.1140  -19.9990 C.ar      1 ZH2401      0.0000 
     25 N21        28.7430   -2.7540  -21.9460 N.pl3     1 ZH2401      0.0000 
     26 C23        30.8400   -4.1480  -19.2030 C.ar      1 ZH2401      0.0000 
     27 C25        32.9650   -7.9290  -10.4910 C.ar      1 ZH2401      0.0000 
     28 O27        30.7620  -10.7310   -4.4920 O.3       1 ZH2401      0.0000 
     29 H          30.6488  -10.3625  -10.3640 H         1 ZH2401      0.0000 
     30 H          31.1741   -2.9880  -20.9289 H         1 ZH2401      0.0000 
     31 H          33.1401   -6.5749  -12.0985 H         1 ZH2401      0.0000 
     32 H          31.1074   -9.0748   -5.6362 H         1 ZH2401      0.0000 
     33 H          32.6865  -10.6898   -6.3738 H         1 ZH2401      0.0000 
     34 H          30.6064  -10.5069   -8.5124 H         1 ZH2401      0.0000 
     35 H          30.0729   -9.4150  -12.5247 H         1 ZH2401      0.0000 
     36 H          27.8142   -5.2657  -18.2683 H         1 ZH2401      0.0000 
     37 H          27.1701   -4.0968  -20.2972 H         1 ZH2401      0.0000 
     38 H          27.7796   -2.8202  -22.2057 H         1 ZH2401      0.0000 
     39 H          29.4715   -2.2555  -22.4159 H         1 ZH2401      0.0000 
     40 H          31.8173   -4.1576  -18.9000 H         1 ZH2401      0.0000 
     41 H          33.7307   -7.5367   -9.9475 H         1 ZH2401      0.0000 
     42 H          29.2976   -9.6125   -7.1101 H         1 ZH2401      0.0000 
     43 H          28.9894  -10.9953   -6.3490 H         1 ZH2401      0.0000 
     44 H          28.7418   -9.5933   -5.6011 H         1 ZH2401      0.0000 
     45 H          31.6586  -11.1694   -4.4304 H         1 ZH2401      0.0000 
@<TRIPOS>BOND
     1   18    1 ar   
     2   19    1 ar   
     3   29    1 1    
     4   20    2 1    
     5   21    2 3    
     6   21    3 1    
     7   22    3 3    
     8   22    4 1    
     9   23    4 ar   
    10   26    4 ar   
    11    6    5 ar   
    12   24    5 ar   
    13   25    5 1    
    14   26    6 ar   
    15   30    6 1    
    16   20    7 ar   
    17   27    7 ar   
    18   31    7 1    
    19    9    8 1    
    20   14    8 1    
    21   28    8 1    
    22   32    8 1    
    23   42    9 1    
    24   43    9 1    
    25   44    9 1    
    26   11   10 2    
    27   12   11 1    
    28   14   11 1    
    29   13   12 2    
    30   15   14 1    
    31   33   14 1    
    32   16   15 am   
    33   34   15 1    
    34   17   16 2    
    35   18   16 1    
    36   27   18 ar   
    37   20   19 ar   
    38   35   19 1    
    39   24   23 ar   
    40   36   23 1    
    41   37   24 1    
    42   38   25 1    
    43   39   25 1    
    44   40   26 1    
    45   41   27 1    
    46   45   28 1    
@<TRIPOS>SUBSTRUCTURE
     1 ZH2401      1 GROUP   
@<TRIPOS>SET

