#    Name: 1O0D_1_CAVITY_N1_ALL.mol2
#    Modification time : Mon Mar 10 21:04:50 2014

@<TRIPOS>MOLECULE
1O0D_1_CAVITY_N1_ALL.mol2
   97     0     6     0     0
SMALL
NO_CHARGES


@<TRIPOS>ATOM
      1 CZ         19.5119   17.2319   21.3747 C.ar      4 PHE5        0.0000 
      2 N          14.7056   16.8146   23.8192 N.2       2 ALA2        0.0000 
      3 N          15.4640   16.7024   22.5299 N.2       2 ALA2        0.0000 
      4 O          12.1746   16.0608   22.3959 O.2       2 ALA2        0.0000 
      5 DU         11.6675   15.5717   20.3950 H         6 CUB7        0.0000 
      6 N          10.4020   15.1948   19.6833 N.2       2 ALA2        0.0000 
      7 N          11.1604   15.0826   18.3941 N.2       2 ALA2        0.0000 
      8 CA         19.7482   19.1686   23.0904 C.3       5 GLY6        0.0000 
      9 OG         20.5066   19.0564   21.8011 O.2       1 SER1        0.0000 
     10 N          17.7243   18.9038   23.6680 N.2       2 ALA2        0.0000 
     11 DU         18.4827   18.7916   22.3787 H         6 CUB7        0.0000 
     12 CZ         19.2411   18.6795   21.0895 C.ar      4 PHE5        0.0000 
     13 N          16.4588   18.5269   22.9564 N.2       2 ALA2        0.0000 
     14 DU         17.2172   18.4147   21.6671 H         6 CUB7        0.0000 
     15 N          15.1933   18.1500   22.2447 N.2       2 ALA2        0.0000 
     16 DU         15.9517   18.0378   20.9555 H         6 CUB7        0.0000 
     17 CZ         16.7101   17.9257   19.6662 C.ar      4 PHE5        0.0000 
     18 O          13.1694   17.8852   22.8224 O.2       2 ALA2        0.0000 
     19 DU         13.9278   17.7731   21.5331 H         6 CUB7        0.0000 
     20 DU         14.6862   17.6609   20.2438 H         6 CUB7        0.0000 
     21 N          11.9039   17.5083   22.1107 N.2       2 ALA2        0.0000 
     22 DU         12.6623   17.3962   20.8214 H         6 CUB7        0.0000 
     23 DU         13.4207   17.2840   19.5322 H         6 CUB7        0.0000 
     24 CA         10.6383   17.1314   21.3991 C.3       5 GLY6        0.0000 
     25 CA         11.3968   17.0192   20.1098 C.3       5 GLY6        0.0000 
     26 NZ         12.1552   16.9071   18.8205 N.2       3 LYS4        0.0000 
     27 NZ         12.9136   16.7949   17.5312 N.2       3 LYS4        0.0000 
     28 N          10.1313   16.6423   19.3981 N.2       2 ALA2        0.0000 
     29 NZ         10.8897   16.5302   18.1089 N.2       3 LYS4        0.0000 
     30 CA         19.4775   20.6161   22.8052 C.3       5 GLY6        0.0000 
     31 CA         20.2359   20.5039   21.5159 C.3       5 GLY6        0.0000 
     32 CZ         20.9943   20.3918   20.2267 C.ar      4 PHE5        0.0000 
     33 CA         17.4535   20.3513   23.3828 C.3       5 GLY6        0.0000 
     34 CA         18.2120   20.2392   22.0936 C.3       5 GLY6        0.0000 
     35 CZ         18.9704   20.1270   20.8043 C.ar      4 PHE5        0.0000 
     36 CZ         19.7288   20.0149   19.5150 C.ar      4 PHE5        0.0000 
     37 N          16.1880   19.9744   22.6712 N.2       2 ALA2        0.0000 
     38 DU         16.9464   19.8623   21.3819 H         6 CUB7        0.0000 
     39 CZ         17.7049   19.7501   20.0926 C.ar      4 PHE5        0.0000 
     40 N          14.9225   19.5975   21.9595 N.2       2 ALA2        0.0000 
     41 DU         15.6809   19.4854   20.6703 H         6 CUB7        0.0000 
     42 CZ         16.4394   19.3732   19.3810 C.ar      4 PHE5        0.0000 
     43 N          12.8986   19.3328   22.5372 N.2       2 ALA2        0.0000 
     44 DU         13.6570   19.2206   21.2479 H         6 CUB7        0.0000 
     45 DU         14.4154   19.1084   19.9586 H         6 CUB7        0.0000 
     46 CZ         15.1739   18.9963   18.6693 C.ar      4 PHE5        0.0000 
     47 CZ         15.9323   18.8841   17.3801 C.ar      4 PHE5        0.0000 
     48 N          11.6331   18.9559   21.8255 N.2       2 ALA2        0.0000 
     49 O          12.3915   18.8437   20.5362 O.2       2 ALA2        0.0000 
     50 CA         13.1499   18.7315   19.2470 C.3       5 GLY6        0.0000 
     51 CA         13.9084   18.6194   17.9577 C.3       5 GLY6        0.0000 
     52 NZ         14.6668   18.5072   16.6684 N.2       3 LYS4        0.0000 
     53 CA         11.1260   18.4668   19.8246 C.3       5 GLY6        0.0000 
     54 CA         19.9651   21.9515   21.2307 C.3       5 GLY6        0.0000 
     55 N          17.9412   21.6867   21.8084 N.2       2 ALA2        0.0000 
     56 CA         18.6996   21.5746   20.5191 C.3       5 GLY6        0.0000 
     57 CA         19.4580   21.4624   19.2298 C.3       5 GLY6        0.0000 
     58 CA         15.9173   21.4220   22.3860 C.3       5 GLY6        0.0000 
     59 N          16.6757   21.3098   21.0967 N.2       2 ALA2        0.0000 
     60 CZ         17.4341   21.1976   19.8074 C.ar      4 PHE5        0.0000 
     61 CZ         18.1925   21.0855   18.5182 C.ar      4 PHE5        0.0000 
     62 O          13.8934   21.1572   22.9636 O.2       2 ALA2        0.0000 
     63 O          14.6518   21.0450   21.6743 O.2       2 ALA2        0.0000 
     64 DU         15.4102   20.9329   20.3851 H         6 CUB7        0.0000 
     65 CZ         16.1686   20.8207   19.0958 C.ar      4 PHE5        0.0000 
     66 CZ         16.9270   20.7086   17.8065 C.ar      4 PHE5        0.0000 
     67 N          11.8694   20.8925   23.5412 N.2       2 ALA2        0.0000 
     68 O          12.6279   20.7803   22.2520 O.2       2 ALA2        0.0000 
     69 O          13.3863   20.6681   20.9627 O.2       2 ALA2        0.0000 
     70 CA         14.1447   20.5560   19.6734 C.3       5 GLY6        0.0000 
     71 CA         14.9031   20.4438   18.3841 C.3       5 GLY6        0.0000 
     72 N          10.6039   20.5155   22.8296 N.2       2 ALA2        0.0000 
     73 CA         11.3624   20.4034   21.5403 C.3       5 GLY6        0.0000 
     74 O          12.1208   20.2912   20.2510 O.2       2 ALA2        0.0000 
     75 CA         12.8792   20.1791   18.9618 C.3       5 GLY6        0.0000 
     76 CA         18.4289   23.0221   20.2339 C.3       5 GLY6        0.0000 
     77 N          16.4049   22.7573   20.8115 N.2       2 ALA2        0.0000 
     78 N          17.1634   22.6452   19.5222 N.2       2 ALA2        0.0000 
     79 O          12.8642   22.7169   23.9677 O.2       2 ALA2        0.0000 
     80 O          13.6226   22.6047   22.6784 O.2       2 ALA2        0.0000 
     81 N          14.3810   22.4926   21.3891 N.2       2 ALA2        0.0000 
     82 OG         15.1394   22.3804   20.0999 O.2       1 SER1        0.0000 
     83 NZ         10.8403   22.4521   24.5453 N.2       3 LYS4        0.0000 
     84 O          11.5987   22.3400   23.2560 O.2       2 ALA2        0.0000 
     85 CA         12.3571   22.2278   21.9668 C.3       5 GLY6        0.0000 
     86 O          13.1155   22.1157   20.6775 O.2       2 ALA2        0.0000 
     87 CA         13.8739   22.0035   19.3882 C.3       5 GLY6        0.0000 
     88 OG         14.6324   21.8914   18.0990 O.2       1 SER1        0.0000 
     89 N          10.3332   21.9631   22.5444 N.2       2 ALA2        0.0000 
     90 N          11.8350   24.2766   24.9718 N.2       2 ALA2        0.0000 
     91 N          12.5934   24.1644   23.6825 N.2       2 ALA2        0.0000 
     92 N          13.3519   24.0523   22.3932 N.2       2 ALA2        0.0000 
     93 N          14.1103   23.9401   21.1040 N.2       2 ALA2        0.0000 
     94 CA         10.5695   23.8997   24.2601 C.3       5 GLY6        0.0000 
     95 CA         11.3279   23.7875   22.9709 C.3       5 GLY6        0.0000 
     96 N          12.0864   23.6754   21.6816 N.2       2 ALA2        0.0000 
     97 N          12.8448   23.5632   20.3923 N.2       2 ALA2        0.0000 
@<TRIPOS>BOND
@<TRIPOS>SUBSTRUCTURE
     1 SER1        9 GROUP   
     2 ALA2        2 GROUP   
     3 LYS4       26 GROUP   
     4 PHE5        1 GROUP   
     5 GLY6        8 GROUP   
     6 CUB7        5 GROUP   
@<TRIPOS>SET

