#    Name: 1o0d_163_1_INTS_M
#    Modification time : Mon Mar 24 19:27:02 2014

@<TRIPOS>MOLECULE
1o0d_163_1_INTS_M
   58     0     9     0     0
SMALL
NO_CHARGES


@<TRIPOS>ATOM
      1 N          15.4750   20.9450   24.3250 N.am      2 SEC2        0.0000 
      2 N          16.3490   20.3130   23.2630 N.am      8 SEL2        0.0000 
      3 N          14.6010   21.5770   25.3870 N.am      5 SEP2        0.0000 
      4 CA         17.5960   19.7520   26.2865 C.3       3 GLC5        0.0000 
      5 CA         18.1890   18.3340   24.6740 C.3       9 GLL5        0.0000 
      6 CA         17.0030   21.1700   27.8990 C.3       6 GLP5        0.0000 
      7 CA         20.7110   18.4430   27.6980 C.3       3 GLC5        0.0000 
      8 CA         20.1410   19.4300   25.8330 C.3       9 GLL5        0.0000 
      9 CA         21.2810   17.4560   29.5630 C.3       6 GLP5        0.0000 
     10 CA         18.5720   20.3000   26.8660 C.3       3 GLC5        0.0000 
     11 CA         22.9405   20.8480   26.9760 C.3       3 GLC5        0.0000 
     12 CA         21.6290   19.8410   25.7070 C.3       9 GLL5        0.0000 
     13 CA         24.2520   21.8550   28.2450 C.3       6 GLP5        0.0000 
     14 CA         21.8945   18.0280   27.4875 C.3       3 GLC5        0.0000 
     15 CA         22.5080   18.6000   25.4120 C.3       9 GLL5        0.0000 
     16 N          13.2435   15.9010   24.4500 N.am      2 SEC2        0.0000 
     17 N          14.7490   15.3700   24.0400 N.am      8 SEL2        0.0000 
     18 N          11.7380   16.4320   24.8600 N.am      5 SEP2        0.0000 
     19 CA         17.5340   22.0920   23.0095 C.3       3 GLC5        0.0000 
     20 CA         17.8170   21.4760   21.0540 C.3       9 GLL5        0.0000 
     21 CA         17.2510   22.7080   24.9650 C.3       6 GLP5        0.0000 
     22 O           9.1350   23.5995   25.0800 O.2       1 ALC1        0.0000 
     23 O          10.2890   23.3880   24.1280 O.2       7 ALL1        0.0000 
     24 O           7.9810   23.8110   26.0320 O.2       4 ALP1        0.0000 
     25 O           9.3720   21.4620   25.3380 O.2       1 ALC1        0.0000 
     26 O          10.7810   21.2900   24.9610 O.2       7 ALL1        0.0000 
     27 O           7.9630   21.6340   25.7150 O.2       4 ALP1        0.0000 
     28 O          10.5465   19.8470   24.6515 O.2       1 ALC1        0.0000 
     29 O          10.3120   18.4040   24.3420 O.2       4 ALP1        0.0000 
     30 CA         12.6830   21.4050   24.5090 C.3       3 GLC5        0.0000 
     31 CA         11.7380   21.9180   22.8080 C.3       9 GLL5        0.0000 
     32 CA         13.6280   20.8920   26.2100 C.3       6 GLP5        0.0000 
     33 CA         10.9990   25.0135   22.6400 C.3       3 GLC5        0.0000 
     34 CA         13.0120   24.1320   22.6350 C.3       9 GLL5        0.0000 
     35 CA          8.9860   25.8950   22.6450 C.3       6 GLP5        0.0000 
     36 CA         12.6690   25.8245   22.0805 C.3       3 GLC5        0.0000 
     37 CA         12.3260   27.5170   21.5260 C.3       6 GLP5        0.0000 
     38 CA         14.4625   23.7560   23.6275 C.3       3 GLC5        0.0000 
     39 CA         15.9130   23.3800   24.6200 C.3       6 GLP5        0.0000 
     40 CA         14.7865   24.4765   19.0210 C.3       3 GLC5        0.0000 
     41 CA         14.2400   22.6440   20.1860 C.3       9 GLL5        0.0000 
     42 CA         15.3330   26.3090   17.8560 C.3       6 GLP5        0.0000 
     43 O          16.1140   23.6190   21.6120 O.2       1 ALC1        0.0000 
     44 O          15.5650   22.4780   20.8110 O.2       7 ALL1        0.0000 
     45 O          16.6630   24.7600   22.4130 O.2       4 ALP1        0.0000 
     46 CA         20.9375   21.2643   24.5525 C.3       3 GLC5        0.0000 
     47 CA         20.9900   22.8930   23.3350 C.3       6 GLP5        0.0000 
     48 CA         19.0650   22.8098   19.3361 C.3       3 GLC5        0.0000 
     49 CA         19.0990   24.5790   18.3620 C.3       6 GLP5        0.0000 
     50 CA         20.0105   21.9668   21.8226 C.3       3 GLC5        0.0000 
     51 CA         18.9750   21.6320   20.0990 C.3       9 GLL5        0.0000 
     52 CA         10.4348   20.1371   21.5946 C.3       3 GLC5        0.0000 
     53 CA         12.6380   20.8830   21.0480 C.3       9 GLL5        0.0000 
     54 CA          8.6850   19.1650   21.4400 C.3       6 GLP5        0.0000 
     55 CA         12.4645   21.7371   19.0124 C.3       3 GLC5        0.0000 
     56 CA         11.3510   21.4060   17.3870 C.3       6 GLP5        0.0000 
     57 CA         10.6837   21.8425   21.0145 C.3       3 GLC5        0.0000 
     58 CA          9.0440   22.2710   20.2590 C.3       6 GLP5        0.0000 
@<TRIPOS>BOND
@<TRIPOS>SUBSTRUCTURE
     1 ALC1       22 GROUP        1 X    ALC  0     ROOT ALC X 1
     2 SEC2        1 GROUP        1 X    SEC  0     **** SEC X 2
     3 GLC5        4 GROUP        1 X    GLC  0     **** GLC X 6
     4 ALP1       24 GROUP        1 Y    ALP  0     ROOT ALP Y 8
     5 SEP2        3 GROUP        1 Y    SEP  0     **** SEP Y 9
     6 GLP5        6 GROUP        1 Y    GLP  0     **** GLP Y 13
     7 ALL1       23 GROUP        1 Z    ALL  0     ROOT ALL Z 15
     8 SEL2        2 GROUP        1 Z    SEL  0     **** SEL Z 16
     9 GLL5        5 GROUP        1 Z    GLL  0     **** GLL Z 20
@<TRIPOS>SET

