#    Name: 1o0d_163_1_ligand
#    Modification time : Mon Mar 24 19:27:03 2014

@<TRIPOS>MOLECULE
1o0d_163_1_ligand
   64    66     1     0     0
SMALL
NO_CHARGES


@<TRIPOS>ATOM
      1 C12        17.2280   19.6440   22.7510 C.2       1 163248      0.0000 
      2 O1         16.3490   20.3130   23.2630 O.2       1 163248      0.0000 
      3 C13        17.5060   18.2500   23.2910 C.3       1 163248      0.0000 
      4 C14        18.1890   18.3340   24.6740 C.3       1 163248      0.0000 
      5 C15        19.6680   18.7370   24.5350 C.3       1 163248      0.0000 
      6 C16        20.1410   19.4300   25.8330 C.3       1 163248      0.0000 
      7 C17        21.6290   19.8410   25.7070 C.3       1 163248      0.0000 
      8 C18        22.5080   18.6000   25.4120 C.3       1 163248      0.0000 
      9 C19        22.0220   17.8880   24.1260 C.3       1 163248      0.0000 
     10 C20        20.5360   17.4820   24.2680 C.3       1 163248      0.0000 
     11 N5         16.2410   17.5120   23.4180 N.4       1 163248      0.0000 
     12 C21        15.7640   16.6570   22.3240 C.3       1 163248      0.0000 
     13 C22        14.7640   15.6560   22.8530 C.2       1 163248      0.0000 
     14 O2         14.7490   15.3700   24.0400 O.co2     1 163248      0.0000 
     15 O3         13.9700   15.1290   22.0920 O.co2     1 163248      0.0000 
     16 O          16.2410   20.8910   19.3670 O.2       1 163248      0.0000 
     17 C7         16.4810   21.5910   20.3380 C.2       1 163248      0.0000 
     18 C8         17.8170   21.4760   21.0540 C.2       1 163248      0.0000 
     19 C9         18.9750   21.6320   20.0990 C.2       1 163248      0.0000 
     20 C10        19.6660   20.5270   20.0440 C.2       1 163248      0.0000 
     21 C11        19.0570   19.4920   20.9520 C.2       1 163248      0.0000 
     22 N4         17.9560   20.1500   21.6980 N.am      1 163248      0.0000 
     23 N          10.2890   23.3880   24.1280 N.pl3     1 163248      0.0000 
     24 C          10.9060   22.2110   24.0120 C.ar      1 163248      0.0000 
     25 N1         10.7810   21.2900   24.9610 N.pl3     1 163248      0.0000 
     26 C1         11.7380   21.9180   22.8080 C.2       1 163248      0.0000 
     27 N2         12.6610   22.7550   22.1970 N.pl3     1 163248      0.0000 
     28 C2         13.0120   24.1320   22.6350 C.3       1 163248      0.0000 
     29 C3         11.7240   20.7530   22.0930 C.2       1 163248      0.0000 
     30 C4         12.6380   20.8830   21.0480 C.2       1 163248      0.0000 
     31 C5         13.1940   22.1020   21.1310 C.2       1 163248      0.0000 
     32 C6         14.2400   22.6440   20.1860 C.3       1 163248      0.0000 
     33 N3         15.5650   22.4780   20.8110 N.am      1 163248      0.0000 
     34 H          18.1700   17.7400   22.6190 H         1 163248      0.0000 
     35 H          18.1263   17.3642   25.1594 H         1 163248      0.0000 
     36 H          17.6720   19.0727   25.2800 H         1 163248      0.0000 
     37 H          19.7748   19.4145   23.7194 H         1 163248      0.0000 
     38 H          20.0321   18.7448   26.6628 H         1 163248      0.0000 
     39 H          19.5425   20.3148   26.0030 H         1 163248      0.0000 
     40 H          21.9525   20.2920   26.6360 H         1 163248      0.0000 
     41 H          21.7338   20.5505   24.8967 H         1 163248      0.0000 
     42 H          22.4417   17.9124   26.2453 H         1 163248      0.0000 
     43 H          23.5341   18.9165   25.2765 H         1 163248      0.0000 
     44 H          22.6192   17.0004   23.9648 H         1 163248      0.0000 
     45 H          22.1278   18.5617   23.2861 H         1 163248      0.0000 
     46 H          20.2067   17.0117   23.3525 H         1 163248      0.0000 
     47 H          20.4321   16.7965   25.0969 H         1 163248      0.0000 
     48 H          16.5980   16.1155   21.8691 H         1 163248      0.0000 
     49 H          15.2832   17.2594   21.5484 H         1 163248      0.0000 
     50 H          19.0909   22.4723   19.6490 H         1 163248      0.0000 
     51 H          20.4512   20.2980   19.5422 H         1 163248      0.0000 
     52 H          19.3217   18.6328   21.0209 H         1 163248      0.0000 
     53 H          10.3893   24.0154   23.3558 H         1 163248      0.0000 
     54 H           9.7816   23.5371   24.9767 H         1 163248      0.0000 
     55 H          10.2286   21.5473   25.7539 H         1 163248      0.0000 
     56 H          11.2506   20.4225   24.7968 H         1 163248      0.0000 
     57 H          11.1933   19.9844   22.2641 H         1 163248      0.0000 
     58 H          12.8163   20.2032   20.3996 H         1 163248      0.0000 
     59 H          14.0371   23.6949   19.9969 H         1 163248      0.0000 
     60 H          14.1897   22.0959   19.2487 H         1 163248      0.0000 
     61 H          15.7579   23.0776   21.6331 H         1 163248      0.0000 
     62 H          13.3749   24.1442   23.5667 H         1 163248      0.0000 
     63 H          13.7062   24.5439   22.0447 H         1 163248      0.0000 
     64 H          12.2179   24.7397   22.6218 H         1 163248      0.0000 
@<TRIPOS>BOND
     1    2    1 2    
     2    3    1 1    
     3   22    1 am   
     4    4    3 1    
     5   11    3 1    
     6   34    3 1    
     7    5    4 1    
     8   35    4 1    
     9   36    4 1    
    10    6    5 1    
    11   10    5 1    
    12   37    5 1    
    13    7    6 1    
    14   38    6 1    
    15   39    6 1    
    16    8    7 1    
    17   40    7 1    
    18   41    7 1    
    19    9    8 1    
    20   42    8 1    
    21   43    8 1    
    22   10    9 1    
    23   44    9 1    
    24   45    9 1    
    25   46   10 1    
    26   47   10 1    
    27   12   11 1    
    28   13   12 1    
    29   48   12 1    
    30   49   12 1    
    31   14   13 ar   
    32   15   13 ar   
    33   17   16 2    
    34   18   17 1    
    35   33   17 am   
    36   19   18 2    
    37   22   18 1    
    38   20   19 1    
    39   50   19 1    
    40   21   20 2    
    41   51   20 1    
    42   22   21 1    
    43   52   21 1    
    44   24   23 ar   
    45   53   23 1    
    46   54   23 1    
    47   25   24 ar   
    48   26   24 1    
    49   55   25 1    
    50   56   25 1    
    51   27   26 1    
    52   29   26 2    
    53   28   27 1    
    54   31   27 1    
    55   62   28 1    
    56   63   28 1    
    57   64   28 1    
    58   30   29 1    
    59   57   29 1    
    60   31   30 2    
    61   58   30 1    
    62   32   31 1    
    63   33   32 1    
    64   59   32 1    
    65   60   32 1    
    66   61   33 1    
@<TRIPOS>SUBSTRUCTURE
     1 163248      1 GROUP   
@<TRIPOS>SET

