#    Name: 4l2i_FAD_2_INTS_M
#    Modification time : Tue Mar 25 09:24:41 2014

@<TRIPOS>MOLECULE
4l2i_FAD_2_INTS_M
  137     0    12     0     0
SMALL
NO_CHARGES


@<TRIPOS>ATOM
      1 N          -6.3295   31.5090   15.7820 N.am      2 SEC2        0.0000 
      2 N          -6.3970   31.4910   17.2460 N.am     10 SEL2        0.0000 
      3 N          -6.2620   31.5270   14.3180 N.am      6 SEP2        0.0000 
      4 N          -7.5870   31.3810   16.4495 N.am      2 SEC2        0.0000 
      5 N          -8.7770   31.2710   15.6530 N.am      6 SEP2        0.0000 
      6 N          -3.9360   33.8945   18.6720 N.am      2 SEC2        0.0000 
      7 N          -4.4170   32.8900   17.8250 N.am     10 SEL2        0.0000 
      8 N          -3.4550   34.8990   19.5190 N.am      6 SEP2        0.0000 
      9 N          -4.0450   32.5930   16.4680 N.am      2 SEC2        0.0000 
     10 N          -3.6730   32.2960   15.1110 N.am      6 SEP2        0.0000 
     11 CA         -5.4310   35.1495   17.7660 C.3       4 GLC5        0.0000 
     12 CA         -7.1590   34.3090   18.1320 C.3      12 GLL5        0.0000 
     13 CA         -3.7030   35.9900   17.4000 C.3       8 GLP5        0.0000 
     14 CA         -9.6345   36.4940   18.3325 C.3       4 GLC5        0.0000 
     15 CA         -8.1960   35.1160   18.9580 C.3      12 GLL5        0.0000 
     16 CA        -11.0730   37.8720   17.7070 C.3       8 GLP5        0.0000 
     17 CA         -7.5495   37.6175   19.4940 C.3       4 GLC5        0.0000 
     18 CA         -7.7720   35.6090   20.3140 C.3      12 GLL5        0.0000 
     19 CA         -7.3270   39.6260   18.6740 C.3       8 GLP5        0.0000 
     20 O          -7.1165   37.7420   21.0165 O.2       1 ALC1        0.0000 
     21 O          -6.8640   36.7650   20.2340 O.2       9 ALL1        0.0000 
     22 O          -7.3690   38.7190   21.7990 O.2       5 ALP1        0.0000 
     23 CA        -10.0840   36.8515   19.3930 C.3       4 GLC5        0.0000 
     24 CA         -9.0950   35.8310   21.0790 C.3      12 GLL5        0.0000 
     25 N          -9.2175   38.1665   19.8080 N.am      2 SEC2        0.0000 
     26 N          -9.6900   37.0180   20.5810 N.am     10 SEL2        0.0000 
     27 N          -8.7450   39.3150   19.0350 N.am      6 SEP2        0.0000 
     28 O         -10.3810   37.6220   21.5620 O.2       1 ALC1        0.0000 
     29 O          -9.6900   37.0180   20.5810 O.2       9 ALL1        0.0000 
     30 O         -11.0720   38.2260   22.5430 O.2       5 ALP1        0.0000 
     31 CA        -10.5445   33.0820   19.5795 C.3       4 GLC5        0.0000 
     32 CA         -9.8320   34.5800   20.5290 C.3      12 GLL5        0.0000 
     33 CA        -11.2570   31.5840   18.6300 C.3       8 GLP5        0.0000 
     34 CA        -11.8375   30.5415   25.3310 C.3       4 GLC5        0.0000 
     35 CA        -10.3710   31.7270   24.4380 C.3      12 GLL5        0.0000 
     36 CA        -13.3040   29.3560   26.2240 C.3       8 GLP5        0.0000 
     37 O         -10.3380   30.2270   26.3560 O.2       1 ALC1        0.0000 
     38 O          -9.9210   30.6480   25.1040 O.2       9 ALL1        0.0000 
     39 O         -10.7550   29.8060   27.6080 O.2       5 ALP1        0.0000 
     40 O          -9.0920   29.4510   25.1675 O.2       1 ALC1        0.0000 
     41 O          -8.2630   28.2540   25.2310 O.2       5 ALP1        0.0000 
     42 N         -12.2795   32.0390   26.0880 N.am      2 SEC2        0.0000 
     43 N         -11.4450   32.4440   24.8850 N.am     10 SEL2        0.0000 
     44 N         -13.1140   31.6340   27.2910 N.am      6 SEP2        0.0000 
     45 CA        -12.5780   35.0505   22.8650 C.3       4 GLC5        0.0000 
     46 CA        -11.8570   33.5460   24.2250 C.3      12 GLL5        0.0000 
     47 CA        -13.2990   36.5550   21.5050 C.3       8 GLP5        0.0000 
     48 CA        -11.1640   35.6045   24.7200 C.3       4 GLC5        0.0000 
     49 CA        -10.4710   37.6630   25.2150 C.3       8 GLP5        0.0000 
     50 CA        -12.6525   33.7630   25.9530 C.3       4 GLC5        0.0000 
     51 CA        -13.4480   33.9800   27.6810 C.3       8 GLP5        0.0000 
     52 CA        -13.6625   33.6200   23.7890 C.3       4 GLC5        0.0000 
     53 CA        -15.4680   33.6940   23.3530 C.3       8 GLP5        0.0000 
     54 CA         -8.8090   33.8090   23.7995 C.3       4 GLC5        0.0000 
     55 CA        -10.3440   33.3130   22.5110 C.3      12 GLL5        0.0000 
     56 CA         -7.2740   34.3050   25.0880 C.3       8 GLP5        0.0000 
     57 CA        -10.8005   32.4485   20.5705 C.3       4 GLC5        0.0000 
     58 N          -7.0880   24.4325   17.0105 N.am      2 SEC2        0.0000 
     59 N          -5.9810   24.1060   16.1160 N.am     10 SEL2        0.0000 
     60 N          -8.1950   24.7590   17.9050 N.am      6 SEP2        0.0000 
     61 N          -6.9620   25.0615   15.6755 N.am      2 SEC2        0.0000 
     62 N          -7.9430   26.0170   15.2350 N.am      6 SEP2        0.0000 
     63 N          -6.7470   23.3930   15.1935 N.am      2 SEC2        0.0000 
     64 N          -7.5130   22.6800   14.2710 N.am      6 SEP2        0.0000 
     65 O          -4.2090   24.0775   14.2800 O.2       1 ALC1        0.0000 
     66 O          -3.7860   24.2520   15.6180 O.2       9 ALL1        0.0000 
     67 O          -4.6320   23.9030   12.9420 O.2       5 ALP1        0.0000 
     68 N          -1.2950   25.1245   13.6965 N.am      2 SEC2        0.0000 
     69 N          -1.6330   24.4080   15.1460 N.am     10 SEL2        0.0000 
     70 N          -0.9570   25.8410   12.2470 N.am      6 SEP2        0.0000 
     71 N          -0.0580   25.5390   17.5175 N.am      2 SEC2        0.0000 
     72 N          -0.9250   24.4830   17.9740 N.am     10 SEL2        0.0000 
     73 N           0.8090   26.5950   17.0610 N.am      6 SEP2        0.0000 
     74 CA          4.2920   24.5650   22.2340 C.3       4 GLC5        0.0000 
     75 CA          2.2770   24.6760   21.6850 C.3      12 GLL5        0.0000 
     76 CA          6.3070   24.4540   22.7830 C.3       8 GLP5        0.0000 
     77 CA         -6.0680   23.8680   20.0855 C.3       4 GLC5        0.0000 
     78 CA         -4.3490   24.7730   20.6710 C.3      12 GLL5        0.0000 
     79 CA         -7.7870   22.9630   19.5000 C.3       8 GLP5        0.0000 
     80 CA         -5.7100   26.7940   18.8850 C.3       4 GLC5        0.0000 
     81 CA         -4.6610   26.2710   20.7620 C.3      12 GLL5        0.0000 
     82 CA         -6.7590   27.3170   17.0080 C.3       8 GLP5        0.0000 
     83 CA         -6.8950   24.7150   20.5105 C.3       4 GLC5        0.0000 
     84 CA         -6.0030   26.4670   21.5210 C.3      12 GLL5        0.0000 
     85 CA         -6.2560   25.7170   23.6165 C.3       4 GLC5        0.0000 
     86 CA         -6.5090   24.9670   25.7120 C.3       8 GLP5        0.0000 
     87 O          -8.5115   26.1425   21.1845 O.2       1 ALC1        0.0000 
     88 O          -7.0980   25.8110   20.7450 O.2       9 ALL1        0.0000 
     89 O          -9.9250   26.4740   21.6240 O.2       5 ALP1        0.0000 
     90 CA         -5.9850   29.3885   23.2615 C.3       4 GLC5        0.0000 
     91 CA         -6.4100   27.8980   21.8390 C.3      12 GLL5        0.0000 
     92 CA         -5.5600   30.8790   24.6840 C.3       8 GLP5        0.0000 
     93 CA         -6.9490   27.6120   23.9270 C.3       4 GLC5        0.0000 
     94 CA         -7.4880   27.3260   26.0150 C.3       8 GLP5        0.0000 
     95 N          -8.7835   27.1440   22.1155 N.am      2 SEC2        0.0000 
     96 N          -7.6420   27.8140   22.6070 N.am     10 SEL2        0.0000 
     97 N          -9.9250   26.4740   21.6240 N.am      6 SEP2        0.0000 
     98 O          -7.9525   28.0340   23.9190 O.2       1 ALC1        0.0000 
     99 O          -7.6420   27.8140   22.6070 O.2       9 ALL1        0.0000 
    100 CA         -6.7520   28.0410   18.8315 C.3       4 GLC5        0.0000 
    101 CA         -6.7450   28.7650   20.6550 C.3      12 GLL5        0.0000 
    102 CA         -8.9090   28.6940   21.1375 C.3       4 GLC5        0.0000 
    103 CA        -11.0730   28.6230   21.6200 C.3       8 GLP5        0.0000 
    104 CA         -7.9840   29.4045   19.5340 C.3       4 GLC5        0.0000 
    105 CA         -9.2230   30.0440   18.4130 C.3       8 GLP5        0.0000 
    106 NZ         -4.3075   30.1630   22.5220 N.4       3 LYC4        0.0000 
    107 NZ         -4.1570   30.0290   21.1400 N.4      11 LYL4        0.0000 
    108 NZ         -4.4580   30.2970   23.9040 N.4       7 LYP4        0.0000 
    109 N          -4.3075   30.1630   22.5220 N.am      2 SEC2        0.0000 
    110 N          -4.1570   30.0290   21.1400 N.am     10 SEL2        0.0000 
    111 N          -4.4580   30.2970   23.9040 N.am      6 SEP2        0.0000 
    112 N          -2.7860   30.3355   17.5630 N.am      2 SEC2        0.0000 
    113 N          -3.8160   29.8490   18.5660 N.am     10 SEL2        0.0000 
    114 N          -1.7560   30.8220   16.5600 N.am      6 SEP2        0.0000 
    115 N          -4.1790   29.6640   17.2700 N.am      2 SEC2        0.0000 
    116 N          -4.5420   29.4790   15.9740 N.am      6 SEP2        0.0000 
    117 CA         -8.7967   33.0222   18.2415 C.3       4 GLC5        0.0000 
    118 CA         -9.9160   31.3320   17.9380 C.3       8 GLP5        0.0000 
    119 CA        -11.3812   35.8802   21.1545 C.3       4 GLC5        0.0000 
    120 CA         -8.4567   32.4225   24.6082 C.3       4 GLC5        0.0000 
    121 CA         -9.8460   32.1410   23.1890 C.3      12 GLL5        0.0000 
    122 CA         -6.8050   32.9110   25.4030 C.3       8 GLP5        0.0000 
    123 CA        -10.5907   30.2785   22.7167 C.3       4 GLC5        0.0000 
    124 CA          0.1800   23.1110   18.0125 C.3       4 GLC5        0.0000 
    125 CA         -0.6910   24.5240   19.2960 C.3      12 GLL5        0.0000 
    126 CA          0.3840   21.6760   16.4620 C.3       8 GLP5        0.0000 
    127 CA         -0.2420   22.5845   19.9745 C.3       4 GLC5        0.0000 
    128 CA         -0.4600   20.6230   20.3860 C.3       8 GLP5        0.0000 
    129 CA         -0.0452   22.6375   21.0160 C.3       4 GLC5        0.0000 
    130 CA          0.8760   24.6490   21.1380 C.3      12 GLL5        0.0000 
    131 CA          2.5006   25.9891   20.4562 C.3       4 GLC5        0.0000 
    132 CA          0.6430   24.5680   19.8300 C.3      12 GLL5        0.0000 
    133 CA          3.4830   27.3360   19.8280 C.3       8 GLP5        0.0000 
    134 CA          2.5661   23.3861   19.9558 C.3       4 GLC5        0.0000 
    135 CA          3.6140   22.1300   18.8270 C.3       8 GLP5        0.0000 
    136 CA         -1.0388   22.6470   20.6938 C.3       4 GLC5        0.0000 
    137 CA         -1.7680   24.6290   20.3270 C.3      12 GLL5        0.0000 
@<TRIPOS>BOND
@<TRIPOS>SUBSTRUCTURE
     1 ALC1       20 GROUP        1 X    ALC  0     ROOT ALC X 1
     2 SEC2        1 GROUP        1 X    SEC  0     **** SEC X 2
     3 LYC4      106 GROUP        1 X    LYC  0     **** LYC X 4
     4 GLC5       11 GROUP        1 X    GLC  0     **** GLC X 6
     5 ALP1       22 GROUP        1 Y    ALP  0     ROOT ALP Y 8
     6 SEP2        3 GROUP        1 Y    SEP  0     **** SEP Y 9
     7 LYP4      108 GROUP        1 Y    LYP  0     **** LYP Y 11
     8 GLP5       13 GROUP        1 Y    GLP  0     **** GLP Y 13
     9 ALL1       21 GROUP        1 Z    ALL  0     ROOT ALL Z 15
    10 SEL2        2 GROUP        1 Z    SEL  0     **** SEL Z 16
    11 LYL4      107 GROUP        1 Z    LYL  0     **** LYL Z 18
    12 GLL5       12 GROUP        1 Z    GLL  0     **** GLL Z 20
@<TRIPOS>SET

