#    Name: 4l2i_FAD_2_ligand
#    Modification time : Tue Mar 25 09:24:42 2014

@<TRIPOS>MOLECULE
4l2i_FAD_2_ligand
   84    89     1     0     0
SMALL
NO_CHARGES


@<TRIPOS>ATOM
      1 PA         -5.7140   32.2160   18.2840 P.3       1 FAD301      0.0000 
      2 O1A        -6.3970   31.4910   17.2460 O.co2     1 FAD301      0.0000 
      3 O2A        -4.4170   32.8900   17.8250 O.co2     1 FAD301      0.0000 
      4 O5B        -6.5880   33.3360   19.0210 O.3       1 FAD301      0.0000 
      5 C5B        -7.1590   34.3090   18.1320 C.3       1 FAD301      0.0000 
      6 C4B        -8.1960   35.1160   18.9580 C.3       1 FAD301      0.0000 
      7 O4B        -9.3210   34.2590   19.2540 O.3       1 FAD301      0.0000 
      8 C3B        -7.7720   35.6090   20.3140 C.3       1 FAD301      0.0000 
      9 O3B        -6.8640   36.7650   20.2340 O.3       1 FAD301      0.0000 
     10 C2B        -9.0950   35.8310   21.0790 C.3       1 FAD301      0.0000 
     11 O2B        -9.6900   37.0180   20.5810 O.3       1 FAD301      0.0000 
     12 C1B        -9.8320   34.5800   20.5290 C.3       1 FAD301      0.0000 
     13 N9A        -9.6550   33.4600   21.3950 N.pl3     1 FAD301      0.0000 
     14 C8A        -8.6760   32.4000   21.3660 C.2       1 FAD301      0.0000 
     15 N7A        -8.8260   31.6380   22.4440 N.2       1 FAD301      0.0000 
     16 C5A        -9.8460   32.1410   23.1890 C.ar      1 FAD301      0.0000 
     17 C6A       -10.3710   31.7270   24.4380 C.ar      1 FAD301      0.0000 
     18 N6A        -9.9210   30.6480   25.1040 N.pl3     1 FAD301      0.0000 
     19 N1A       -11.4450   32.4440   24.8850 N.ar      1 FAD301      0.0000 
     20 C2A       -11.8570   33.5460   24.2250 C.ar      1 FAD301      0.0000 
     21 N3A       -11.4290   33.9350   23.0570 N.ar      1 FAD301      0.0000 
     22 C4A       -10.3440   33.3130   22.5110 C.ar      1 FAD301      0.0000 
     23 N1         -4.6150   24.4140   17.9330 N.2       1 FAD301      0.0000 
     24 C2         -4.7980   24.3000   16.6040 C.2       1 FAD301      0.0000 
     25 O2         -5.9810   24.1060   16.1160 O.2       1 FAD301      0.0000 
     26 N3         -3.7860   24.2520   15.6180 N.am      1 FAD301      0.0000 
     27 C4         -2.5050   24.3400   16.0530 C.2       1 FAD301      0.0000 
     28 O4         -1.6330   24.4080   15.1460 O.2       1 FAD301      0.0000 
     29 C4X        -2.2600   24.4220   17.4700 C.2       1 FAD301      0.0000 
     30 N5         -0.9250   24.4830   17.9740 N.2       1 FAD301      0.0000 
     31 C5X        -0.6910   24.5240   19.2960 C.ar      1 FAD301      0.0000 
     32 C6          0.6430   24.5680   19.8300 C.ar      1 FAD301      0.0000 
     33 C7          0.8760   24.6490   21.1380 C.ar      1 FAD301      0.0000 
     34 C7M         2.2770   24.6760   21.6850 C.3       1 FAD301      0.0000 
     35 C8         -0.1370   24.6550   22.1540 C.ar      1 FAD301      0.0000 
     36 C8M         0.1570   24.7950   23.5880 C.3       1 FAD301      0.0000 
     37 C9         -1.4670   24.7130   21.6760 C.ar      1 FAD301      0.0000 
     38 C9A        -1.7680   24.6290   20.3270 C.ar      1 FAD301      0.0000 
     39 N10        -3.1390   24.6270   19.8040 N.pl3     1 FAD301      0.0000 
     40 C10        -3.3050   24.5220   18.4910 C.2       1 FAD301      0.0000 
     41 C1'        -4.3490   24.7730   20.6710 C.3       1 FAD301      0.0000 
     42 C2'        -4.6610   26.2710   20.7620 C.3       1 FAD301      0.0000 
     43 O2'        -3.6270   27.1360   21.3790 O.3       1 FAD301      0.0000 
     44 C3'        -6.0030   26.4670   21.5210 C.3       1 FAD301      0.0000 
     45 O3'        -7.0980   25.8110   20.7450 O.3       1 FAD301      0.0000 
     46 C4'        -6.4100   27.8980   21.8390 C.3       1 FAD301      0.0000 
     47 O4'        -7.6420   27.8140   22.6070 O.3       1 FAD301      0.0000 
     48 C5'        -6.7450   28.7650   20.6550 C.3       1 FAD301      0.0000 
     49 O5'        -5.8360   28.9360   19.5980 O.3       1 FAD301      0.0000 
     50 P          -4.6090   30.0100   19.7900 P.3       1 FAD301      0.0000 
     51 O1P        -4.1570   30.0290   21.1400 O.co2     1 FAD301      0.0000 
     52 O2P        -3.8160   29.8490   18.5660 O.co2     1 FAD301      0.0000 
     53 O3P        -5.4500   31.4270   19.6060 O.3       1 FAD301      0.0000 
     54 H          -7.6850   33.8507   17.3067 H         1 FAD301      0.0000 
     55 H          -6.4223   35.0076   17.7618 H         1 FAD301      0.0000 
     56 H          -8.5444   35.9515   18.3694 H         1 FAD301      0.0000 
     57 H          -7.2716   34.7589   20.8096 H         1 FAD301      0.0000 
     58 H          -8.9377   35.7358   22.0631 H         1 FAD301      0.0000 
     59 H         -10.8842   34.8450   20.4616 H         1 FAD301      0.0000 
     60 H          -8.0438   32.3148   20.6513 H         1 FAD301      0.0000 
     61 H          -9.1970   30.1242   24.6552 H         1 FAD301      0.0000 
     62 H         -10.3507   30.4660   25.9885 H         1 FAD301      0.0000 
     63 H         -12.6111   34.1495   24.7253 H         1 FAD301      0.0000 
     64 H          -4.0338   24.1565   14.6454 H         1 FAD301      0.0000 
     65 H           1.4217   24.5328   19.1338 H         1 FAD301      0.0000 
     66 H          -2.2342   24.8223   22.3697 H         1 FAD301      0.0000 
     67 H          -4.1512   24.3963   21.6599 H         1 FAD301      0.0000 
     68 H          -5.1908   24.2665   20.2308 H         1 FAD301      0.0000 
     69 H          -4.8632   26.6317   19.7305 H         1 FAD301      0.0000 
     70 H          -5.9171   25.9149   22.4779 H         1 FAD301      0.0000 
     71 H          -5.6576   28.3663   22.4353 H         1 FAD301      0.0000 
     72 H          -7.0563   29.7889   21.0808 H         1 FAD301      0.0000 
     73 H          -7.7559   28.3873   20.2524 H         1 FAD301      0.0000 
     74 H           2.7879   23.8525   21.4384 H         1 FAD301      0.0000 
     75 H           2.7959   25.4576   21.3387 H         1 FAD301      0.0000 
     76 H           2.2849   24.7379   22.6831 H         1 FAD301      0.0000 
     77 H           0.7449   24.0575   23.9203 H         1 FAD301      0.0000 
     78 H           0.6247   25.6558   23.7889 H         1 FAD301      0.0000 
     79 H          -0.6758   24.7778   24.1413 H         1 FAD301      0.0000 
     80 H          -6.8996   37.1851   21.1407 H         1 FAD301      0.0000 
     81 H          -9.7631   37.6230   21.3739 H         1 FAD301      0.0000 
     82 H          -4.1102   27.9724   21.6377 H         1 FAD301      0.0000 
     83 H          -7.9435   26.1968   21.1140 H         1 FAD301      0.0000 
     84 H          -7.3548   27.8680   23.5633 H         1 FAD301      0.0000 
@<TRIPOS>BOND
     1    2    1 ar   
     2    3    1 ar   
     3    4    1 1    
     4   53    1 1    
     5    5    4 1    
     6    6    5 1    
     7   54    5 1    
     8   55    5 1    
     9    7    6 1    
    10    8    6 1    
    11   56    6 1    
    12   12    7 1    
    13    9    8 1    
    14   10    8 1    
    15   57    8 1    
    16   80    9 1    
    17   11   10 1    
    18   12   10 1    
    19   58   10 1    
    20   81   11 1    
    21   13   12 1    
    22   59   12 1    
    23   14   13 1    
    24   22   13 1    
    25   15   14 2    
    26   60   14 1    
    27   16   15 1    
    28   17   16 ar   
    29   22   16 ar   
    30   18   17 1    
    31   19   17 ar   
    32   61   18 1    
    33   62   18 1    
    34   20   19 ar   
    35   21   20 ar   
    36   63   20 1    
    37   22   21 ar   
    38   24   23 1    
    39   40   23 2    
    40   25   24 2    
    41   26   24 am   
    42   27   26 am   
    43   64   26 1    
    44   28   27 2    
    45   29   27 1    
    46   30   29 2    
    47   40   29 1    
    48   31   30 1    
    49   32   31 ar   
    50   38   31 ar   
    51   33   32 ar   
    52   65   32 1    
    53   34   33 1    
    54   35   33 ar   
    55   74   34 1    
    56   75   34 1    
    57   76   34 1    
    58   36   35 1    
    59   37   35 ar   
    60   77   36 1    
    61   78   36 1    
    62   79   36 1    
    63   38   37 ar   
    64   66   37 1    
    65   39   38 1    
    66   40   39 1    
    67   41   39 1    
    68   42   41 1    
    69   67   41 1    
    70   68   41 1    
    71   43   42 1    
    72   44   42 1    
    73   69   42 1    
    74   82   43 1    
    75   45   44 1    
    76   46   44 1    
    77   70   44 1    
    78   83   45 1    
    79   47   46 1    
    80   48   46 1    
    81   71   46 1    
    82   84   47 1    
    83   49   48 1    
    84   72   48 1    
    85   73   48 1    
    86   50   49 1    
    87   51   50 ar   
    88   52   50 ar   
    89   53   50 1    
@<TRIPOS>SUBSTRUCTURE
     1 FAD301      1 GROUP   
@<TRIPOS>SET

