#    Name: 1gky_5GP_1_INTS_M
#    Modification time : Tue Mar 25 03:16:04 2014

@<TRIPOS>MOLECULE
1gky_5GP_1_INTS_M
   61     0    12     0     0
SMALL
NO_CHARGES


@<TRIPOS>ATOM
      1 NZ         29.6890   46.1755   71.5670 N.4       3 LYC4        0.0000 
      2 NZ         30.3190   45.0040   71.0730 N.4      11 LYL4        0.0000 
      3 NZ         28.3640   48.1430   71.2570 N.4       7 LYP4        0.0000 
      4 N          29.6890   46.1755   71.5670 N.am      2 SEC2        0.0000 
      5 N          30.3190   45.0040   71.0730 N.am     10 SEL2        0.0000 
      6 N          29.0590   47.3470   72.0610 N.am      6 SEP2        0.0000 
      7 N          30.2510   44.7090   72.4210 N.am      2 SEC2        0.0000 
      8 N          30.1830   44.4140   73.7690 N.am      6 SEP2        0.0000 
      9 NZ         28.2200   46.2425   69.6470 N.4       3 LYC4        0.0000 
     10 NZ         28.5260   44.8880   69.1430 N.4      11 LYL4        0.0000 
     11 N          28.2200   46.2425   69.6470 N.am      2 SEC2        0.0000 
     12 N          28.5260   44.8880   69.1430 N.am     10 SEL2        0.0000 
     13 N          27.9140   47.5970   70.1510 N.am      6 SEP2        0.0000 
     14 N          27.4230   44.3160   69.5445 N.am      2 SEC2        0.0000 
     15 N          26.3200   43.7440   69.9460 N.am      6 SEP2        0.0000 
     16 N          31.0470   46.1930   68.8710 N.am      2 SEC2        0.0000 
     17 N          30.7640   44.6170   68.7020 N.am     10 SEL2        0.0000 
     18 N          31.3300   47.7690   69.0400 N.am      6 SEP2        0.0000 
     19 CA         29.9710   42.8975   72.4660 C.3       4 GLC5        0.0000 
     20 CA         30.7400   42.2970   70.8370 C.3      12 GLL5        0.0000 
     21 CA         29.2020   43.4980   74.0950 C.3       8 GLP5        0.0000 
     22 N          28.6025   37.6260   67.2550 N.am      2 SEC2        0.0000 
     23 N          28.6850   38.6900   68.4960 N.am     10 SEL2        0.0000 
     24 N          28.5200   36.5620   66.0140 N.am      6 SEP2        0.0000 
     25 CA         27.8650   41.0465   72.2240 C.3       4 GLC5        0.0000 
     26 CA         28.6340   39.6410   70.6880 C.3      12 GLL5        0.0000 
     27 CA         27.0960   42.4520   73.7600 C.3       8 GLP5        0.0000 
     28 CA         29.2785   37.5265   70.5745 C.3       4 GLC5        0.0000 
     29 CA         29.9230   35.4120   70.4610 C.3       8 GLP5        0.0000 
     30 N          23.4325   40.3475   71.4945 N.am      2 SEC2        0.0000 
     31 N          25.1750   40.3140   71.4170 N.am     10 SEL2        0.0000 
     32 N          21.6900   40.3810   71.5720 N.am      6 SEP2        0.0000 
     33 N          24.2265   40.6515   70.2645 N.am      2 SEC2        0.0000 
     34 N          23.2780   40.9890   69.1120 N.am      6 SEP2        0.0000 
     35 CA         23.4665   40.2840   72.2665 C.3       4 GLC5        0.0000 
     36 CA         25.2780   39.0820   72.0700 C.3      12 GLL5        0.0000 
     37 CA         21.6550   41.4860   72.4630 C.3       8 GLP5        0.0000 
     38 CA         24.3110   37.6055   71.1300 C.3       4 GLC5        0.0000 
     39 CA         23.3440   36.1290   70.1900 C.3       8 GLP5        0.0000 
     40 N          22.4295   39.5295   72.3005 N.am      2 SEC2        0.0000 
     41 N          23.1690   38.6780   73.0290 N.am     10 SEL2        0.0000 
     42 O          24.5675   35.7830   74.1805 O.2       1 ALC1        0.0000 
     43 O          24.8360   37.1900   73.2700 O.2       9 ALL1        0.0000 
     44 O          24.2990   34.3760   75.0910 O.2       5 ALP1        0.0000 
     45 O          23.8085   36.2400   73.5520 O.2       1 ALC1        0.0000 
     46 O          22.7810   35.2900   73.8340 O.2       5 ALP1        0.0000 
     47 O          25.3300   34.9330   74.3055 O.2       1 ALC1        0.0000 
     48 O          26.3610   35.4900   73.5200 O.2       9 ALL1        0.0000 
     49 O          27.5990   34.9860   72.9695 O.2       1 ALC1        0.0000 
     50 O          28.8370   34.4820   72.4190 O.2       5 ALP1        0.0000 
     51 N          27.3535   36.3885   70.9900 N.am      2 SEC2        0.0000 
     52 N          27.0050   37.3530   72.3100 N.am     10 SEL2        0.0000 
     53 N          27.7020   35.4240   69.6700 N.am      6 SEP2        0.0000 
     54 CA         26.0325   37.3625   70.3440 C.3       4 GLC5        0.0000 
     55 CA         26.5830   38.5590   71.8440 C.3      12 GLL5        0.0000 
     56 CA         25.4820   36.1660   68.8440 C.3       8 GLP5        0.0000 
     57 CA         31.9773   41.6300   72.2057 C.3       4 GLC5        0.0000 
     58 CA         30.6770   40.7470   70.7700 C.3      12 GLL5        0.0000 
     59 CA         33.2460   41.7380   73.6080 C.3       8 GLP5        0.0000 
     60 CA         26.1172   39.7137   73.6260 C.3       4 GLC5        0.0000 
     61 CA         26.3040   40.6070   75.2950 C.3       8 GLP5        0.0000 
@<TRIPOS>BOND
@<TRIPOS>SUBSTRUCTURE
     1 ALC1       42 GROUP        1 X    ALC  0     ROOT ALC X 1
     2 SEC2        4 GROUP        1 X    SEC  0     **** SEC X 2
     3 LYC4        1 GROUP        1 X    LYC  0     **** LYC X 4
     4 GLC5       19 GROUP        1 X    GLC  0     **** GLC X 6
     5 ALP1       44 GROUP        1 Y    ALP  0     ROOT ALP Y 8
     6 SEP2        6 GROUP        1 Y    SEP  0     **** SEP Y 9
     7 LYP4        3 GROUP        1 Y    LYP  0     **** LYP Y 11
     8 GLP5       21 GROUP        1 Y    GLP  0     **** GLP Y 13
     9 ALL1       43 GROUP        1 Z    ALL  0     ROOT ALL Z 15
    10 SEL2        5 GROUP        1 Z    SEL  0     **** SEL Z 16
    11 LYL4        2 GROUP        1 Z    LYL  0     **** LYL Z 18
    12 GLL5       20 GROUP        1 Z    GLL  0     **** GLL Z 20
@<TRIPOS>SET

