#    Name: 1gky_5GP_1_ligand
#    Modification time : Tue Mar 25 03:16:05 2014

@<TRIPOS>MOLECULE
1gky_5GP_1_ligand
   36    38     1     0     0
SMALL
NO_CHARGES


@<TRIPOS>ATOM
      1 P          29.8750   44.4880   69.8230 P.3       1 5GP187      0.0000 
      2 O1P        30.3190   45.0040   71.0730 O.co2     1 5GP187      0.0000 
      3 O2P        28.5260   44.8880   69.1430 O.co2     1 5GP187      0.0000 
      4 O3P        30.7640   44.6170   68.7020 O.co2     1 5GP187      0.0000 
      5 O5'        29.6830   43.0160   70.0270 O.3       1 5GP187      0.0000 
      6 C5'        30.7400   42.2970   70.8370 C.3       1 5GP187      0.0000 
      7 C4'        30.6770   40.7470   70.7700 C.3       1 5GP187      0.0000 
      8 O4'        29.6080   40.1600   71.5990 O.3       1 5GP187      0.0000 
      9 C3'        30.5470   40.1210   69.3520 C.3       1 5GP187      0.0000 
     10 O3'        31.2280   38.8640   69.4160 O.3       1 5GP187      0.0000 
     11 C2'        29.0310   39.8710   69.2480 C.3       1 5GP187      0.0000 
     12 O2'        28.6850   38.6900   68.4960 O.3       1 5GP187      0.0000 
     13 C1'        28.6340   39.6410   70.6880 C.3       1 5GP187      0.0000 
     14 N9         27.2380   39.5250   71.0760 N.pl3     1 5GP187      0.0000 
     15 C8         26.3300   40.5350   70.8520 C.2       1 5GP187      0.0000 
     16 N7         25.1750   40.3140   71.4170 N.2       1 5GP187      0.0000 
     17 C5         25.2780   39.0820   72.0700 C.2       1 5GP187      0.0000 
     18 C6         24.3260   38.3540   72.8270 C.2       1 5GP187      0.0000 
     19 O6         23.1690   38.6780   73.0290 O.2       1 5GP187      0.0000 
     20 N1         24.8360   37.1900   73.2700 N.am      1 5GP187      0.0000 
     21 C2         26.0750   36.7010   73.0010 C.2       1 5GP187      0.0000 
     22 N2         26.3610   35.4900   73.5200 N.pl3     1 5GP187      0.0000 
     23 N3         27.0050   37.3530   72.3100 N.2       1 5GP187      0.0000 
     24 C4         26.5830   38.5590   71.8440 C.2       1 5GP187      0.0000 
     25 H          30.6594   42.5964   71.8987 H         1 5GP187      0.0000 
     26 H          31.7442   42.6129   70.4977 H         1 5GP187      0.0000 
     27 H          31.6510   40.3597   71.1754 H         1 5GP187      0.0000 
     28 H          30.8619   40.7766   68.6555 H         1 5GP187      0.0000 
     29 H          28.5608   40.7488   68.9098 H         1 5GP187      0.0000 
     30 H          28.9776   38.3987   70.7426 H         1 5GP187      0.0000 
     31 H          26.5677   41.3380   70.3082 H         1 5GP187      0.0000 
     32 H          24.2010   36.5799   73.9029 H         1 5GP187      0.0000 
     33 H          25.6216   35.0402   74.0209 H         1 5GP187      0.0000 
     34 H          27.2871   35.1493   73.3579 H         1 5GP187      0.0000 
     35 H          30.5503   38.1877   69.1275 H         1 5GP187      0.0000 
     36 H          27.6876   38.6364   68.5429 H         1 5GP187      0.0000 
@<TRIPOS>BOND
     1    2    1 ar   
     2    3    1 ar   
     3    4    1 ar   
     4    5    1 1    
     5    6    5 1    
     6    7    6 1    
     7   25    6 1    
     8   26    6 1    
     9    8    7 1    
    10    9    7 1    
    11   27    7 1    
    12   13    8 1    
    13   10    9 1    
    14   11    9 1    
    15   28    9 1    
    16   35   10 1    
    17   12   11 1    
    18   13   11 1    
    19   29   11 1    
    20   36   12 1    
    21   14   13 1    
    22   30   13 1    
    23   15   14 1    
    24   24   14 1    
    25   16   15 2    
    26   31   15 1    
    27   17   16 1    
    28   18   17 1    
    29   24   17 2    
    30   19   18 2    
    31   20   18 am   
    32   21   20 1    
    33   32   20 1    
    34   22   21 1    
    35   23   21 2    
    36   33   22 1    
    37   34   22 1    
    38   24   23 1    
@<TRIPOS>SUBSTRUCTURE
     1 5GP187      1 GROUP   
@<TRIPOS>SET

