#    Name: 2j5x_GSP_1_INTS_M
#    Modification time : Tue Mar 25 19:18:20 2014

@<TRIPOS>MOLECULE
2j5x_GSP_1_INTS_M
   85     0    15     0     0
SMALL
NO_CHARGES


@<TRIPOS>ATOM
      1 N          76.7640   27.9160   34.4505 N.am      2 SEC2        0.0000 
      2 N          75.9490   28.6930   35.2730 N.am     12 SEL2        0.0000 
      3 N          77.5790   27.1390   33.6280 N.am      7 SEP2        0.0000 
      4 CA         79.4475   28.5600   35.4410 C.3       5 GLC5        0.0000 
      5 CA         78.3560   29.7660   35.9090 C.3      15 GLL5        0.0000 
      6 CA         80.5390   27.3540   34.9730 C.3      10 GLP5        0.0000 
      7 CA         78.0870   31.6715   35.7080 C.3       5 GLC5        0.0000 
      8 CA         77.8180   33.5770   35.5070 C.3      10 GLP5        0.0000 
      9 CA         80.4760   30.0090   36.3820 C.3       5 GLC5        0.0000 
     10 CA         82.5960   30.2520   36.8550 C.3      10 GLP5        0.0000 
     11 CA         77.6765   30.5600   34.1670 C.3       5 GLC5        0.0000 
     12 CA         76.9970   31.3540   32.4250 C.3      10 GLP5        0.0000 
     13 N          76.2345   27.1510   37.6435 N.am      2 SEC2        0.0000 
     14 N          76.7570   28.3960   37.5970 N.am     12 SEL2        0.0000 
     15 N          75.7120   25.9060   37.6900 N.am      7 SEP2        0.0000 
     16 N          77.6490   28.2015   38.6365 N.am      2 SEC2        0.0000 
     17 N          78.5410   28.0070   39.6760 N.am      7 SEP2        0.0000 
     18 Zn         75.2300   30.7635   37.2120 Zn        4 ZIC7        0.0000 
     19 Zn         76.0690   30.7050   36.9220 Zn       14 ZIL7        0.0000 
     20 Zn         74.3910   30.8220   37.5020 Zn        9 ZIP7        0.0000 
     21 N          76.4680   31.9755   37.3215 N.am      2 SEC2        0.0000 
     22 N          76.0690   30.7050   36.9220 N.am     12 SEL2        0.0000 
     23 N          76.8670   33.2460   37.7210 N.am      7 SEP2        0.0000 
     24 NZ         74.9600   26.4335   36.7480 N.4       3 LYC4        0.0000 
     25 NZ         74.2080   26.9610   35.8060 N.4      13 LYL4        0.0000 
     26 NZ         75.7120   25.9060   37.6900 N.4       8 LYP4        0.0000 
     27 N          73.5765   26.3125   34.5415 N.am      2 SEC2        0.0000 
     28 N          74.2080   26.9610   35.8060 N.am     12 SEL2        0.0000 
     29 N          72.9450   25.6640   33.2770 N.am      7 SEP2        0.0000 
     30 N          72.8795   26.6380   35.7105 N.am      2 SEC2        0.0000 
     31 N          71.5510   26.3150   35.6150 N.am      7 SEP2        0.0000 
     32 N          74.9600   26.4335   36.7480 N.am      2 SEC2        0.0000 
     33 Zn         74.0505   30.0755   36.8830 Zn        4 ZIC7        0.0000 
     34 Zn         73.7100   29.3290   36.2640 Zn       14 ZIL7        0.0000 
     35 N          72.2085   29.0685   36.5555 N.am      2 SEC2        0.0000 
     36 N          73.7100   29.3290   36.2640 N.am     12 SEL2        0.0000 
     37 N          70.7070   28.8080   36.8470 N.am      7 SEP2        0.0000 
     38 N          70.1930   29.4610   34.2825 N.am      2 SEC2        0.0000 
     39 N          71.5340   29.3780   33.6240 N.am     12 SEL2        0.0000 
     40 N          68.8520   29.5440   34.9410 N.am      7 SEP2        0.0000 
     41 N          70.4025   29.7205   32.8550 N.am      2 SEC2        0.0000 
     42 N          69.2710   30.0630   32.0860 N.am      7 SEP2        0.0000 
     43 N          72.7315   32.1345   32.8635 N.am      2 SEC2        0.0000 
     44 N          73.3490   31.0100   33.3740 N.am     12 SEL2        0.0000 
     45 N          72.1140   33.2590   32.3530 N.am      7 SEP2        0.0000 
     46 N          73.4530   27.0950   33.5530 N.am      2 SEC2        0.0000 
     47 N          73.9610   28.5260   33.8290 N.am     12 SEL2        0.0000 
     48 CA         75.4070   28.3655   31.5560 C.3       5 GLC5        0.0000 
     49 CA         73.9780   29.6060   30.7480 C.3      15 GLL5        0.0000 
     50 CA         76.8360   27.1250   32.3640 C.3      10 GLP5        0.0000 
     51 CA         75.4875   30.4800   31.5865 C.3       5 GLC5        0.0000 
     52 CA         72.7770   32.6920   28.9720 C.3       5 GLC5        0.0000 
     53 CA         72.3630   30.8450   29.2260 C.3      15 GLL5        0.0000 
     54 CA         73.1910   34.5390   28.7180 C.3      10 GLP5        0.0000 
     55 N          73.9680   32.5420   28.1805 N.am      2 SEC2        0.0000 
     56 N          72.6900   31.6900   28.1490 N.am     12 SEL2        0.0000 
     57 N          75.2460   33.3940   28.2120 N.am      7 SEP2        0.0000 
     58 CA         70.3010   31.8510   27.8945 C.3       5 GLC5        0.0000 
     59 CA         71.0940   30.0670   28.9440 C.3      15 GLL5        0.0000 
     60 CA         69.5080   33.6350   26.8450 C.3      10 GLP5        0.0000 
     61 CA         72.3595   26.8615   28.4290 C.3       5 GLC5        0.0000 
     62 CA         71.6110   28.8020   28.2750 C.3      15 GLL5        0.0000 
     63 CA         73.1080   24.9210   28.5830 C.3      10 GLP5        0.0000 
     64 N          69.5645   24.7845   30.4100 N.am      2 SEC2        0.0000 
     65 N          69.4680   26.1710   29.5910 N.am     12 SEL2        0.0000 
     66 N          69.6610   23.3980   31.2290 N.am      7 SEP2        0.0000 
     67 CA         70.4275   24.4865   28.1570 C.3       5 GLC5        0.0000 
     68 CA         69.4270   25.8640   28.2530 C.3      15 GLL5        0.0000 
     69 CA         71.4280   23.1090   28.0610 C.3      10 GLP5        0.0000 
     70 CA         68.0360   25.7450   29.8660 C.3       5 GLC5        0.0000 
     71 CA         66.6450   25.6260   31.4790 C.3      10 GLP5        0.0000 
     72 N          66.8035   24.0325   28.9905 N.am      2 SEC2        0.0000 
     73 N          68.0560   23.9820   28.0080 N.am     12 SEL2        0.0000 
     74 N          65.5510   24.0830   29.9730 N.am      7 SEP2        0.0000 
     75 O          68.3280   23.7085   25.4830 O.2       1 ALC1        0.0000 
     76 O          68.9660   24.8470   26.1250 O.2      11 ALL1        0.0000 
     77 O          67.6900   22.5700   24.8410 O.2       6 ALP1        0.0000 
     78 O          68.1825   24.5020   24.7425 O.2       1 ALC1        0.0000 
     79 O          67.3990   24.1570   23.3600 O.2       6 ALP1        0.0000 
     80 O          68.6535   24.9555   23.7620 O.2       1 ALC1        0.0000 
     81 O          69.9080   25.7540   24.1640 O.2      11 ALL1        0.0000 
     82 CA         71.6655   25.8665   28.0845 C.3       5 GLC5        0.0000 
     83 CA         70.2230   26.8120   27.5860 C.3      15 GLL5        0.0000 
     84 CA         68.3540   27.2865   27.4322 C.3       5 GLC5        0.0000 
     85 CA         66.8830   28.2350   26.9450 C.3      10 GLP5        0.0000 
@<TRIPOS>BOND
@<TRIPOS>SUBSTRUCTURE
     1 ALC1       75 GROUP        1 X    ALC  0     ROOT ALC X 1
     2 SEC2        1 GROUP        1 X    SEC  0     **** SEC X 2
     3 LYC4       24 GROUP        1 X    LYC  0     **** LYC X 4
     4 ZIC7       18 GROUP        1 X    ZIC  0     **** ZIC X 5
     5 GLC5        4 GROUP        1 X    GLC  0     **** GLC X 6
     6 ALP1       77 GROUP        1 Y    ALP  0     ROOT ALP Y 8
     7 SEP2        3 GROUP        1 Y    SEP  0     **** SEP Y 9
     8 LYP4       26 GROUP        1 Y    LYP  0     **** LYP Y 11
     9 ZIP7       20 GROUP        1 Y    ZIP  0     **** ZIP Y 12
    10 GLP5        6 GROUP        1 Y    GLP  0     **** GLP Y 13
    11 ALL1       76 GROUP        1 Z    ALL  0     ROOT ALL Z 15
    12 SEL2        2 GROUP        1 Z    SEL  0     **** SEL Z 16
    13 LYL4       25 GROUP        1 Z    LYL  0     **** LYL Z 18
    14 ZIL7       19 GROUP        1 Z    ZIL  0     **** ZIL Z 19
    15 GLL5        5 GROUP        1 Z    GLL  0     **** GLL Z 20
@<TRIPOS>SET

