#    Name: 2j5x_GSP_1_ligand
#    Modification time : Tue Mar 25 19:18:20 2014

@<TRIPOS>MOLECULE
2j5x_GSP_1_ligand
   45    47     1     0     0
SMALL
NO_CHARGES


@<TRIPOS>ATOM
      1 PG         76.7480   29.4150   36.4510 P.3       1 GSP190      0.0000 
      2 O3B        75.9490   28.6930   35.2730 O.3       1 GSP190      0.0000 
      3 S1G        78.3560   29.7660   35.9090 S.2       1 GSP190      0.0000 
      4 O2G        76.7570   28.3960   37.5970 O.3       1 GSP190      0.0000 
      5 O3G        76.0690   30.7050   36.9220 O.3       1 GSP190      0.0000 
      6 PB         74.3940   28.3700   35.3800 P.3       1 GSP190      0.0000 
      7 O1B        74.2080   26.9610   35.8060 O.co2     1 GSP190      0.0000 
      8 O2B        73.7100   29.3290   36.2640 O.co2     1 GSP190      0.0000 
      9 PA         72.9320   29.5910   33.1790 P.3       1 GSP190      0.0000 
     10 O1A        71.5340   29.3780   33.6240 O.co2     1 GSP190      0.0000 
     11 O2A        73.3490   31.0100   33.3740 O.co2     1 GSP190      0.0000 
     12 O3A        73.9610   28.5260   33.8290 O.3       1 GSP190      0.0000 
     13 O5'        73.0040   29.1350   31.6330 O.3       1 GSP190      0.0000 
     14 C5'        73.9780   29.6060   30.7480 C.3       1 GSP190      0.0000 
     15 C4'        73.4330   29.7710   29.3280 C.3       1 GSP190      0.0000 
     16 O4'        72.8940   28.5630   28.8230 O.3       1 GSP190      0.0000 
     17 C3'        72.3630   30.8450   29.2260 C.3       1 GSP190      0.0000 
     18 O3'        72.6900   31.6900   28.1490 O.3       1 GSP190      0.0000 
     19 C2'        71.0940   30.0670   28.9440 C.3       1 GSP190      0.0000 
     20 O2'        70.1850   30.7640   28.1260 O.3       1 GSP190      0.0000 
     21 C1'        71.6110   28.8020   28.2750 C.3       1 GSP190      0.0000 
     22 N9         70.7220   27.6630   28.5420 N.pl3     1 GSP190      0.0000 
     23 C8         70.2520   27.2540   29.7670 C.2       1 GSP190      0.0000 
     24 N7         69.4680   26.1710   29.5910 N.2       1 GSP190      0.0000 
     25 C5         69.4270   25.8640   28.2530 C.2       1 GSP190      0.0000 
     26 C6         68.7790   24.8550   27.4980 C.2       1 GSP190      0.0000 
     27 O6         68.0560   23.9820   28.0080 O.2       1 GSP190      0.0000 
     28 N1         68.9660   24.8470   26.1250 N.am      1 GSP190      0.0000 
     29 C2         69.7620   25.7890   25.4940 C.2       1 GSP190      0.0000 
     30 N2         69.9080   25.7540   24.1640 N.pl3     1 GSP190      0.0000 
     31 N3         70.3910   26.7590   26.2440 N.2       1 GSP190      0.0000 
     32 C4         70.2230   26.8120   27.5860 C.2       1 GSP190      0.0000 
     33 H          74.8509   28.9241   30.6824 H         1 GSP190      0.0000 
     34 H          74.3834   30.5920   31.0557 H         1 GSP190      0.0000 
     35 H          74.2722   30.0973   28.6888 H         1 GSP190      0.0000 
     36 H          72.2814   31.3268   30.1531 H         1 GSP190      0.0000 
     37 H          70.6795   29.7712   29.8954 H         1 GSP190      0.0000 
     38 H          71.6734   28.9920   27.2192 H         1 GSP190      0.0000 
     39 H          70.4576   27.6811   30.6055 H         1 GSP190      0.0000 
     40 H          68.4961   24.1141   25.5531 H         1 GSP190      0.0000 
     41 H          70.7641   26.1262   23.8054 H         1 GSP190      0.0000 
     42 H          69.1479   25.3588   23.6481 H         1 GSP190      0.0000 
     43 H          75.9166   28.5747   38.1087 H         1 GSP190      0.0000 
     44 H          73.0227   31.0778   27.4316 H         1 GSP190      0.0000 
     45 H          70.7286   31.4786   27.6857 H         1 GSP190      0.0000 
@<TRIPOS>BOND
     1    2    1 1    
     2    3    1 2    
     3    4    1 1    
     4    5    1 1    
     5    6    2 1    
     6   43    4 1    
     7    7    6 ar   
     8    8    6 ar   
     9   12    6 1    
    10   10    9 ar   
    11   11    9 ar   
    12   12    9 1    
    13   13    9 1    
    14   14   13 1    
    15   15   14 1    
    16   33   14 1    
    17   34   14 1    
    18   16   15 1    
    19   17   15 1    
    20   35   15 1    
    21   21   16 1    
    22   18   17 1    
    23   19   17 1    
    24   36   17 1    
    25   44   18 1    
    26   20   19 1    
    27   21   19 1    
    28   37   19 1    
    29   45   20 1    
    30   22   21 1    
    31   38   21 1    
    32   23   22 1    
    33   32   22 1    
    34   24   23 2    
    35   39   23 1    
    36   25   24 1    
    37   26   25 1    
    38   32   25 2    
    39   27   26 2    
    40   28   26 am   
    41   29   28 1    
    42   40   28 1    
    43   30   29 1    
    44   31   29 2    
    45   41   30 1    
    46   42   30 1    
    47   32   31 1    
@<TRIPOS>SUBSTRUCTURE
     1 GSP190      1 GROUP   
@<TRIPOS>SET

