#    Name: 4itm_ATP_1_INTS_M
#    Modification time : Tue Mar 25 04:35:43 2014

@<TRIPOS>MOLECULE
4itm_ATP_1_INTS_M
   45     0     9     0     0
SMALL
NO_CHARGES


@<TRIPOS>ATOM
      1 N           3.7520   -2.8600   -3.9180 N.am      2 SEC2        0.0000 
      2 N           4.0370   -1.5350   -3.6570 N.am      8 SEL2        0.0000 
      3 N           3.4670   -4.1850   -4.1790 N.am      5 SEP2        0.0000 
      4 N           4.8925   -2.3170   -3.2990 N.am      2 SEC2        0.0000 
      5 N           5.7480   -3.0990   -2.9410 N.am      5 SEP2        0.0000 
      6 N          -0.0955    0.2925   -4.2575 N.am      2 SEC2        0.0000 
      7 N           0.4760    1.4220   -3.5130 N.am      8 SEL2        0.0000 
      8 N          -0.6670   -0.8370   -5.0020 N.am      5 SEP2        0.0000 
      9 N          -0.3740    2.3240   -3.2365 N.am      2 SEC2        0.0000 
     10 N          -1.2240    3.2260   -2.9600 N.am      5 SEP2        0.0000 
     11 N          -0.6480    2.1955    1.4970 N.am      2 SEC2        0.0000 
     12 N          -0.4870    1.1680    0.4430 N.am      8 SEL2        0.0000 
     13 N          -0.8090    3.2230    2.5510 N.am      5 SEP2        0.0000 
     14 N          -0.8340   -1.8545   -0.4485 N.am      2 SEC2        0.0000 
     15 N           0.1420   -0.8620   -1.0320 N.am      8 SEL2        0.0000 
     16 N          -1.8100   -2.8470    0.1350 N.am      5 SEP2        0.0000 
     17 CA          5.2390   -2.7140   -0.7010 C.3       3 GLC5        0.0000 
     18 CA          5.4970   -1.3380    0.8310 C.3       9 GLL5        0.0000 
     19 CA          4.9810   -4.0900   -2.2330 C.3       6 GLP5        0.0000 
     20 CA          7.6415   -1.6445    0.8300 C.3       3 GLC5        0.0000 
     21 CA          9.7860   -1.9510    0.8290 C.3       6 GLP5        0.0000 
     22 CA          5.9800   -1.9250    3.9285 C.3       3 GLC5        0.0000 
     23 CA          4.8730   -1.7280    2.1580 C.3       9 GLL5        0.0000 
     24 CA          7.0870   -2.1220    5.6990 C.3       6 GLP5        0.0000 
     25 N           1.2770   -4.6385    0.6845 N.am      2 SEC2        0.0000 
     26 N           2.4130   -4.2800    1.2470 N.am      8 SEL2        0.0000 
     27 N           0.1410   -4.9970    0.1220 N.am      5 SEP2        0.0000 
     28 CA          3.4720   -6.2630    1.8145 C.3       3 GLC5        0.0000 
     29 CA          2.7010   -4.6690    2.5120 C.3       9 GLL5        0.0000 
     30 CA          4.2430   -7.8570    1.1170 C.3       6 GLP5        0.0000 
     31 CA          3.1775   -7.2835    3.0300 C.3       3 GLC5        0.0000 
     32 CA          2.2500   -5.7520    3.4140 C.3       9 GLL5        0.0000 
     33 CA          4.1050   -8.8150    2.6460 C.3       6 GLP5        0.0000 
     34 CA          0.7480   -5.7620    4.6535 C.3       3 GLC5        0.0000 
     35 CA         -0.7540   -5.7720    5.8930 C.3       6 GLP5        0.0000 
     36 O           0.8795   -7.5455    3.9450 O.2       1 ALC1        0.0000 
     37 O           1.3190   -6.6540    3.0030 O.2       7 ALL1        0.0000 
     38 O           0.4400   -8.4370    4.8870 O.2       4 ALP1        0.0000 
     39 N           2.0210   -6.2605    5.8360 N.am      2 SEC2        0.0000 
     40 N           2.8100   -5.8050    4.6510 N.am      8 SEL2        0.0000 
     41 N           1.2320   -6.7160    7.0210 N.am      5 SEP2        0.0000 
     42 CA          5.4065   -3.5120    5.3830 C.3       3 GLC5        0.0000 
     43 CA          3.7260   -4.9020    5.0670 C.3       9 GLL5        0.0000 
     44 CA          3.4275   -5.6535    6.7955 C.3       3 GLC5        0.0000 
     45 CA          3.1290   -6.4050    8.5240 C.3       6 GLP5        0.0000 
@<TRIPOS>BOND
@<TRIPOS>SUBSTRUCTURE
     1 ALC1       36 GROUP        1 X    ALC  0     ROOT ALC X 1
     2 SEC2        1 GROUP        1 X    SEC  0     **** SEC X 2
     3 GLC5       17 GROUP        1 X    GLC  0     **** GLC X 6
     4 ALP1       38 GROUP        1 Y    ALP  0     ROOT ALP Y 8
     5 SEP2        3 GROUP        1 Y    SEP  0     **** SEP Y 9
     6 GLP5       19 GROUP        1 Y    GLP  0     **** GLP Y 13
     7 ALL1       37 GROUP        1 Z    ALL  0     ROOT ALL Z 15
     8 SEL2        2 GROUP        1 Z    SEL  0     **** SEL Z 16
     9 GLL5       18 GROUP        1 Z    GLL  0     **** GLL Z 20
@<TRIPOS>SET

