#    Name: 4itm_ATP_1_ligand
#    Modification time : Tue Mar 25 04:35:43 2014

@<TRIPOS>MOLECULE
4itm_ATP_1_ligand
   43    45     1     0     0
SMALL
NO_CHARGES


@<TRIPOS>ATOM
      1 PG          3.8950   -0.0360   -3.6940 P.3       1 ATP401      0.0000 
      2 O1G         3.5400    0.5650   -5.0240 O.co2     1 ATP401      0.0000 
      3 O2G         4.0370   -1.5350   -3.6570 O.co2     1 ATP401      0.0000 
      4 O3G         5.0110    0.6840   -2.9690 O.co2     1 ATP401      0.0000 
      5 PB          1.7210    1.5340   -2.6600 P.3       1 ATP401      0.0000 
      6 O1B         0.4760    1.4220   -3.5130 O.co2     1 ATP401      0.0000 
      7 O2B         2.5990    2.7400   -2.8390 O.co2     1 ATP401      0.0000 
      8 O3B         2.6200    0.2000   -2.7320 O.3       1 ATP401      0.0000 
      9 PA          0.5690    0.3530   -0.2570 P.3       1 ATP401      0.0000 
     10 O1A        -0.4870    1.1680    0.4430 O.co2     1 ATP401      0.0000 
     11 O2A         0.1420   -0.8620   -1.0320 O.co2     1 ATP401      0.0000 
     12 O3A         1.3120    1.4980   -1.1140 O.3       1 ATP401      0.0000 
     13 O5'         1.6850   -0.0880    0.8330 O.3       1 ATP401      0.0000 
     14 C5'         2.5720    0.9060    1.3660 C.3       1 ATP401      0.0000 
     15 C4'         3.9950    0.3790    1.5610 C.3       1 ATP401      0.0000 
     16 O4'         4.0600   -0.6260    2.5830 O.3       1 ATP401      0.0000 
     17 C3'         4.5680   -0.2490    0.2980 C.3       1 ATP401      0.0000 
     18 O3'         5.2100    0.7410   -0.5130 O.3       1 ATP401      0.0000 
     19 C2'         5.4970   -1.3380    0.8310 C.3       1 ATP401      0.0000 
     20 O2'         6.7760   -0.8100    1.1950 O.3       1 ATP401      0.0000 
     21 C1'         4.8730   -1.7280    2.1580 C.3       1 ATP401      0.0000 
     22 N9          3.9450   -2.8760    2.0520 N.pl3     1 ATP401      0.0000 
     23 C8          3.1700   -3.1930    0.9930 C.2       1 ATP401      0.0000 
     24 N7          2.4130   -4.2800    1.2470 N.2       1 ATP401      0.0000 
     25 C5          2.7010   -4.6690    2.5120 C.ar      1 ATP401      0.0000 
     26 C6          2.2500   -5.7520    3.4140 C.ar      1 ATP401      0.0000 
     27 N6          1.3190   -6.6540    3.0030 N.pl3     1 ATP401      0.0000 
     28 N1          2.8100   -5.8050    4.6510 N.ar      1 ATP401      0.0000 
     29 C2          3.7260   -4.9020    5.0670 C.ar      1 ATP401      0.0000 
     30 N3          4.1820   -3.8940    4.3040 N.ar      1 ATP401      0.0000 
     31 C4          3.7060   -3.7350    3.0410 C.ar      1 ATP401      0.0000 
     32 H           2.2171    1.2774    2.3465 H         1 ATP401      0.0000 
     33 H           2.6320    1.7892    0.7015 H         1 ATP401      0.0000 
     34 H           4.6402    1.2175    1.8272 H         1 ATP401      0.0000 
     35 H           3.7481   -0.7373   -0.2063 H         1 ATP401      0.0000 
     36 H           5.5209   -2.1499    0.2083 H         1 ATP401      0.0000 
     37 H           5.6331   -1.9255    2.8711 H         1 ATP401      0.0000 
     38 H           3.1593   -2.6942    0.1444 H         1 ATP401      0.0000 
     39 H           0.6718   -6.3342    2.3110 H         1 ATP401      0.0000 
     40 H           1.3637   -7.5576    3.4290 H         1 ATP401      0.0000 
     41 H           4.1076   -4.9980    6.0604 H         1 ATP401      0.0000 
     42 H           5.3822    0.2872   -1.3873 H         1 ATP401      0.0000 
     43 H           6.8845    0.0129    0.6372 H         1 ATP401      0.0000 
@<TRIPOS>BOND
     1    2    1 ar   
     2    3    1 ar   
     3    4    1 ar   
     4    8    1 1    
     5    6    5 ar   
     6    7    5 ar   
     7    8    5 1    
     8   12    5 1    
     9   10    9 ar   
    10   11    9 ar   
    11   12    9 1    
    12   13    9 1    
    13   14   13 1    
    14   15   14 1    
    15   32   14 1    
    16   33   14 1    
    17   16   15 1    
    18   17   15 1    
    19   34   15 1    
    20   21   16 1    
    21   18   17 1    
    22   19   17 1    
    23   35   17 1    
    24   42   18 1    
    25   20   19 1    
    26   21   19 1    
    27   36   19 1    
    28   43   20 1    
    29   22   21 1    
    30   37   21 1    
    31   23   22 1    
    32   31   22 1    
    33   24   23 2    
    34   38   23 1    
    35   25   24 1    
    36   26   25 ar   
    37   31   25 ar   
    38   27   26 1    
    39   28   26 ar   
    40   39   27 1    
    41   40   27 1    
    42   29   28 ar   
    43   30   29 ar   
    44   41   29 1    
    45   31   30 ar   
@<TRIPOS>SUBSTRUCTURE
     1 ATP401      1 GROUP   
@<TRIPOS>SET

