#    Name: 1mbz_IOT_2_INTS_M
#    Modification time : Tue Mar 25 11:33:10 2014

@<TRIPOS>MOLECULE
1mbz_IOT_2_INTS_M
   91     0    18     0     0
SMALL
NO_CHARGES


@<TRIPOS>ATOM
      1 NZ        -44.8385  100.7835   37.1700 N.4       4 LYC4        0.0000 
      2 NZ        -43.9950  100.9840   36.1180 N.4      16 LYL4        0.0000 
      3 NZ        -45.6820  100.5830   38.2220 N.4      10 LYP4        0.0000 
      4 Zn        -43.6895  101.4575   36.7915 Zn        5 ZIC7        0.0000 
      5 Zn        -43.9950  100.9840   36.1180 Zn       17 ZIL7        0.0000 
      6 Zn        -43.3840  101.9310   37.4650 Zn       11 ZIP7        0.0000 
      7 NZ        -45.9180  100.8945   36.4145 N.4       4 LYC4        0.0000 
      8 NZ        -46.1540  101.2060   34.6070 N.4      16 LYL4        0.0000 
      9 Zn        -47.1360  102.1485   34.8105 Zn        5 ZIC7        0.0000 
     10 Zn        -46.1540  101.2060   34.6070 Zn       17 ZIL7        0.0000 
     11 Zn        -48.1180  103.0910   35.0140 Zn       11 ZIP7        0.0000 
     12 CA        -40.4950  103.3670   32.9535 C.3       6 GLC5        0.0000 
     13 CA        -42.3570  102.6440   32.4510 C.3      18 GLL5        0.0000 
     14 CA        -38.6330  104.0900   33.4560 C.3      12 GLP5        0.0000 
     15 N         -40.0420  103.8720   31.2830 N.am      2 SEC2        0.0000 
     16 N         -41.5220  103.8530   30.5400 N.am     14 SEL2        0.0000 
     17 N         -38.5620  103.8910   32.0260 N.am      8 SEP2        0.0000 
     18 O         -41.5800  104.8380   29.6485 O.2       1 ALC1        0.0000 
     19 O         -41.5220  103.8530   30.5400 O.2      13 ALL1        0.0000 
     20 O         -41.6380  105.8230   28.7570 O.2       7 ALP1        0.0000 
     21 CA        -47.7355  102.3055   26.2800 C.3       6 GLC5        0.0000 
     22 CA        -47.2620  103.1920   27.8180 C.3      18 GLL5        0.0000 
     23 CA        -48.2090  101.4190   24.7420 C.3      12 GLP5        0.0000 
     24 O         -49.3700  103.2405   26.7325 O.2       1 ALC1        0.0000 
     25 O         -48.4880  103.0640   27.7770 O.2      13 ALL1        0.0000 
     26 O         -50.2520  103.4170   25.6880 O.2       7 ALP1        0.0000 
     27 N         -47.3660  104.3260   25.5890 N.am      2 SEC2        0.0000 
     28 N         -46.5410  104.0020   26.8690 N.am     14 SEL2        0.0000 
     29 N         -48.1910  104.6500   24.3090 N.am      8 SEP2        0.0000 
     30 CA        -43.2345  104.1760   26.6485 C.3       6 GLC5        0.0000 
     31 CA        -45.1150  104.2210   26.8290 C.3      18 GLL5        0.0000 
     32 CA        -41.3540  104.1310   26.4680 C.3      12 GLP5        0.0000 
     33 CA        -44.3265  106.0430   27.6990 C.3       6 GLC5        0.0000 
     34 CA        -43.5380  107.8650   28.5690 C.3      12 GLP5        0.0000 
     35 CA        -46.0900  105.5055   25.6475 C.3       6 GLC5        0.0000 
     36 CA        -47.0650  106.7900   24.4660 C.3      12 GLP5        0.0000 
     37 CA        -44.7880  103.3865   25.3430 C.3       6 GLC5        0.0000 
     38 CA        -44.4610  102.5520   23.8570 C.3      12 GLP5        0.0000 
     39 CA        -43.1535  103.4685   27.6110 C.3       6 GLC5        0.0000 
     40 CA        -44.9530  102.8060   28.7540 C.3      18 GLL5        0.0000 
     41 CA        -45.7290   94.9810   34.9300 C.3       6 GLC5        0.0000 
     42 CA        -44.9570   96.6690   35.5260 C.3      18 GLL5        0.0000 
     43 CA        -46.5010   93.2930   34.3340 C.3      12 GLP5        0.0000 
     44 CA        -45.7880   96.4225   37.3645 C.3       6 GLC5        0.0000 
     45 CA        -46.6190   96.1760   39.2030 C.3      12 GLP5        0.0000 
     46 N         -46.1370   99.2790   37.2360 N.am      2 SEC2        0.0000 
     47 N         -46.5920   97.9750   36.2500 N.am     14 SEL2        0.0000 
     48 N         -45.6820  100.5830   38.2220 N.am      8 SEP2        0.0000 
     49 CA        -41.6495   96.0955   35.2775 C.3       6 GLC5        0.0000 
     50 CA        -42.6380   96.6480   37.1170 C.3      18 GLL5        0.0000 
     51 CA        -40.6610   95.5430   33.4380 C.3      12 GLP5        0.0000 
     52 CA        -42.4325   97.9465   38.8670 C.3       6 GLC5        0.0000 
     53 CA        -42.2270   99.2450   40.6170 C.3      12 GLP5        0.0000 
     54 CA        -40.7645   95.5135   35.7680 C.3       6 GLC5        0.0000 
     55 CA        -42.0150   95.2390   37.3550 C.3      18 GLL5        0.0000 
     56 CA        -39.5140   95.7880   34.1810 C.3      12 GLP5        0.0000 
     57 CA        -40.3935   95.4320   38.7230 C.3       6 GLC5        0.0000 
     58 CA        -38.7720   95.6250   40.0910 C.3      12 GLP5        0.0000 
     59 CA        -44.7455   95.2360   38.6890 C.3       6 GLC5        0.0000 
     60 CA        -42.8720   94.2960   38.1750 C.3      18 GLL5        0.0000 
     61 CA        -42.1470   91.4180   36.8140 C.3       6 GLC5        0.0000 
     62 CA        -42.2080   92.9640   38.3160 C.3      18 GLL5        0.0000 
     63 CA        -42.0860   89.8720   35.3120 C.3      12 GLP5        0.0000 
     64 OD1       -38.7865   91.5205   37.7610 O.co2     3 ASC3        0.0000 
     65 OD1       -40.3950   91.9460   39.6570 O.co2    15 ASL3        0.0000 
     66 OD1       -38.1970   91.7500   36.4360 O.co2     9 ASP3        0.0000 
     67 O         -38.7865   91.5205   37.7610 O.2       1 ALC1        0.0000 
     68 O         -39.3760   91.2910   39.0860 O.2      13 ALL1        0.0000 
     69 O         -38.1970   91.7500   36.4360 O.2       7 ALP1        0.0000 
     70 O         -40.6160   90.0690   41.2980 O.2       1 ALC1        0.0000 
     71 O         -40.8460   91.5460   40.8260 O.2      13 ALL1        0.0000 
     72 O         -40.3860   88.5920   41.7700 O.2       7 ALP1        0.0000 
     73 N         -39.8865   98.8445   36.2205 N.am      2 SEC2        0.0000 
     74 N         -41.2920   98.4820   36.3190 N.am     14 SEL2        0.0000 
     75 N         -38.4810   99.2070   36.1220 N.am      8 SEP2        0.0000 
     76 N         -40.4920   99.0790   39.3480 N.am      2 SEC2        0.0000 
     77 N         -40.9250   97.7710   38.3690 N.am     14 SEL2        0.0000 
     78 N         -40.0590  100.3870   40.3270 N.am      8 SEP2        0.0000 
     79 CA        -41.5875   99.1863   32.5175 C.3       6 GLC5        0.0000 
     80 CA        -43.1720  100.2800   33.0230 C.3      18 GLL5        0.0000 
     81 CA        -40.4560   97.6800   32.3730 C.3      12 GLP5        0.0000 
     82 CA        -42.2155  104.8358   31.9162 C.3       6 GLC5        0.0000 
     83 CA        -41.9110  106.7860   32.0720 C.3      12 GLP5        0.0000 
     84 CA        -41.5540  103.0893   29.0078 C.3       6 GLC5        0.0000 
     85 CA        -42.6830  103.1270   31.0700 C.3      18 GLL5        0.0000 
     86 CA        -40.2810  103.6200   27.3970 C.3      12 GLP5        0.0000 
     87 CA        -46.2395  104.1683   29.8574 C.3       6 GLC5        0.0000 
     88 CA        -46.3800  102.5500   28.8410 C.3      18 GLL5        0.0000 
     89 CA        -46.5920  105.4980   31.1730 C.3      12 GLP5        0.0000 
     90 CA        -43.5904   92.9589   37.1197 C.3       6 GLC5        0.0000 
     91 CA        -44.8550   92.0520   36.1990 C.3      12 GLP5        0.0000 
@<TRIPOS>BOND
@<TRIPOS>SUBSTRUCTURE
     1 ALC1       18 GROUP        1 X    ALC  0     ROOT ALC X 1
     2 SEC2       15 GROUP        1 X    SEC  0     **** SEC X 2
     3 ASC3       64 GROUP        1 X    ASC  0     **** ASC X 3
     4 LYC4        1 GROUP        1 X    LYC  0     **** LYC X 4
     5 ZIC7        4 GROUP        1 X    ZIC  0     **** ZIC X 5
     6 GLC5       12 GROUP        1 X    GLC  0     **** GLC X 6
     7 ALP1       20 GROUP        1 Y    ALP  0     ROOT ALP Y 8
     8 SEP2       17 GROUP        1 Y    SEP  0     **** SEP Y 9
     9 ASP3       66 GROUP        1 Y    ASP  0     **** ASP Y 10
    10 LYP4        3 GROUP        1 Y    LYP  0     **** LYP Y 11
    11 ZIP7        6 GROUP        1 Y    ZIP  0     **** ZIP Y 12
    12 GLP5       14 GROUP        1 Y    GLP  0     **** GLP Y 13
    13 ALL1       19 GROUP        1 Z    ALL  0     ROOT ALL Z 15
    14 SEL2       16 GROUP        1 Z    SEL  0     **** SEL Z 16
    15 ASL3       65 GROUP        1 Z    ASL  0     **** ASL Z 17
    16 LYL4        2 GROUP        1 Z    LYL  0     **** LYL Z 18
    17 ZIL7        5 GROUP        1 Z    ZIL  0     **** ZIL Z 19
    18 GLL5       13 GROUP        1 Z    GLL  0     **** GLL Z 20
@<TRIPOS>SET

