#    Name: 1mbz_IOT_2_ligand
#    Modification time : Tue Mar 25 11:33:10 2014

@<TRIPOS>MOLECULE
1mbz_IOT_2_ligand
   64    66     1     0     0
SMALL
NO_CHARGES


@<TRIPOS>ATOM
      1 PA        -44.8260  100.4580   34.9450 P.3       1 IOT603      0.0000 
      2 O1A       -43.9950  100.9840   36.1180 O.co2     1 IOT603      0.0000 
      3 O2A       -46.1540  101.2060   34.6070 O.co2     1 IOT603      0.0000 
      4 O5'       -44.5820  100.4110   33.5300 O.3       1 IOT603      0.0000 
      5 C5'       -43.1720  100.2800   33.0230 C.3       1 IOT603      0.0000 
      6 C4'       -42.2660  101.1050   32.3010 C.3       1 IOT603      0.0000 
      7 O4'       -42.6790  100.8170   30.9250 O.3       1 IOT603      0.0000 
      8 C3'       -42.3570  102.6440   32.4510 C.3       1 IOT603      0.0000 
      9 O3'       -41.3360  103.3220   33.0820 O.3       1 IOT603      0.0000 
     10 C2'       -42.6830  103.1270   31.0700 C.3       1 IOT603      0.0000 
     11 O2'       -41.5220  103.8530   30.5400 O.3       1 IOT603      0.0000 
     12 C1'       -42.9710  101.9900   30.1670 C.3       1 IOT603      0.0000 
     13 N9        -44.3500  102.0710   29.8220 N.pl3     1 IOT603      0.0000 
     14 C8        -45.4740  101.4620   30.4520 C.2       1 IOT603      0.0000 
     15 N7        -46.6500  101.7110   29.9120 N.2       1 IOT603      0.0000 
     16 C5        -46.3800  102.5500   28.8410 C.ar      1 IOT603      0.0000 
     17 C6        -47.2620  103.1920   27.8180 C.ar      1 IOT603      0.0000 
     18 N6        -48.4880  103.0640   27.7770 N.pl3     1 IOT603      0.0000 
     19 N1        -46.5410  104.0020   26.8690 N.ar      1 IOT603      0.0000 
     20 C2        -45.1150  104.2210   26.8290 C.ar      1 IOT603      0.0000 
     21 N3        -44.2950  103.6300   27.7590 N.ar      1 IOT603      0.0000 
     22 C4        -44.9530  102.8060   28.7540 C.ar      1 IOT603      0.0000 
     23 CX        -44.9570   96.6690   35.5260 C.3       1 IOT603      0.0000 
     24 CW        -45.4100   97.7170   35.4570 C.2       1 IOT603      0.0000 
     25 OX1       -46.5920   97.9750   36.2500 O.2       1 IOT603      0.0000 
     26 OX2       -44.8440   98.9660   34.9740 O.3       1 IOT603      0.0000 
     27 NX        -43.2520   96.7380   35.7420 N.4       1 IOT603      0.0000 
     28 CA        -42.6380   96.6480   37.1170 C.3       1 IOT603      0.0000 
     29 CB        -42.0150   95.2390   37.3550 C.3       1 IOT603      0.0000 
     30 CG        -42.8720   94.2960   38.1750 C.3       1 IOT603      0.0000 
     31 CD        -42.2080   92.9640   38.3160 C.3       1 IOT603      0.0000 
     32 NE        -40.9930   93.0040   39.0880 N.pl3     1 IOT603      0.0000 
     33 CZ        -40.3950   91.9460   39.6570 C.cat     1 IOT603      0.0000 
     34 NH1       -39.3760   91.2910   39.0860 N.pl3     1 IOT603      0.0000 
     35 NH2       -40.8460   91.5460   40.8260 N.pl3     1 IOT603      0.0000 
     36 C         -41.5360   97.7110   37.2830 C.2       1 IOT603      0.0000 
     37 O         -41.2920   98.4820   36.3190 O.co2     1 IOT603      0.0000 
     38 OX3       -40.9250   97.7710   38.3690 O.co2     1 IOT603      0.0000 
     39 H         -43.1657   99.1895   32.4663 H         1 IOT603      0.0000 
     40 H         -42.5556   99.8542   33.9914 H         1 IOT603      0.0000 
     41 H         -41.2532  100.7928   32.4046 H         1 IOT603      0.0000 
     42 H         -43.3471  102.7863   33.0185 H         1 IOT603      0.0000 
     43 H         -43.5302  103.7829   31.1128 H         1 IOT603      0.0000 
     44 H         -42.3405  102.0699   29.3136 H         1 IOT603      0.0000 
     45 H         -45.3227  100.8810   31.2643 H         1 IOT603      0.0000 
     46 H         -48.9527  103.5189   27.0173 H         1 IOT603      0.0000 
     47 H         -48.8981  102.5178   28.5074 H         1 IOT603      0.0000 
     48 H         -44.7418  104.8263   26.0901 H         1 IOT603      0.0000 
     49 H         -44.9827   95.9570   34.6373 H         1 IOT603      0.0000 
     50 H         -45.2061   95.9761   36.3951 H         1 IOT603      0.0000 
     51 H         -43.3865   96.8124   37.8676 H         1 IOT603      0.0000 
     52 H         -41.0388   95.3790   37.8515 H         1 IOT603      0.0000 
     53 H         -41.8080   94.7884   36.3685 H         1 IOT603      0.0000 
     54 H         -43.8419   94.1774   37.6842 H         1 IOT603      0.0000 
     55 H         -43.0395   94.7339   39.1629 H         1 IOT603      0.0000 
     56 H         -42.0084   92.5630   37.2958 H         1 IOT603      0.0000 
     57 H         -42.9372   92.2564   38.7734 H         1 IOT603      0.0000 
     58 H         -40.5608   93.9753   39.1947 H         1 IOT603      0.0000 
     59 H         -39.0605   91.6485   38.2070 H         1 IOT603      0.0000 
     60 H         -39.0219   90.5031   39.5898 H         1 IOT603      0.0000 
     61 H         -41.6353   92.0430   41.1866 H         1 IOT603      0.0000 
     62 H         -40.3585   90.7814   41.2475 H         1 IOT603      0.0000 
     63 H         -40.9380  103.9066   32.3750 H         1 IOT603      0.0000 
     64 H         -41.8595  104.7740   30.3456 H         1 IOT603      0.0000 
@<TRIPOS>BOND
     1    2    1 ar   
     2    3    1 ar   
     3    4    1 1    
     4   26    1 1    
     5    5    4 1    
     6    6    5 1    
     7   39    5 1    
     8   40    5 1    
     9    7    6 1    
    10    8    6 1    
    11   41    6 1    
    12   12    7 1    
    13    9    8 1    
    14   10    8 1    
    15   42    8 1    
    16   63    9 1    
    17   11   10 1    
    18   12   10 1    
    19   43   10 1    
    20   64   11 1    
    21   13   12 1    
    22   44   12 1    
    23   14   13 1    
    24   22   13 1    
    25   15   14 2    
    26   45   14 1    
    27   16   15 1    
    28   17   16 ar   
    29   22   16 ar   
    30   18   17 1    
    31   19   17 ar   
    32   46   18 1    
    33   47   18 1    
    34   20   19 ar   
    35   21   20 ar   
    36   48   20 1    
    37   22   21 ar   
    38   24   23 1    
    39   27   23 1    
    40   49   23 1    
    41   50   23 1    
    42   25   24 2    
    43   26   24 1    
    44   28   27 1    
    45   29   28 1    
    46   36   28 1    
    47   51   28 1    
    48   30   29 1    
    49   52   29 1    
    50   53   29 1    
    51   31   30 1    
    52   54   30 1    
    53   55   30 1    
    54   32   31 1    
    55   56   31 1    
    56   57   31 1    
    57   33   32 ar   
    58   58   32 1    
    59   34   33 ar   
    60   35   33 ar   
    61   59   34 1    
    62   60   34 1    
    63   61   35 1    
    64   62   35 1    
    65   37   36 ar   
    66   38   36 ar   
@<TRIPOS>SUBSTRUCTURE
     1 IOT603      1 GROUP   
@<TRIPOS>SET

