#    Name: 4j04_1JF_1_INTS_M
#    Modification time : Tue Mar 25 04:57:31 2014

@<TRIPOS>MOLECULE
4j04_1JF_1_INTS_M
   52     0     6     0     0
SMALL
NO_CHARGES


@<TRIPOS>ATOM
      1 CA        -27.6245   52.9390   53.2685 C.3       2 GLC5        0.0000 
      2 CA        -28.4490   51.4270   54.3270 C.3       6 GLL5        0.0000 
      3 CA        -26.8000   54.4510   52.2100 C.3       4 GLP5        0.0000 
      4 CA        -26.6240   56.2570   54.9485 C.3       2 GLC5        0.0000 
      5 CA        -25.9790   56.6230   56.7050 C.3       6 GLL5        0.0000 
      6 CA        -27.2690   55.8910   53.1920 C.3       4 GLP5        0.0000 
      7 CA        -25.6830   58.4045   56.3450 C.3       2 GLC5        0.0000 
      8 CA        -25.3870   60.1860   55.9850 C.3       4 GLP5        0.0000 
      9 CA        -27.7465   57.4395   56.2545 C.3       2 GLC5        0.0000 
     10 CA        -29.5140   58.2560   55.8040 C.3       4 GLP5        0.0000 
     11 CA        -20.2025   52.9580   54.0990 C.3       2 GLC5        0.0000 
     12 CA        -21.5790   54.2180   54.8620 C.3       6 GLL5        0.0000 
     13 CA        -18.8260   51.6980   53.3360 C.3       4 GLP5        0.0000 
     14 CA        -23.0870   51.3665   52.7205 C.3       2 GLC5        0.0000 
     15 CA        -23.2310   51.2940   54.6910 C.3       6 GLL5        0.0000 
     16 CA        -22.9430   51.4390   50.7500 C.3       4 GLP5        0.0000 
     17 CA        -21.6635   50.1805   54.5435 C.3       2 GLC5        0.0000 
     18 CA        -20.0960   49.0670   54.3960 C.3       4 GLP5        0.0000 
     19 NZ        -31.9230   49.5775   58.1495 N.4       1 LYC4        0.0000 
     20 NZ        -30.1470   49.1900   58.1280 N.4       5 LYL4        0.0000 
     21 NZ        -33.6990   49.9650   58.1710 N.4       3 LYP4        0.0000 
     22 CA        -27.1665   51.2315   51.5200 C.3       2 GLC5        0.0000 
     23 CA        -28.9590   50.9900   51.6790 C.3       6 GLL5        0.0000 
     24 CA        -25.3740   51.4730   51.3610 C.3       4 GLP5        0.0000 
     25 CA        -29.8915   51.2305   49.8580 C.3       2 GLC5        0.0000 
     26 CA        -30.8240   51.4710   48.0370 C.3       4 GLP5        0.0000 
     27 CA        -27.6345   49.3090   51.7045 C.3       2 GLC5        0.0000 
     28 CA        -26.3100   47.6280   51.7300 C.3       4 GLP5        0.0000 
     29 CA        -30.8665   51.4205   52.1455 C.3       2 GLC5        0.0000 
     30 CA        -32.7740   51.8510   52.6120 C.3       4 GLP5        0.0000 
     31 CA        -24.2355   56.2475   54.3533 C.3       2 GLC5        0.0000 
     32 CA        -25.3090   55.1210   56.1690 C.3       6 GLL5        0.0000 
     33 CA        -23.8500   57.3420   52.7340 C.3       4 GLP5        0.0000 
     34 CA        -26.0324   55.3656   54.5733 C.3       2 GLC5        0.0000 
     35 CA        -23.9330   55.1850   55.7760 C.3       6 GLL5        0.0000 
     36 CA        -22.5288   54.7572   53.3960 C.3       2 GLC5        0.0000 
     37 CA        -23.2440   54.0250   55.3100 C.3       6 GLL5        0.0000 
     38 CA        -22.6460   55.3930   51.7060 C.3       4 GLP5        0.0000 
     39 CA        -24.9990   52.1075   53.3960 C.3       2 GLC5        0.0000 
     40 CA        -23.9440   52.7740   55.2360 C.3       6 GLL5        0.0000 
     41 CA        -25.7120   53.5965   53.8205 C.3       2 GLC5        0.0000 
     42 CA        -28.8522   47.4205   55.9510 C.3       2 GLC5        0.0000 
     43 CA        -29.0500   49.7890   56.0880 C.3       6 GLL5        0.0000 
     44 CA        -28.3930   45.4830   56.3200 C.3       4 GLP5        0.0000 
     45 CA        -30.9742   50.0640   54.6185 C.3       2 GLC5        0.0000 
     46 CA        -29.5730   48.9270   55.0760 C.3       6 GLL5        0.0000 
     47 CA        -32.6370   50.7700   53.6550 C.3       4 GLP5        0.0000 
     48 CA        -27.0445   51.2302   52.5970 C.3       2 GLC5        0.0000 
     49 CA        -28.9810   50.5480   53.3390 C.3       6 GLL5        0.0000 
     50 CA        -28.5870   52.5585   51.7910 C.3       2 GLC5        0.0000 
     51 CA        -28.2040   54.3480   51.0730 C.3       4 GLP5        0.0000 
     52 CA        -30.7456   50.7234   53.7905 C.3       2 GLC5        0.0000 
@<TRIPOS>BOND
@<TRIPOS>SUBSTRUCTURE
     1 LYC4       19 GROUP        1 X    LYC  0     ROOT LYC X 4
     2 GLC5        1 GROUP        1 X    GLC  0     **** GLC X 6
     3 LYP4       21 GROUP        1 Y    LYP  0     ROOT LYP Y 11
     4 GLP5        3 GROUP        1 Y    GLP  0     **** GLP Y 13
     5 LYL4       20 GROUP        1 Z    LYL  0     ROOT LYL Z 18
     6 GLL5        2 GROUP        1 Z    GLL  0     **** GLL Z 20
@<TRIPOS>SET

