#    Name: 4j04_1JF_1_ligand
#    Modification time : Tue Mar 25 04:57:31 2014

@<TRIPOS>MOLECULE
4j04_1JF_1_ligand
   29    30     1     0     0
SMALL
NO_CHARGES


@<TRIPOS>ATOM
      1 C1        -26.0080   53.8700   56.0970 C.ar      1 1JF601      0.0000 
      2 C2        -25.3090   55.1210   56.1690 C.ar      1 1JF601      0.0000 
      3 C3        -23.9330   55.1850   55.7760 C.ar      1 1JF601      0.0000 
      4 C4        -23.2440   54.0250   55.3100 C.ar      1 1JF601      0.0000 
      5 C5        -23.9440   52.7740   55.2360 C.ar      1 1JF601      0.0000 
      6 C6        -25.3040   52.7100   55.6260 C.ar      1 1JF601      0.0000 
      7 S7        -27.7210   53.6340   56.5550 S.o2      1 1JF601      0.0000 
      8 O8        -28.6090   54.2030   55.5630 O.2       1 1JF601      0.0000 
      9 O9        -27.8370   54.1940   57.8990 O.2       1 1JF601      0.0000 
     10 N10       -27.9270   51.9540   56.7200 N.pl3     1 1JF601      0.0000 
     11 C11       -28.4780   51.0540   55.7190 C.ar      1 1JF601      0.0000 
     12 C12       -29.0500   49.7890   56.0880 C.ar      1 1JF601      0.0000 
     13 C13       -29.5730   48.9270   55.0760 C.ar      1 1JF601      0.0000 
     14 C14       -29.5380   49.3050   53.7110 C.ar      1 1JF601      0.0000 
     15 C15       -28.9810   50.5480   53.3390 C.ar      1 1JF601      0.0000 
     16 C16       -28.4490   51.4270   54.3270 C.ar      1 1JF601      0.0000 
     17 CL1       -25.9790   56.6230   56.7050 Cl        1 1JF601      0.0000 
     18 CL2       -21.5790   54.2180   54.8620 Cl        1 1JF601      0.0000 
     19 CL3       -23.2310   51.2940   54.6910 Cl        1 1JF601      0.0000 
     20 C20       -29.1180   49.3490   57.4860 C.2       1 1JF601      0.0000 
     21 O21       -30.1470   49.1900   58.1280 O.co2     1 1JF601      0.0000 
     22 O22       -27.8940   49.1340   58.0010 O.co2     1 1JF601      0.0000 
     23 CL4       -28.9590   50.9900   51.6790 Cl        1 1JF601      0.0000 
     24 H         -23.4374   56.0786   55.8311 H         1 1JF601      0.0000 
     25 H         -25.8074   51.8150   55.5738 H         1 1JF601      0.0000 
     26 H         -27.6080   51.6358   57.6363 H         1 1JF601      0.0000 
     27 H         -29.9770   48.0260   55.3456 H         1 1JF601      0.0000 
     28 H         -29.9150   48.6789   53.0000 H         1 1JF601      0.0000 
     29 H         -28.0473   52.3192   54.0568 H         1 1JF601      0.0000 
@<TRIPOS>BOND
     1    2    1 ar   
     2    6    1 ar   
     3    7    1 1    
     4    3    2 ar   
     5   17    2 1    
     6    4    3 ar   
     7   24    3 1    
     8    5    4 ar   
     9   18    4 1    
    10    6    5 ar   
    11   19    5 1    
    12   25    6 1    
    13    8    7 2    
    14    9    7 2    
    15   10    7 1    
    16   11   10 1    
    17   26   10 1    
    18   12   11 ar   
    19   16   11 ar   
    20   13   12 ar   
    21   20   12 1    
    22   14   13 ar   
    23   27   13 1    
    24   15   14 ar   
    25   28   14 1    
    26   16   15 ar   
    27   23   15 1    
    28   29   16 1    
    29   21   20 ar   
    30   22   20 ar   
@<TRIPOS>SUBSTRUCTURE
     1 1JF601      1 GROUP   
@<TRIPOS>SET

