#    Name: 1UMB_2_CAVITY_N1_6.mol2
#    Modification time : Tue Mar 11 13:42:35 2014

@<TRIPOS>MOLECULE
1UMB_2_CAVITY_N1_6.mol2
   63     0     6     0     0
SMALL
NO_CHARGES


@<TRIPOS>ATOM
      1 N          29.9126   46.3976   88.9229 N.2       2 ALA2        0.0000 
      2 CZ         33.1325   46.1399   81.9899 C.ar      4 PHE5        0.0000 
      3 CZ         32.2465   46.1878   83.1993 C.ar      4 PHE5        0.0000 
      4 CZ         31.3604   46.2358   84.4087 C.ar      4 PHE5        0.0000 
      5 OG         29.5884   46.3316   86.8275 O.2       1 SER1        0.0000 
      6 OG         28.7023   46.3795   88.0369 O.2       1 SER1        0.0000 
      7 N          28.3781   46.3135   85.9416 N.2       2 ALA2        0.0000 
      8 OG         27.4921   46.3614   87.1510 O.2       1 SER1        0.0000 
      9 CZ         35.3429   49.3544   89.0632 C.ar      4 PHE5        0.0000 
     10 CZ         34.1326   49.3363   88.1772 C.ar      4 PHE5        0.0000 
     11 N          33.2466   49.3842   89.3866 N.2       2 ALA2        0.0000 
     12 N          32.3606   49.4321   90.5960 N.2       2 ALA2        0.0000 
     13 N          32.9224   49.3181   87.2913 N.2       2 ALA2        0.0000 
     14 N          32.0363   49.3661   88.5007 N.2       2 ALA2        0.0000 
     15 CZ         31.1503   49.4140   89.7101 C.ar      4 PHE5        0.0000 
     16 NZ         34.3702   49.1563   82.7771 N.2       3 LYS4        0.0000 
     17 N          33.4841   49.2042   83.9865 N.2       2 ALA2        0.0000 
     18 N          32.5981   49.2521   85.1959 N.2       2 ALA2        0.0000 
     19 DU         31.7121   49.3000   86.4053 H         6 CUB7        0.0000 
     20 N          30.8261   49.3480   87.6147 N.2       2 ALA2        0.0000 
     21 CZ         29.9400   49.3959   88.8241 C.ar      4 PHE5        0.0000 
     22 CA         33.1599   49.1382   81.8912 C.3       5 GLY6        0.0000 
     23 CA         32.2739   49.1861   83.1006 C.3       5 GLY6        0.0000 
     24 CA         31.3878   49.2340   84.3100 C.3       5 GLY6        0.0000 
     25 CZ         30.5018   49.2819   85.5194 C.ar      4 PHE5        0.0000 
     26 CZ         29.6158   49.3299   86.7288 C.ar      4 PHE5        0.0000 
     27 CZ         28.7298   49.3778   87.9382 C.ar      4 PHE5        0.0000 
     28 CZ         27.5195   49.3597   87.0522 C.ar      4 PHE5        0.0000 
     29 N          33.7947   47.7711   86.1312 N.2       2 ALA2        0.0000 
     30 NZ         34.3565   47.6572   82.8265 N.2       3 LYS4        0.0000 
     31 CZ         33.4704   47.7051   84.0359 C.ar      4 PHE5        0.0000 
     32 CZ         32.5844   47.7530   85.2453 C.ar      4 PHE5        0.0000 
     33 OG         31.6984   47.8009   86.4547 O.2       1 SER1        0.0000 
     34 N          30.8123   47.8488   87.6641 N.2       2 ALA2        0.0000 
     35 N          29.9263   47.8968   88.8735 N.2       2 ALA2        0.0000 
     36 CA         33.1462   47.6390   81.9405 C.3       5 GLY6        0.0000 
     37 CA         32.2602   47.6870   83.1499 C.3       5 GLY6        0.0000 
     38 OG         31.3741   47.7349   84.3593 O.2       1 SER1        0.0000 
     39 OG         30.4881   47.7828   85.5687 O.2       1 SER1        0.0000 
     40 OG         29.6021   47.8307   86.7781 O.2       1 SER1        0.0000 
     41 DU         28.7160   47.8787   87.9875 H         6 CUB7        0.0000 
     42 CA         30.1639   47.7168   83.4734 C.3       5 GLY6        0.0000 
     43 N          29.2778   47.7647   84.6828 N.2       2 ALA2        0.0000 
     44 CZ         28.3918   47.8126   85.8922 C.ar      4 PHE5        0.0000 
     45 CZ         27.5058   47.8606   87.1016 C.ar      4 PHE5        0.0000 
     46 CA         35.3566   50.8535   89.0138 C.3       5 GLY6        0.0000 
     47 CA         34.1463   50.8354   88.1279 C.3       5 GLY6        0.0000 
     48 DU         33.2603   50.8833   89.3373 H         6 CUB7        0.0000 
     49 CA         32.9361   50.8173   87.2419 C.3       5 GLY6        0.0000 
     50 N          32.0500   50.8652   88.4513 N.2       2 ALA2        0.0000 
     51 CZ         31.1640   50.9131   89.6607 C.ar      4 PHE5        0.0000 
     52 CA         33.4979   50.7033   83.9372 C.3       5 GLY6        0.0000 
     53 CA         32.6118   50.7512   85.1466 C.3       5 GLY6        0.0000 
     54 N          31.7258   50.7992   86.3560 N.2       2 ALA2        0.0000 
     55 N          30.8398   50.8471   87.5654 N.2       2 ALA2        0.0000 
     56 CZ         29.9537   50.8950   88.7748 C.ar      4 PHE5        0.0000 
     57 CA         32.2876   50.6852   83.0512 C.3       5 GLY6        0.0000 
     58 N          31.4016   50.7331   84.2606 N.2       2 ALA2        0.0000 
     59 N          30.5155   50.7811   85.4700 N.2       2 ALA2        0.0000 
     60 N          29.6295   50.8290   86.6794 N.2       2 ALA2        0.0000 
     61 CA         34.1600   52.3345   88.0785 C.3       5 GLY6        0.0000 
     62 CA         33.2740   52.3824   89.2879 C.3       5 GLY6        0.0000 
     63 CA         32.3013   52.1843   83.0019 C.3       5 GLY6        0.0000 
@<TRIPOS>BOND
@<TRIPOS>SUBSTRUCTURE
     1 SER1        5 GROUP   
     2 ALA2        1 GROUP   
     3 LYS4       16 GROUP   
     4 PHE5        2 GROUP   
     5 GLY6       22 GROUP   
     6 CUB7       19 GROUP   
@<TRIPOS>SET

