#    Name: 1umb_TDP_2_INTS_M
#    Modification time : Tue Mar 25 06:42:43 2014

@<TRIPOS>MOLECULE
1umb_TDP_2_INTS_M
   82     0    15     0     0
SMALL
NO_CHARGES


@<TRIPOS>ATOM
      1 CA         33.5475   47.0435   79.9740 C.3       5 GLC5        0.0000 
      2 CA         33.2300   45.3650   81.2020 C.3      15 GLL5        0.0000 
      3 CA         33.8650   48.7220   78.7460 C.3      10 GLP5        0.0000 
      4 CA         34.3665   44.1315   81.9655 C.3       5 GLC5        0.0000 
      5 CA         35.5030   42.8980   82.7290 C.3      10 GLP5        0.0000 
      6 CA         33.1170   43.5770   81.8650 C.3       5 GLC5        0.0000 
      7 CA         33.0910   44.3520   80.1030 C.3      15 GLL5        0.0000 
      8 CA         33.1430   42.8020   83.6270 C.3      10 GLP5        0.0000 
      9 CA         33.3750   42.8065   78.9935 C.3       5 GLC5        0.0000 
     10 CA         33.6590   41.2610   77.8840 C.3      10 GLP5        0.0000 
     11 N          30.8760   45.4445   81.2770 N.am      2 SEC2        0.0000 
     12 N          32.1940   45.5360   82.0240 N.am     12 SEL2        0.0000 
     13 N          29.5580   45.3530   80.5300 N.am      7 SEP2        0.0000 
     14 CA         30.8950   44.8655   82.4030 C.3       5 GLC5        0.0000 
     15 CA         32.2690   46.4620   83.0640 C.3      15 GLL5        0.0000 
     16 CA         29.5210   43.2690   81.7420 C.3      10 GLP5        0.0000 
     17 O          29.9260   45.8700   83.6100 O.2       1 ALC1        0.0000 
     18 O          31.1860   46.5590   83.8300 O.2      11 ALL1        0.0000 
     19 O          28.6660   45.1810   83.3900 O.2       6 ALP1        0.0000 
     20 CA         34.1715   47.8685   80.5630 C.3       5 GLC5        0.0000 
     21 CA         34.4780   47.0150   82.3800 C.3      15 GLL5        0.0000 
     22 CA         34.9905   44.9565   82.5545 C.3       5 GLC5        0.0000 
     23 CA         33.6530   46.4725   84.9955 C.3       5 GLC5        0.0000 
     24 CA         33.6000   48.2760   84.3850 C.3      15 GLL5        0.0000 
     25 CA         33.7060   44.6690   85.6060 C.3      10 GLP5        0.0000 
     26 CA         31.6240   49.4015   81.9680 C.3       5 GLC5        0.0000 
     27 CA         32.8570   50.5390   83.2140 C.3      15 GLL5        0.0000 
     28 CA         30.3910   48.2640   80.7220 C.3      10 GLP5        0.0000 
     29 Zn         28.8725   56.2950   79.4525 Zn        4 ZIC7        0.0000 
     30 Zn         29.1670   55.3430   79.1590 Zn       14 ZIL7        0.0000 
     31 Zn         28.5780   57.2470   79.7460 Zn        9 ZIP7        0.0000 
     32 N          29.5925   54.9085   77.9025 N.am      2 SEC2        0.0000 
     33 N          29.1670   55.3430   79.1590 N.am     12 SEL2        0.0000 
     34 N          30.0180   54.4740   76.6460 N.am      7 SEP2        0.0000 
     35 N          29.0580   52.3010   77.7145 N.am      2 SEC2        0.0000 
     36 N          28.5640   52.8580   79.0950 N.am     12 SEL2        0.0000 
     37 N          29.5520   51.7440   76.3340 N.am      7 SEP2        0.0000 
     38 NZ         25.7040   55.9400   83.4635 N.4       3 LYC4        0.0000 
     39 NZ         26.0310   55.7420   82.0230 N.4      13 LYL4        0.0000 
     40 NZ         26.2290   56.1870   85.9260 N.4       8 LYP4        0.0000 
     41 N          24.8530   55.2890   81.5690 N.am      2 SEC2        0.0000 
     42 N          26.0310   55.7420   82.0230 N.am     12 SEL2        0.0000 
     43 N          23.6750   54.8360   81.1150 N.am      7 SEP2        0.0000 
     44 N          25.7040   55.9400   83.4635 N.am      2 SEC2        0.0000 
     45 N          25.3770   56.1380   84.9040 N.am      7 SEP2        0.0000 
     46 N          26.2690   57.3300   81.9445 N.am      2 SEC2        0.0000 
     47 N          26.5070   58.9180   81.8660 N.am      7 SEP2        0.0000 
     48 N          26.2575   56.3420   80.7650 N.am      2 SEC2        0.0000 
     49 N          26.4840   56.9420   79.5070 N.am      7 SEP2        0.0000 
     50 NZ         27.7520   55.2400   84.5450 N.4       3 LYC4        0.0000 
     51 NZ         28.0400   54.7570   83.3060 N.4      13 LYL4        0.0000 
     52 N          28.0615   53.4990   83.3945 N.am      2 SEC2        0.0000 
     53 N          28.0400   54.7570   83.3060 N.am     12 SEL2        0.0000 
     54 N          28.0830   52.2410   83.4830 N.am      7 SEP2        0.0000 
     55 N          26.7085   55.4475   84.1050 N.am      2 SEC2        0.0000 
     56 N          27.7520   55.2400   84.5450 N.am      2 SEC2        0.0000 
     57 N          27.4640   55.7230   85.7840 N.am      7 SEP2        0.0000 
     58 Zn         28.4500   56.9205   80.7075 Zn        4 ZIC7        0.0000 
     59 Zn         28.3220   56.5940   81.6690 Zn       14 ZIL7        0.0000 
     60 N          27.4145   57.7560   81.7675 N.am      2 SEC2        0.0000 
     61 N          28.3220   56.5940   81.6690 N.am     12 SEL2        0.0000 
     62 CA         31.3407   44.0637   81.1972 C.3       5 GLC5        0.0000 
     63 CA         31.6872   46.1627   80.0387 C.3       5 GLC5        0.0000 
     64 CA         30.2140   47.4670   79.4250 C.3      10 GLP5        0.0000 
     65 CA         31.6295   47.5598   81.9430 C.3       5 GLC5        0.0000 
     66 CA         30.1120   49.6335   82.8468 C.3       5 GLC5        0.0000 
     67 CA         31.5250   49.5540   84.7400 C.3      15 GLL5        0.0000 
     68 CA         29.1690   49.0550   81.1490 C.3      10 GLP5        0.0000 
     69 CA         32.6660   53.0600   83.8690 C.3       5 GLC5        0.0000 
     70 CA         31.7720   51.4090   83.2340 C.3      15 GLL5        0.0000 
     71 CA         33.6910   54.0900   84.8850 C.3      10 GLP5        0.0000 
     72 CA         33.9532   51.7725   84.1407 C.3       5 GLC5        0.0000 
     73 CA         34.4490   52.9190   85.4970 C.3      10 GLP5        0.0000 
     74 CA         32.9516   50.8758   80.9778 C.3       5 GLC5        0.0000 
     75 CA         34.0580   50.7130   82.3550 C.3      15 GLL5        0.0000 
     76 CA         32.7170   50.9080   79.1660 C.3      10 GLP5        0.0000 
     77 CA         31.8893   51.7343   80.5197 C.3       5 GLC5        0.0000 
     78 CA         31.5100   52.6510   82.4720 C.3      15 GLL5        0.0000 
     79 CA         31.8558   54.3028   81.2777 C.3       5 GLC5        0.0000 
     80 CA         30.6130   52.4700   81.2750 C.3      15 GLL5        0.0000 
     81 CA         32.6500   56.0450   80.6820 C.3      10 GLP5        0.0000 
     82 CA         30.1480   50.6525   81.6065 C.3       5 GLC5        0.0000 
@<TRIPOS>BOND
@<TRIPOS>SUBSTRUCTURE
     1 ALC1       17 GROUP        1 X    ALC  0     ROOT ALC X 1
     2 SEC2       11 GROUP        1 X    SEC  0     **** SEC X 2
     3 LYC4       38 GROUP        1 X    LYC  0     **** LYC X 4
     4 ZIC7       29 GROUP        1 X    ZIC  0     **** ZIC X 5
     5 GLC5        1 GROUP        1 X    GLC  0     **** GLC X 6
     6 ALP1       19 GROUP        1 Y    ALP  0     ROOT ALP Y 8
     7 SEP2       13 GROUP        1 Y    SEP  0     **** SEP Y 9
     8 LYP4       40 GROUP        1 Y    LYP  0     **** LYP Y 11
     9 ZIP7       31 GROUP        1 Y    ZIP  0     **** ZIP Y 12
    10 GLP5        3 GROUP        1 Y    GLP  0     **** GLP Y 13
    11 ALL1       18 GROUP        1 Z    ALL  0     ROOT ALL Z 15
    12 SEL2       12 GROUP        1 Z    SEL  0     **** SEL Z 16
    13 LYL4       39 GROUP        1 Z    LYL  0     **** LYL Z 18
    14 ZIL7       30 GROUP        1 Z    ZIL  0     **** ZIL Z 19
    15 GLL5        2 GROUP        1 Z    GLL  0     **** GLL Z 20
@<TRIPOS>SET

