#    Name: 1umb_TDP_2_ligand
#    Modification time : Tue Mar 25 06:42:43 2014

@<TRIPOS>MOLECULE
1umb_TDP_2_ligand
   42    43     1     0     0
SMALL
NO_CHARGES


@<TRIPOS>ATOM
      1 N1'        34.3980   46.0990   81.3580 N.ar      1 TDP2402     0.0000 
      2 C2'        33.2300   45.3650   81.2020 C.ar      1 TDP2402     0.0000 
      3 C2A        33.0910   44.3520   80.1030 C.3       1 TDP2402     0.0000 
      4 N3'        32.1940   45.5360   82.0240 N.ar      1 TDP2402     0.0000 
      5 C4'        32.2690   46.4620   83.0640 C.ar      1 TDP2402     0.0000 
      6 N4'        31.1860   46.5590   83.8300 N.pl3     1 TDP2402     0.0000 
      7 C5'        33.4670   47.2490   83.2640 C.ar      1 TDP2402     0.0000 
      8 C6'        34.4780   47.0150   82.3800 C.ar      1 TDP2402     0.0000 
      9 C35        33.6000   48.2760   84.3850 C.3       1 TDP2402     0.0000 
     10 N3         32.6810   49.4690   84.0950 N.pl3     1 TDP2402     0.0000 
     11 C2         31.5250   49.5540   84.7400 C.2       1 TDP2402     0.0000 
     12 S1         30.5850   50.8700   84.3490 S.3       1 TDP2402     0.0000 
     13 C5         31.7720   51.4090   83.2340 C.2       1 TDP2402     0.0000 
     14 C4         32.8570   50.5390   83.2140 C.2       1 TDP2402     0.0000 
     15 C4A        34.0580   50.7130   82.3550 C.3       1 TDP2402     0.0000 
     16 C5A        31.5100   52.6510   82.4720 C.3       1 TDP2402     0.0000 
     17 C5B        30.6130   52.4700   81.2750 C.3       1 TDP2402     0.0000 
     18 O5G        30.1430   53.6920   80.7770 O.3       1 TDP2402     0.0000 
     19 P1         28.9220   54.0900   79.8670 P.3       1 TDP2402     0.0000 
     20 O11        27.7960   54.2960   80.9500 O.3       1 TDP2402     0.0000 
     21 O12        29.1670   55.3430   79.1590 O.co2     1 TDP2402     0.0000 
     22 O13        28.5640   52.8580   79.0950 O.co2     1 TDP2402     0.0000 
     23 P2         27.5110   55.3850   82.1070 P.3       1 TDP2402     0.0000 
     24 O21        26.0310   55.7420   82.0230 O.co2     1 TDP2402     0.0000 
     25 O22        28.0400   54.7570   83.3060 O.co2     1 TDP2402     0.0000 
     26 O23        28.3220   56.5940   81.6690 O.co2     1 TDP2402     0.0000 
     27 H          30.3127   46.3623   83.3843 H         1 TDP2402     0.0000 
     28 H          31.3427   46.8199   84.7826 H         1 TDP2402     0.0000 
     29 H          35.3774   47.5674   82.4823 H         1 TDP2402     0.0000 
     30 H          34.6246   48.6205   84.4405 H         1 TDP2402     0.0000 
     31 H          33.3119   47.8244   85.3255 H         1 TDP2402     0.0000 
     32 H          31.1136   48.9842   85.4101 H         1 TDP2402     0.0000 
     33 H          32.4730   53.0892   82.1300 H         1 TDP2402     0.0000 
     34 H          31.0556   53.4120   83.1434 H         1 TDP2402     0.0000 
     35 H          29.7792   51.8004   81.5792 H         1 TDP2402     0.0000 
     36 H          31.1871   51.9054   80.5083 H         1 TDP2402     0.0000 
     37 H          33.1948   44.7677   79.1994 H         1 TDP2402     0.0000 
     38 H          33.7792   43.6300   80.1742 H         1 TDP2402     0.0000 
     39 H          32.1959   43.9065   80.1196 H         1 TDP2402     0.0000 
     40 H          34.8954   50.7828   82.8971 H         1 TDP2402     0.0000 
     41 H          34.1792   49.9450   81.7261 H         1 TDP2402     0.0000 
     42 H          33.9994   51.5415   81.7981 H         1 TDP2402     0.0000 
@<TRIPOS>BOND
     1    2    1 ar   
     2    8    1 ar   
     3    3    2 1    
     4    4    2 ar   
     5   37    3 1    
     6   38    3 1    
     7   39    3 1    
     8    5    4 ar   
     9    6    5 1    
    10    7    5 ar   
    11   27    6 1    
    12   28    6 1    
    13    8    7 ar   
    14    9    7 1    
    15   29    8 1    
    16   10    9 1    
    17   30    9 1    
    18   31    9 1    
    19   11   10 2    
    20   14   10 1    
    21   12   11 1    
    22   32   11 1    
    23   13   12 1    
    24   14   13 2    
    25   16   13 1    
    26   15   14 1    
    27   40   15 1    
    28   41   15 1    
    29   42   15 1    
    30   17   16 1    
    31   33   16 1    
    32   34   16 1    
    33   18   17 1    
    34   35   17 1    
    35   36   17 1    
    36   19   18 1    
    37   20   19 1    
    38   21   19 ar   
    39   22   19 ar   
    40   23   20 1    
    41   24   23 ar   
    42   25   23 ar   
    43   26   23 ar   
@<TRIPOS>SUBSTRUCTURE
     1 TDP2402     1 GROUP   
@<TRIPOS>SET

