#    Name: 1we3_ADP_3_INTS_M
#    Modification time : Tue Mar 25 09:00:20 2014

@<TRIPOS>MOLECULE
1we3_ADP_3_INTS_M
   70     0    15     0     0
SMALL
NO_CHARGES


@<TRIPOS>ATOM
      1 Zn          2.2575   45.2870   23.0160 Zn        4 ZIC7        0.0000 
      2 Zn          1.1370   44.6850   23.5850 Zn       14 ZIL7        0.0000 
      3 Zn          3.3780   45.8890   22.4470 Zn        9 ZIP7        0.0000 
      4 N          -0.0915   44.9980   22.6940 N.am      2 SEC2        0.0000 
      5 N           1.1370   44.6850   23.5850 N.am     12 SEL2        0.0000 
      6 N          -1.3200   45.3110   21.8030 N.am      7 SEP2        0.0000 
      7 N          -1.2115   41.7580   25.0240 N.am      2 SEC2        0.0000 
      8 N          -0.2410   42.7890   24.6280 N.am     12 SEL2        0.0000 
      9 N          -2.1820   40.7270   25.4200 N.am      7 SEP2        0.0000 
     10 N          -1.0840   42.9140   25.9375 N.am      2 SEC2        0.0000 
     11 N          -1.9270   43.0390   27.2470 N.am      7 SEP2        0.0000 
     12 N          -0.0280   41.3630   22.6935 N.am      2 SEC2        0.0000 
     13 N           1.2610   42.4270   22.6370 N.am     12 SEL2        0.0000 
     14 N          -1.3170   40.2990   22.7500 N.am      7 SEP2        0.0000 
     15 N           1.2850   40.8730   22.9425 N.am      2 SEC2        0.0000 
     16 N           1.3090   39.3190   23.2480 N.am      7 SEP2        0.0000 
     17 NZ          5.8190   42.2585   25.1445 N.4       3 LYC4        0.0000 
     18 NZ          4.5710   42.4000   25.5070 N.4      13 LYL4        0.0000 
     19 NZ          7.0670   42.1170   24.7820 N.4       8 LYP4        0.0000 
     20 N           4.5845   41.9020   27.0140 N.am      2 SEC2        0.0000 
     21 N           4.5710   42.4000   25.5070 N.am     12 SEL2        0.0000 
     22 N           4.5980   41.4040   28.5210 N.am      7 SEP2        0.0000 
     23 NZ          5.5750   43.2830   24.5965 N.4       3 LYC4        0.0000 
     24 NZ          4.0830   44.4490   24.4110 N.4      13 LYL4        0.0000 
     25 Zn          3.7305   45.1690   23.4290 Zn        4 ZIC7        0.0000 
     26 Zn          4.0830   44.4490   24.4110 Zn       14 ZIL7        0.0000 
     27 O          -0.1075   47.7545   29.5900 O.2       1 ALC1        0.0000 
     28 O           0.3480   46.3480   29.7770 O.2      11 ALL1        0.0000 
     29 O          -0.5630   49.1610   29.4030 O.2       6 ALP1        0.0000 
     30 CA          3.6505   48.6150   28.2590 C.3       5 GLC5        0.0000 
     31 CA          2.5890   47.2580   29.1650 C.3      15 GLL5        0.0000 
     32 CA          4.7120   49.9720   27.3530 C.3      10 GLP5        0.0000 
     33 N           1.6530   48.2840   31.3055 N.am      2 SEC2        0.0000 
     34 N           2.1880   48.4620   29.8280 N.am     12 SEL2        0.0000 
     35 N           1.1180   48.1060   32.7830 N.am      7 SEP2        0.0000 
     36 O           0.8125   48.8115   29.6155 O.2       1 ALC1        0.0000 
     37 O           2.1880   48.4620   29.8280 O.2      11 ALL1        0.0000 
     38 CA          2.3355   46.6190   31.7815 C.3       5 GLC5        0.0000 
     39 CA          3.3840   46.3320   29.9800 C.3      15 GLL5        0.0000 
     40 CA          1.2870   46.9060   33.5830 C.3      10 GLP5        0.0000 
     41 CA          2.4405   44.9235   31.1405 C.3       5 GLC5        0.0000 
     42 CA          1.4970   43.5150   32.3010 C.3      10 GLP5        0.0000 
     43 CA          7.7490   46.0015   32.2225 C.3       5 GLC5        0.0000 
     44 CA          7.2490   47.7110   32.5830 C.3      15 GLL5        0.0000 
     45 CA          8.2490   44.2920   31.8620 C.3      10 GLP5        0.0000 
     46 CA          9.2520   47.1125   33.1990 C.3       5 GLC5        0.0000 
     47 CA         11.2550   46.5140   33.8150 C.3      10 GLP5        0.0000 
     48 CA          3.3145   46.9845   33.7505 C.3       5 GLC5        0.0000 
     49 CA          5.3420   47.0630   33.9180 C.3      15 GLL5        0.0000 
     50 CA          6.2365   47.4750   35.7350 C.3       5 GLC5        0.0000 
     51 CA          7.1310   47.8870   37.5520 C.3      10 GLP5        0.0000 
     52 CA          6.1400   45.3275   34.6215 C.3       5 GLC5        0.0000 
     53 CA          6.9380   43.5920   35.3250 C.3      10 GLP5        0.0000 
     54 CA          4.1540   48.4110   34.7555 C.3       5 GLC5        0.0000 
     55 CA          2.9660   49.7590   35.5930 C.3      10 GLP5        0.0000 
     56 CA          4.8385   48.8115   33.3565 C.3       5 GLC5        0.0000 
     57 CA          4.3350   50.5600   32.7950 C.3      10 GLP5        0.0000 
     58 CA          3.2570   46.9375   32.5465 C.3       5 GLC5        0.0000 
     59 CA          5.2270   46.9690   31.5100 C.3      15 GLL5        0.0000 
     60 CA          1.5875   42.7437   27.9623 C.3       5 GLC5        0.0000 
     61 CA          2.0650   44.9370   28.6920 C.3      15 GLL5        0.0000 
     62 CA          1.1320   40.9000   27.9240 C.3      10 GLP5        0.0000 
     63 CA          3.7225   43.4098   28.7067 C.3       5 GLC5        0.0000 
     64 CA          2.0210   44.2380   27.3090 C.3      15 GLL5        0.0000 
     65 CA          5.4020   42.2320   29.4130 C.3      10 GLP5        0.0000 
     66 CA          1.6193   44.5722   30.5255 C.3       5 GLC5        0.0000 
     67 CA          6.4358   45.5353   31.2758 C.3       5 GLC5        0.0000 
     68 CA          6.9840   43.8710   31.1020 C.3      10 GLP5        0.0000 
     69 CA          5.1989   48.9149   32.2715 C.3       5 GLC5        0.0000 
     70 CA          6.5480   47.4300   31.3890 C.3      15 GLL5        0.0000 
@<TRIPOS>BOND
@<TRIPOS>SUBSTRUCTURE
     1 ALC1       27 GROUP        1 X    ALC  0     ROOT ALC X 1
     2 SEC2        4 GROUP        1 X    SEC  0     **** SEC X 2
     3 LYC4       17 GROUP        1 X    LYC  0     **** LYC X 4
     4 ZIC7        1 GROUP        1 X    ZIC  0     **** ZIC X 5
     5 GLC5       30 GROUP        1 X    GLC  0     **** GLC X 6
     6 ALP1       29 GROUP        1 Y    ALP  0     ROOT ALP Y 8
     7 SEP2        6 GROUP        1 Y    SEP  0     **** SEP Y 9
     8 LYP4       19 GROUP        1 Y    LYP  0     **** LYP Y 11
     9 ZIP7        3 GROUP        1 Y    ZIP  0     **** ZIP Y 12
    10 GLP5       32 GROUP        1 Y    GLP  0     **** GLP Y 13
    11 ALL1       28 GROUP        1 Z    ALL  0     ROOT ALL Z 15
    12 SEL2        5 GROUP        1 Z    SEL  0     **** SEL Z 16
    13 LYL4       18 GROUP        1 Z    LYL  0     **** LYL Z 18
    14 ZIL7        2 GROUP        1 Z    ZIL  0     **** ZIL Z 19
    15 GLL5       31 GROUP        1 Z    GLL  0     **** GLL Z 20
@<TRIPOS>SET

