#    Name: 1we3_ADP_3_ligand
#    Modification time : Tue Mar 25 09:00:20 2014

@<TRIPOS>MOLECULE
1we3_ADP_3_ligand
   39    41     1     0     0
SMALL
NO_CHARGES


@<TRIPOS>ATOM
      1 PB          1.1020   43.2270   23.8870 P.3       1 ADP3551     0.0000 
      2 O1B         1.1370   44.6850   23.5850 O.co2     1 ADP3551     0.0000 
      3 O2B        -0.2410   42.7890   24.6280 O.co2     1 ADP3551     0.0000 
      4 O3B         1.2610   42.4270   22.6370 O.co2     1 ADP3551     0.0000 
      5 PA          3.5900   43.4690   25.3690 P.3       1 ADP3551     0.0000 
      6 O1A         4.5710   42.4000   25.5070 O.co2     1 ADP3551     0.0000 
      7 O2A         4.0830   44.4490   24.4110 O.co2     1 ADP3551     0.0000 
      8 O3A         2.2040   42.8550   24.9340 O.3       1 ADP3551     0.0000 
      9 O5'         3.3120   44.1920   26.7340 O.3       1 ADP3551     0.0000 
     10 C5'         2.0210   44.2380   27.3090 C.3       1 ADP3551     0.0000 
     11 C4'         2.0650   44.9370   28.6920 C.3       1 ADP3551     0.0000 
     12 O4'         3.3620   45.0490   29.3400 O.3       1 ADP3551     0.0000 
     13 C3'         1.4180   46.3220   28.8080 C.3       1 ADP3551     0.0000 
     14 O3'         0.3480   46.3480   29.7770 O.3       1 ADP3551     0.0000 
     15 C2'         2.5890   47.2580   29.1650 C.3       1 ADP3551     0.0000 
     16 O2'         2.1880   48.4620   29.8280 O.3       1 ADP3551     0.0000 
     17 C1'         3.3840   46.3320   29.9800 C.3       1 ADP3551     0.0000 
     18 N9          4.7720   46.7870   30.2840 N.pl3     1 ADP3551     0.0000 
     19 C8          5.7580   47.1120   29.4240 C.2       1 ADP3551     0.0000 
     20 N7          6.8440   47.4980   30.0940 N.2       1 ADP3551     0.0000 
     21 C5          6.5480   47.4300   31.3890 C.ar      1 ADP3551     0.0000 
     22 C6          7.2490   47.7110   32.5830 C.ar      1 ADP3551     0.0000 
     23 N6          8.5090   48.1730   32.5570 N.pl3     1 ADP3551     0.0000 
     24 N1          6.6250   47.5240   33.8130 N.ar      1 ADP3551     0.0000 
     25 C2          5.3420   47.0630   33.9180 C.ar      1 ADP3551     0.0000 
     26 N3          4.6650   46.7920   32.7640 N.ar      1 ADP3551     0.0000 
     27 C4          5.2270   46.9690   31.5100 C.ar      1 ADP3551     0.0000 
     28 H           1.5990   43.2358   27.4707 H         1 ADP3551     0.0000 
     29 H           1.3069   44.7994   26.6897 H         1 ADP3551     0.0000 
     30 H           1.4263   44.2818   29.3958 H         1 ADP3551     0.0000 
     31 H           1.0842   46.5980   27.8162 H         1 ADP3551     0.0000 
     32 H           3.1183   47.4284   28.2385 H         1 ADP3551     0.0000 
     33 H           2.8483   46.2203   30.9624 H         1 ADP3551     0.0000 
     34 H           5.6794   47.0680   28.4478 H         1 ADP3551     0.0000 
     35 H           8.9220   48.3749   33.4450 H         1 ADP3551     0.0000 
     36 H           8.9220   48.2740   31.6519 H         1 ADP3551     0.0000 
     37 H           4.9050   46.9261   34.8314 H         1 ADP3551     0.0000 
     38 H          -0.0094   47.2813   29.7427 H         1 ADP3551     0.0000 
     39 H           1.1902   48.4734   29.7624 H         1 ADP3551     0.0000 
@<TRIPOS>BOND
     1    2    1 ar   
     2    3    1 ar   
     3    4    1 ar   
     4    8    1 1    
     5    6    5 ar   
     6    7    5 ar   
     7    8    5 1    
     8    9    5 1    
     9   10    9 1    
    10   11   10 1    
    11   28   10 1    
    12   29   10 1    
    13   12   11 1    
    14   13   11 1    
    15   30   11 1    
    16   17   12 1    
    17   14   13 1    
    18   15   13 1    
    19   31   13 1    
    20   38   14 1    
    21   16   15 1    
    22   17   15 1    
    23   32   15 1    
    24   39   16 1    
    25   18   17 1    
    26   33   17 1    
    27   19   18 1    
    28   27   18 1    
    29   20   19 2    
    30   34   19 1    
    31   21   20 1    
    32   22   21 ar   
    33   27   21 ar   
    34   23   22 1    
    35   24   22 ar   
    36   35   23 1    
    37   36   23 1    
    38   25   24 ar   
    39   26   25 ar   
    40   37   25 1    
    41   27   26 ar   
@<TRIPOS>SUBSTRUCTURE
     1 ADP3551     1 GROUP   
@<TRIPOS>SET

