#    Name: 1sj0_E4D_1_INTS_M
#    Modification time : Tue Mar 25 02:28:44 2014

@<TRIPOS>MOLECULE
1sj0_E4D_1_INTS_M
   96     0    12     0     0
SMALL
NO_CHARGES


@<TRIPOS>ATOM
      1 CA         30.1805   -3.6040   28.6985 C.3       4 GLC5        0.0000 
      2 CA         28.8610   -1.9480   27.9670 C.3      12 GLL5        0.0000 
      3 CA         31.5000   -5.2600   29.4300 C.3       8 GLP5        0.0000 
      4 CA         28.5355   -3.4350   25.7345 C.3       4 GLC5        0.0000 
      5 CA         27.9320   -2.9010   27.5800 C.3      12 GLL5        0.0000 
      6 CA         29.1390   -3.9690   23.8890 C.3       8 GLP5        0.0000 
      7 CA         27.2930   -3.6585   25.3410 C.3       4 GLC5        0.0000 
      8 CA         26.7240   -2.5350   27.0030 C.3      12 GLL5        0.0000 
      9 CA         27.8620   -4.7820   23.6790 C.3       8 GLP5        0.0000 
     10 N          24.0155   -1.2770   27.6730 N.am      2 SEC2        0.0000 
     11 N          25.1280   -0.8570   26.5840 N.am     10 SEL2        0.0000 
     12 N          22.9030   -1.6970   28.7620 N.am      6 SEP2        0.0000 
     13 O          24.6925   -2.2050   26.0470 O.2       1 ALC1        0.0000 
     14 O          25.1280   -0.8570   26.5840 O.2       9 ALL1        0.0000 
     15 O          24.2570   -3.5530   25.5100 O.2       5 ALP1        0.0000 
     16 CA         29.0690   -0.4405   29.9495 C.3       4 GLC5        0.0000 
     17 CA         29.6080    0.4570   28.1910 C.3      12 GLL5        0.0000 
     18 CA         28.5300   -1.3380   31.7080 C.3       8 GLP5        0.0000 
     19 CA         31.5365    1.9510   25.5220 C.3       4 GLC5        0.0000 
     20 CA         32.6800    1.3800   27.3730 C.3      12 GLL5        0.0000 
     21 CA         30.3930    2.5220   23.6710 C.3       8 GLP5        0.0000 
     22 CA         33.2505    2.8255   25.2395 C.3       4 GLC5        0.0000 
     23 CA         33.9320    1.9870   27.2050 C.3      12 GLL5        0.0000 
     24 CA         32.5690    3.6640   23.2740 C.3       8 GLP5        0.0000 
     25 CA         33.6540    3.3770   28.9100 C.3       4 GLC5        0.0000 
     26 CA         33.3760    4.7670   30.6150 C.3       8 GLP5        0.0000 
     27 CA         37.0780    1.9870   28.5740 C.3       4 GLC5        0.0000 
     28 CA         34.9760    1.6980   28.0990 C.3      12 GLL5        0.0000 
     29 CA         39.1800    2.2760   29.0490 C.3       8 GLP5        0.0000 
     30 N          37.2140    1.7625   28.5415 N.am      2 SEC2        0.0000 
     31 N          36.1910    2.2510   27.9230 N.am     10 SEL2        0.0000 
     32 N          38.2370    1.2740   29.1600 N.am      6 SEP2        0.0000 
     33 O          36.4160    2.8410   26.4995 O.2       1 ALC1        0.0000 
     34 O          36.1910    2.2510   27.9230 O.2       9 ALL1        0.0000 
     35 O          36.6410    3.4310   25.0760 O.2       5 ALP1        0.0000 
     36 CA         34.9965   -4.0425   24.5545 C.3       4 GLC5        0.0000 
     37 CA         33.0730   -3.0500   25.1480 C.3      12 GLL5        0.0000 
     38 CA         36.9200   -5.0350   23.9610 C.3       8 GLP5        0.0000 
     39 CA         34.5150   -1.6465   22.8635 C.3       4 GLC5        0.0000 
     40 CA         34.0020   -3.4000   22.3460 C.3      12 GLL5        0.0000 
     41 CA         35.0280    0.1070   23.3810 C.3       8 GLP5        0.0000 
     42 OD1        31.8275   -5.1575   20.0045 O.co2     3 ASC3        0.0000 
     43 OD1        32.8000   -4.0120   20.0540 O.co2    11 ASL3        0.0000 
     44 OD1        30.8550   -6.3030   19.9550 O.co2     7 ASP3        0.0000 
     45 O          31.8275   -5.1575   20.0045 O.2       1 ALC1        0.0000 
     46 O          32.8000   -4.0120   20.0540 O.2       9 ALL1        0.0000 
     47 O          30.8550   -6.3030   19.9550 O.2       5 ALP1        0.0000 
     48 CA         30.3680   -3.6050   22.1040 C.3       4 GLC5        0.0000 
     49 CA         31.5970   -3.2410   20.3190 C.3      12 GLL5        0.0000 
     50 CA         29.4525   -5.0520   19.8420 C.3       4 GLC5        0.0000 
     51 CA         30.5570   -3.2640   19.1770 C.3      12 GLL5        0.0000 
     52 CA         28.3480   -6.8400   20.5070 C.3       8 GLP5        0.0000 
     53 CA         29.8770   -1.1458   30.0750 C.3       4 GLC5        0.0000 
     54 CA         31.2760   -1.6690   28.1770 C.3      12 GLL5        0.0000 
     55 CA         26.5235    0.3235   25.5352 C.3       4 GLC5        0.0000 
     56 CA         27.2840   -0.2150   27.4260 C.3      12 GLL5        0.0000 
     57 CA         26.2320    1.3460   23.8420 C.3       8 GLP5        0.0000 
     58 CA         27.6784    0.8280   29.4872 C.3       4 GLC5        0.0000 
     59 CA         26.5930    1.6220   31.0590 C.3       8 GLP5        0.0000 
     60 CA         32.2285    3.3273   27.2965 C.3       4 GLC5        0.0000 
     61 CA         31.1510    4.9710   27.3040 C.3       8 GLP5        0.0000 
     62 CA         34.7775    0.5662   26.3730 C.3       4 GLC5        0.0000 
     63 CA         36.2490   -0.5510   25.4570 C.3       8 GLP5        0.0000 
     64 CA         34.9430    3.5232   26.8720 C.3       4 GLC5        0.0000 
     65 CA         35.4320    5.2040   26.0920 C.3       8 GLP5        0.0000 
     66 CA         35.3517    2.8570   29.8415 C.3       4 GLC5        0.0000 
     67 CA         35.8240    4.4730   31.0620 C.3       8 GLP5        0.0000 
     68 CA         35.5643    0.3450   27.0390 C.3       4 GLC5        0.0000 
     69 CA         34.7335   -0.4938   30.8305 C.3       4 GLC5        0.0000 
     70 CA         34.7830    0.7840   29.1430 C.3      12 GLL5        0.0000 
     71 CA         35.3160   -1.4810   32.4340 C.3       8 GLP5        0.0000 
     72 CA         34.3817   -3.0802   26.5510 C.3       4 GLC5        0.0000 
     73 CA         32.6480   -2.7670   26.4480 C.3      12 GLL5        0.0000 
     74 CA         35.9030   -3.2520   27.3040 C.3       8 GLP5        0.0000 
     75 CA         31.7752   -3.7604   28.1869 C.3       4 GLC5        0.0000 
     76 CA         32.5637   -4.8507   25.5710 C.3       4 GLC5        0.0000 
     77 CA         32.2670   -6.7930   25.3440 C.3       8 GLP5        0.0000 
     78 CA         34.5547   -1.7298   25.6275 C.3       4 GLC5        0.0000 
     79 CA         33.5018   -0.9022   23.7793 C.3       4 GLC5        0.0000 
     80 CA         32.4960   -2.3520   24.0600 C.3      12 GLL5        0.0000 
     81 CA         30.8220    0.6005   24.3150 C.3       4 GLC5        0.0000 
     82 CA         31.4550   -1.4710   24.2950 C.3      12 GLL5        0.0000 
     83 CA         29.3900   -0.9720   23.9670 C.3       4 GLC5        0.0000 
     84 CA         27.5290   -0.6230   22.9750 C.3       8 GLP5        0.0000 
     85 CA         33.8122   -5.6205   22.6020 C.3       4 GLC5        0.0000 
     86 CA         33.7960   -7.3490   23.4280 C.3       8 GLP5        0.0000 
     87 CA         35.3743   -4.4635   22.8685 C.3       4 GLC5        0.0000 
     88 CA         33.6550   -4.3840   21.2060 C.3      12 GLL5        0.0000 
     89 CA         29.4615   -3.3305   17.2455 C.3       4 GLC5        0.0000 
     90 CA         28.0510   -3.5730   15.9960 C.3       8 GLP5        0.0000 
     91 CA         30.8020   -1.4496   19.7473 C.3       4 GLC5        0.0000 
     92 CA         31.1870   -2.9120   17.8130 C.3      12 GLL5        0.0000 
     93 CA         30.4720    0.1830   20.7140 C.3       8 GLP5        0.0000 
     94 CA         31.6625   -2.5660   15.9070 C.3       4 GLC5        0.0000 
     95 CA         31.5250   -1.7550   14.0990 C.3       8 GLP5        0.0000 
     96 CA         30.6148   -3.0318   24.4027 C.3       4 GLC5        0.0000 
@<TRIPOS>BOND
@<TRIPOS>SUBSTRUCTURE
     1 ALC1       13 GROUP        1 X    ALC  0     ROOT ALC X 1
     2 SEC2       10 GROUP        1 X    SEC  0     **** SEC X 2
     3 ASC3       42 GROUP        1 X    ASC  0     **** ASC X 3
     4 GLC5        1 GROUP        1 X    GLC  0     **** GLC X 6
     5 ALP1       15 GROUP        1 Y    ALP  0     ROOT ALP Y 8
     6 SEP2       12 GROUP        1 Y    SEP  0     **** SEP Y 9
     7 ASP3       44 GROUP        1 Y    ASP  0     **** ASP Y 10
     8 GLP5        3 GROUP        1 Y    GLP  0     **** GLP Y 13
     9 ALL1       14 GROUP        1 Z    ALL  0     ROOT ALL Z 15
    10 SEL2       11 GROUP        1 Z    SEL  0     **** SEL Z 16
    11 ASL3       43 GROUP        1 Z    ASL  0     **** ASL Z 17
    12 GLL5        2 GROUP        1 Z    GLL  0     **** GLL Z 20
@<TRIPOS>SET

