#    Name: 1sj0_E4D_1_ligand
#    Modification time : Tue Mar 25 02:28:44 2014

@<TRIPOS>MOLECULE
1sj0_E4D_1_ligand
   63    67     1     0     0
SMALL
NO_CHARGES


@<TRIPOS>ATOM
      1 C1         31.1720   -0.2380   28.7070 C.3       1 E4D600      0.0000 
      2 C2         31.2760   -1.6690   28.1770 C.3       1 E4D600      0.0000 
      3 O3         30.0500   -2.3690   28.4310 O.3       1 E4D600      0.0000 
      4 C4         28.8610   -1.9480   27.9670 C.ar      1 E4D600      0.0000 
      5 C5         27.9320   -2.9010   27.5800 C.ar      1 E4D600      0.0000 
      6 C6         26.7240   -2.5350   27.0030 C.ar      1 E4D600      0.0000 
      7 C7         26.3460   -1.1830   27.0310 C.ar      1 E4D600      0.0000 
      8 O8         25.1280   -0.8570   26.5840 O.3       1 E4D600      0.0000 
      9 C9         27.2840   -0.2150   27.4260 C.ar      1 E4D600      0.0000 
     10 C10        28.5550   -0.5630   27.8540 C.ar      1 E4D600      0.0000 
     11 S11        29.6080    0.4570   28.1910 S.3       1 E4D600      0.0000 
     12 C12        32.4700    0.4800   28.4200 C.ar      1 E4D600      0.0000 
     13 C13        32.6800    1.3800   27.3730 C.ar      1 E4D600      0.0000 
     14 C14        33.9320    1.9870   27.2050 C.ar      1 E4D600      0.0000 
     15 C15        34.9760    1.6980   28.0990 C.ar      1 E4D600      0.0000 
     16 O16        36.1910    2.2510   27.9230 O.3       1 E4D600      0.0000 
     17 C17        34.7830    0.7840   29.1430 C.ar      1 E4D600      0.0000 
     18 C18        33.5190    0.2030   29.3110 C.ar      1 E4D600      0.0000 
     19 C19        31.6300   -1.8400   26.7020 C.ar      1 E4D600      0.0000 
     20 C20        32.6480   -2.7670   26.4480 C.ar      1 E4D600      0.0000 
     21 C21        33.0730   -3.0500   25.1480 C.ar      1 E4D600      0.0000 
     22 C22        32.4960   -2.3520   24.0600 C.ar      1 E4D600      0.0000 
     23 C23        31.4550   -1.4710   24.2950 C.ar      1 E4D600      0.0000 
     24 C24        31.0470   -1.1710   25.6230 C.ar      1 E4D600      0.0000 
     25 O25        32.9110   -2.5720   22.7850 O.3       1 E4D600      0.0000 
     26 C26        34.0020   -3.4000   22.3460 C.3       1 E4D600      0.0000 
     27 C27        33.6550   -4.3840   21.2060 C.3       1 E4D600      0.0000 
     28 N28        32.8000   -4.0120   20.0540 N.4       1 E4D600      0.0000 
     29 C29        31.5970   -3.2410   20.3190 C.3       1 E4D600      0.0000 
     30 C30        30.5570   -3.2640   19.1770 C.3       1 E4D600      0.0000 
     31 C31        31.1870   -2.9120   17.8130 C.3       1 E4D600      0.0000 
     32 C32        32.4130   -3.8420   17.6170 C.3       1 E4D600      0.0000 
     33 C33        33.4340   -3.6740   18.7760 C.3       1 E4D600      0.0000 
     34 H          31.0291   -0.3357   29.8135 H         1 E4D600      0.0000 
     35 H          32.0800   -2.1766   28.7621 H         1 E4D600      0.0000 
     36 H          28.1428   -3.9071   27.7240 H         1 E4D600      0.0000 
     37 H          26.1192   -3.2268   26.5666 H         1 E4D600      0.0000 
     38 H          27.0095    0.7868   27.3934 H         1 E4D600      0.0000 
     39 H          31.9158    1.5992   26.7228 H         1 E4D600      0.0000 
     40 H          34.0867    2.6402   26.4324 H         1 E4D600      0.0000 
     41 H          35.5485    0.5457   29.7695 H         1 E4D600      0.0000 
     42 H          33.3554   -0.4390   30.1021 H         1 E4D600      0.0000 
     43 H          33.0966   -3.2548   27.2458 H         1 E4D600      0.0000 
     44 H          33.7918   -3.7515   24.9753 H         1 E4D600      0.0000 
     45 H          30.9617   -1.0207   23.5127 H         1 E4D600      0.0000 
     46 H          30.3254   -0.4632   25.7775 H         1 E4D600      0.0000 
     47 H          34.4092   -4.0084   23.1874 H         1 E4D600      0.0000 
     48 H          34.8593   -2.7811   21.9911 H         1 E4D600      0.0000 
     49 H          33.2177   -5.3198   21.7055 H         1 E4D600      0.0000 
     50 H          34.6529   -4.7900   20.8114 H         1 E4D600      0.0000 
     51 H          32.2979   -5.1160   19.7670 H         1 E4D600      0.0000 
     52 H          31.8454   -2.1757   20.5170 H         1 E4D600      0.0000 
     53 H          31.0869   -3.6065   21.2366 H         1 E4D600      0.0000 
     54 H          29.7684   -2.5450   19.4009 H         1 E4D600      0.0000 
     55 H          30.1159   -4.2595   19.1189 H         1 E4D600      0.0000 
     56 H          31.5149   -1.8937   17.8219 H         1 E4D600      0.0000 
     57 H          30.4778   -3.0946   17.0330 H         1 E4D600      0.0000 
     58 H          32.8994   -3.5949   16.6796 H         1 E4D600      0.0000 
     59 H          32.0758   -4.8725   17.5903 H         1 E4D600      0.0000 
     60 H          34.2806   -4.3283   18.5699 H         1 E4D600      0.0000 
     61 H          33.7787   -2.6404   18.7673 H         1 E4D600      0.0000 
     62 H          24.7523   -1.7066   26.2138 H         1 E4D600      0.0000 
     63 H          36.2038    2.5489   26.9685 H         1 E4D600      0.0000 
@<TRIPOS>BOND
     1    2    1 1    
     2   11    1 1    
     3   12    1 1    
     4   34    1 1    
     5    3    2 1    
     6   19    2 1    
     7   35    2 1    
     8    4    3 1    
     9    5    4 ar   
    10   10    4 ar   
    11    6    5 ar   
    12   36    5 1    
    13    7    6 ar   
    14   37    6 1    
    15    8    7 1    
    16    9    7 ar   
    17   62    8 1    
    18   10    9 ar   
    19   38    9 1    
    20   11   10 1    
    21   13   12 ar   
    22   18   12 ar   
    23   14   13 ar   
    24   39   13 1    
    25   15   14 ar   
    26   40   14 1    
    27   16   15 1    
    28   17   15 ar   
    29   63   16 1    
    30   18   17 ar   
    31   41   17 1    
    32   42   18 1    
    33   20   19 ar   
    34   24   19 ar   
    35   21   20 ar   
    36   43   20 1    
    37   22   21 ar   
    38   44   21 1    
    39   23   22 ar   
    40   25   22 1    
    41   24   23 ar   
    42   45   23 1    
    43   46   24 1    
    44   26   25 1    
    45   27   26 1    
    46   47   26 1    
    47   48   26 1    
    48   28   27 1    
    49   49   27 1    
    50   50   27 1    
    51   29   28 1    
    52   33   28 1    
    53   51   28 1    
    54   30   29 1    
    55   52   29 1    
    56   53   29 1    
    57   31   30 1    
    58   54   30 1    
    59   55   30 1    
    60   32   31 1    
    61   56   31 1    
    62   57   31 1    
    63   33   32 1    
    64   58   32 1    
    65   59   32 1    
    66   60   33 1    
    67   61   33 1    
@<TRIPOS>SUBSTRUCTURE
     1 E4D600      1 GROUP   
@<TRIPOS>SET

