#    Name: 2yej_ZZ3_2_INTS_M
#    Modification time : Tue Mar 25 08:45:30 2014

@<TRIPOS>MOLECULE
2yej_ZZ3_2_INTS_M
   24     0     6     0     0
SMALL
NO_CHARGES


@<TRIPOS>ATOM
      1 O          -3.5690   11.9730   23.9695 O.2       1 ALC1        0.0000 
      2 O          -2.2140   11.7240   23.6230 O.2       5 ALL1        0.0000 
      3 O          -4.9240   12.2220   24.3160 O.2       3 ALP1        0.0000 
      4 CA         -0.8090   10.2985   22.3425 C.3       2 GLC5        0.0000 
      5 CA         -1.1180   11.0200   24.3050 C.3       6 GLL5        0.0000 
      6 CA         -0.5000    9.5770   20.3800 C.3       4 GLP5        0.0000 
      7 CA         -2.4080    9.5170   25.0540 C.3       2 GLC5        0.0000 
      8 CA         -3.6980    8.0140   25.8030 C.3       4 GLP5        0.0000 
      9 CA         -1.5220   13.0285   25.0445 C.3       2 GLC5        0.0000 
     10 CA         -1.9260   15.0370   25.7840 C.3       4 GLP5        0.0000 
     11 CA          0.3055   11.9065   26.8365 C.3       2 GLC5        0.0000 
     12 CA         -0.3650   10.1560   25.9550 C.3       6 GLL5        0.0000 
     13 CA          0.9760   13.6570   27.7180 C.3       4 GLP5        0.0000 
     14 CA         -1.4990   10.5090   29.1120 C.3       2 GLC5        0.0000 
     15 CA         -0.5390    9.6750   27.6810 C.3       6 GLL5        0.0000 
     16 CA         -2.4590   11.3430   30.5430 C.3       4 GLP5        0.0000 
     17 CA          0.4365    9.8170   22.1335 C.3       2 GLC5        0.0000 
     18 CA          0.7240   10.2200   24.2680 C.3       6 GLL5        0.0000 
     19 CA         -2.0750    8.9648   26.3105 C.3       2 GLC5        0.0000 
     20 CA         -1.3405    7.8913   28.8375 C.3       2 GLC5        0.0000 
     21 CA         -2.7490    6.7050   29.7040 C.3       4 GLP5        0.0000 
     22 CA          1.1060   10.3742   28.6395 C.3       2 GLC5        0.0000 
     23 CA          0.6750    8.4800   28.2610 C.3       6 GLL5        0.0000 
     24 CA          2.1440   11.6710   29.3080 C.3       4 GLP5        0.0000 
@<TRIPOS>BOND
@<TRIPOS>SUBSTRUCTURE
     1 ALC1        1 GROUP        1 X    ALC  0     ROOT ALC X 1
     2 GLC5        4 GROUP        1 X    GLC  0     **** GLC X 6
     3 ALP1        3 GROUP        1 Y    ALP  0     ROOT ALP Y 8
     4 GLP5        6 GROUP        1 Y    GLP  0     **** GLP Y 13
     5 ALL1        2 GROUP        1 Z    ALL  0     ROOT ALL Z 15
     6 GLL5        5 GROUP        1 Z    GLL  0     **** GLL Z 20
@<TRIPOS>SET

