#    Name: 2yej_ZZ3_2_ligand
#    Modification time : Tue Mar 25 08:45:30 2014

@<TRIPOS>MOLECULE
2yej_ZZ3_2_ligand
   18    18     1     0     0
SMALL
NO_CHARGES


@<TRIPOS>ATOM
      1 N5         -2.2140   11.7240   23.6230 N.pl3     1 ZZ31226     0.0000 
      2 C2         -1.1180   11.0200   24.3050 C.ar      1 ZZ31226     0.0000 
      3 N4         -1.2300   10.7110   25.4170 N.ar      1 ZZ31226     0.0000 
      4 N1         -0.1410   10.7750   23.7310 N.ar      1 ZZ31226     0.0000 
      5 C3          0.7240   10.2200   24.2680 C.ar      1 ZZ31226     0.0000 
      6 C8          2.0220    9.8940   23.5060 C.3       1 ZZ31226     0.0000 
      7 N3          0.6120    9.9100   25.3810 N.ar      1 ZZ31226     0.0000 
      8 C4         -0.3650   10.1560   25.9550 C.ar      1 ZZ31226     0.0000 
      9 S1         -0.5390    9.6750   27.6810 S.3       1 ZZ31226     0.0000 
     10 C6          0.6750    8.4800   28.2610 C.3       1 ZZ31226     0.0000 
     11 H          -3.1333   11.5566   23.9790 H         1 ZZ31226     0.0000 
     12 H          -1.9506   12.3128   22.8588 H         1 ZZ31226     0.0000 
     13 H           2.4731   10.7208   23.1701 H         1 ZZ31226     0.0000 
     14 H           2.6819    9.4145   24.0845 H         1 ZZ31226     0.0000 
     15 H           1.8501    9.3108   22.7121 H         1 ZZ31226     0.0000 
     16 H           1.6088    8.8272   28.1741 H         1 ZZ31226     0.0000 
     17 H           0.5370    8.2478   29.2238 H         1 ZZ31226     0.0000 
     18 H           0.6309    7.6251   27.7441 H         1 ZZ31226     0.0000 
@<TRIPOS>BOND
     1    2    1 1    
     2   11    1 1    
     3   12    1 1    
     4    3    2 ar   
     5    4    2 ar   
     6    8    3 ar   
     7    5    4 ar   
     8    6    5 1    
     9    7    5 ar   
    10   13    6 1    
    11   14    6 1    
    12   15    6 1    
    13    8    7 ar   
    14    9    8 1    
    15   10    9 1    
    16   16   10 1    
    17   17   10 1    
    18   18   10 1    
@<TRIPOS>SUBSTRUCTURE
     1 ZZ31226     1 GROUP   
@<TRIPOS>SET

