#    Name: 2i1m_5CN_1_INTS_M
#    Modification time : Tue Mar 25 17:22:24 2014

@<TRIPOS>MOLECULE
2i1m_5CN_1_INTS_M
   62     0     9     0     0
SMALL
NO_CHARGES


@<TRIPOS>ATOM
      1 CA         48.4515   42.2210   -3.9085 C.3       3 GLC5        0.0000 
      2 CA         46.9450   41.0230   -4.9490 C.3       9 GLL5        0.0000 
      3 CA         49.9580   43.4190   -2.8680 C.3       6 GLP5        0.0000 
      4 CA         43.8275   41.9860   -8.2245 C.3       3 GLC5        0.0000 
      5 CA         44.4490   41.0530   -6.5970 C.3       9 GLL5        0.0000 
      6 CA         43.2060   42.9190   -9.8520 C.3       6 GLP5        0.0000 
      7 CA         44.2035   43.5440   -4.0455 C.3       3 GLC5        0.0000 
      8 CA         44.5530   41.6870   -5.1960 C.3       9 GLL5        0.0000 
      9 CA         43.8540   45.4010   -2.8950 C.3       6 GLP5        0.0000 
     10 CA         47.2535   42.6380   -2.3825 C.3       3 GLC5        0.0000 
     11 CA         45.6150   41.6490   -2.9250 C.3       9 GLL5        0.0000 
     12 CA         48.8920   43.6270   -1.8400 C.3       6 GLP5        0.0000 
     13 CA         44.7345   43.5250   -2.9100 C.3       3 GLC5        0.0000 
     14 CA         46.2955   40.7685  -13.4420 C.3       3 GLC5        0.0000 
     15 CA         46.1680   38.8240  -12.6600 C.3       9 GLL5        0.0000 
     16 CA         46.4230   42.7130  -14.2240 C.3       6 GLP5        0.0000 
     17 CA         47.6745   39.1100  -14.1660 C.3       3 GLC5        0.0000 
     18 CA         49.1810   39.3960  -15.6720 C.3       6 GLP5        0.0000 
     19 CA         46.6155   44.1055  -10.0625 C.3       3 GLC5        0.0000 
     20 CA         48.3300   44.3040   -8.7350 C.3       9 GLL5        0.0000 
     21 CA         44.9010   43.9070  -11.3900 C.3       6 GLP5        0.0000 
     22 CA         46.6680   45.7135   -8.3940 C.3       3 GLC5        0.0000 
     23 CA         45.0060   47.1230   -8.0530 C.3       6 GLP5        0.0000 
     24 CA         48.9145   45.1365   -4.7335 C.3       3 GLC5        0.0000 
     25 CA         47.6100   45.8870   -5.6420 C.3       9 GLL5        0.0000 
     26 CA         50.2190   44.3860   -3.8250 C.3       6 GLP5        0.0000 
     27 CA         48.5025   41.3750   -8.5645 C.3       3 GLC5        0.0000 
     28 CA         46.5860   41.0460   -9.5050 C.3       9 GLL5        0.0000 
     29 CA         50.4190   41.7040   -7.6240 C.3       6 GLP5        0.0000 
     30 O          45.4435   40.1665  -14.5680 O.2       1 ALC1        0.0000 
     31 O          45.1340   39.3890  -13.4610 O.2       7 ALL1        0.0000 
     32 O          45.7530   40.9440  -15.6750 O.2       4 ALP1        0.0000 
     33 N          49.4335   42.9785  -11.8615 N.am      2 SEC2        0.0000 
     34 N          48.5300   43.0820  -10.7590 N.am      8 SEL2        0.0000 
     35 N          50.3370   42.8750  -12.9640 N.am      5 SEP2        0.0000 
     36 CA         44.3520   41.3057   -9.2975 C.3       3 GLC5        0.0000 
     37 CA         45.8260   40.2990   -8.5340 C.3       9 GLL5        0.0000 
     38 CA         46.7587   37.8275  -10.0445 C.3       3 GLC5        0.0000 
     39 CA         45.1700   39.0860   -8.9520 C.3       9 GLL5        0.0000 
     40 CA         48.2970   36.8050  -10.4700 C.3       6 GLP5        0.0000 
     41 CA         44.7677   40.8792  -10.9925 C.3       3 GLC5        0.0000 
     42 CA         45.2710   38.6140  -10.2860 C.3       9 GLL5        0.0000 
     43 CA         43.8850   42.7820  -11.2170 C.3       6 GLP5        0.0000 
     44 CA         48.7332   40.1585   -5.9340 C.3       3 GLC5        0.0000 
     45 CA         46.9540   40.3270   -6.3230 C.3       9 GLL5        0.0000 
     46 CA         50.5170   39.6420   -6.2320 C.3       6 GLP5        0.0000 
     47 CA         42.7405   41.7095   -5.9832 C.3       3 GLC5        0.0000 
     48 CA         40.9800   42.0490   -6.0700 C.3       6 GLP5        0.0000 
     49 CA         44.1955   43.2945   -6.3658 C.3       3 GLC5        0.0000 
     50 CA         43.8900   45.2190   -6.8350 C.3       6 GLP5        0.0000 
     51 CA         49.5905   43.2725   -8.2142 C.3       3 GLC5        0.0000 
     52 CA         49.1940   45.3780   -8.8740 C.3       9 GLL5        0.0000 
     53 CA         50.9742   46.1863   -8.3867 C.3       3 GLC5        0.0000 
     54 CA         52.8160   46.5980   -8.4860 C.3       6 GLP5        0.0000 
     55 CA         45.2597   41.7910  -10.6980 C.3       3 GLC5        0.0000 
     56 CA         47.3440   38.3114  -10.9370 C.3       3 GLC5        0.0000 
     57 CA         46.6830   40.5540  -10.8530 C.3       9 GLL5        0.0000 
     58 CA         46.7391   46.5336   -7.5218 C.3       3 GLC5        0.0000 
     59 CA         48.1370   45.5480   -6.9180 C.3       9 GLL5        0.0000 
     60 CA         48.1273   46.4515   -9.6289 C.3       3 GLC5        0.0000 
     61 CA         49.0710   46.1710   -7.7010 C.3       9 GLL5        0.0000 
     62 CA         47.3380   47.3970  -11.0050 C.3       6 GLP5        0.0000 
@<TRIPOS>BOND
@<TRIPOS>SUBSTRUCTURE
     1 ALC1       30 GROUP        1 X    ALC  0     ROOT ALC X 1
     2 SEC2       33 GROUP        1 X    SEC  0     **** SEC X 2
     3 GLC5        1 GROUP        1 X    GLC  0     **** GLC X 6
     4 ALP1       32 GROUP        1 Y    ALP  0     ROOT ALP Y 8
     5 SEP2       35 GROUP        1 Y    SEP  0     **** SEP Y 9
     6 GLP5        3 GROUP        1 Y    GLP  0     **** GLP Y 13
     7 ALL1       31 GROUP        1 Z    ALL  0     ROOT ALL Z 15
     8 SEL2       34 GROUP        1 Z    SEL  0     **** SEL Z 16
     9 GLL5        2 GROUP        1 Z    GLL  0     **** GLL Z 20
@<TRIPOS>SET

