#    Name: 2i1m_5CN_1_ligand
#    Modification time : Tue Mar 25 17:22:24 2014

@<TRIPOS>MOLECULE
2i1m_5CN_1_ligand
   46    48     1     0     0
SMALL
NO_CHARGES


@<TRIPOS>ATOM
      1 C1         45.8260   40.2990   -8.5340 C.ar      1 5CN1000     0.0000 
      2 C2         45.1700   39.0860   -8.9520 C.ar      1 5CN1000     0.0000 
      3 C3         45.2710   38.6140  -10.2860 C.ar      1 5CN1000     0.0000 
      4 C7         46.9450   41.0230   -4.9490 C.3       1 5CN1000     0.0000 
      5 C8         46.9540   40.3270   -6.3230 C.3       1 5CN1000     0.0000 
      6 C9         44.4490   41.0530   -6.5970 C.3       1 5CN1000     0.0000 
      7 C10        44.5530   41.6870   -5.1960 C.3       1 5CN1000     0.0000 
      8 C11        45.5650   40.9710   -4.2940 C.3       1 5CN1000     0.0000 
      9 C12        45.6150   41.6490   -2.9250 C.3       1 5CN1000     0.0000 
     10 C13        46.1680   38.8240  -12.6600 C.3       1 5CN1000     0.0000 
     11 C14        48.0360   43.1760   -9.6270 C.2       1 5CN1000     0.0000 
     12 C15        48.3300   44.3040   -8.7350 C.2       1 5CN1000     0.0000 
     13 C16        49.1940   45.3780   -8.8740 C.2       1 5CN1000     0.0000 
     14 C19        47.6100   45.8870   -5.6420 C.1       1 5CN1000     0.0000 
     15 C4         46.0300   39.3390  -11.2500 C.ar      1 5CN1000     0.0000 
     16 C5         46.6830   40.5540  -10.8530 C.ar      1 5CN1000     0.0000 
     17 C6         46.5860   41.0460   -9.5050 C.ar      1 5CN1000     0.0000 
     18 N1         45.7650   40.6540   -7.1720 N.3       1 5CN1000     0.0000 
     19 O1         45.1340   39.3890  -13.4610 O.3       1 5CN1000     0.0000 
     20 N2         47.1640   42.2710   -9.0500 N.am      1 5CN1000     0.0000 
     21 O2         48.5300   43.0820  -10.7590 O.2       1 5CN1000     0.0000 
     22 C17        49.0710   46.1710   -7.7010 C.2       1 5CN1000     0.0000 
     23 C18        48.1370   45.5480   -6.9180 C.2       1 5CN1000     0.0000 
     24 O3         47.6730   44.4120   -7.5270 O.3       1 5CN1000     0.0000 
     25 N3         47.1900   46.1750   -4.5950 N.1       1 5CN1000     0.0000 
     26 H          44.6213   38.5602   -8.2641 H         1 5CN1000     0.0000 
     27 H          44.7992   37.7519  -10.5594 H         1 5CN1000     0.0000 
     28 H          47.2446   42.0647   -5.0789 H         1 5CN1000     0.0000 
     29 H          47.6722   40.5318   -4.2996 H         1 5CN1000     0.0000 
     30 H          47.0073   39.2375   -6.1563 H         1 5CN1000     0.0000 
     31 H          47.8805   40.6153   -6.8485 H         1 5CN1000     0.0000 
     32 H          43.9489   41.7769   -7.2634 H         1 5CN1000     0.0000 
     33 H          43.7852   40.1740   -6.5259 H         1 5CN1000     0.0000 
     34 H          43.5664   41.6594   -4.7215 H         1 5CN1000     0.0000 
     35 H          44.8474   42.7363   -5.3039 H         1 5CN1000     0.0000 
     36 H          45.2695   39.9523   -4.1762 H         1 5CN1000     0.0000 
     37 H          46.1068   37.7309  -12.6340 H         1 5CN1000     0.0000 
     38 H          47.1613   39.0987  -13.0304 H         1 5CN1000     0.0000 
     39 H          49.7607   45.5650   -9.5961 H         1 5CN1000     0.0000 
     40 H          47.2269   41.0798  -11.5396 H         1 5CN1000     0.0000 
     41 H          46.8352   42.5401   -8.0148 H         1 5CN1000     0.0000 
     42 H          49.5465   46.9551   -7.5287 H         1 5CN1000     0.0000 
     43 H          46.2665   41.2014   -2.3124 H         1 5CN1000     0.0000 
     44 H          45.8900   42.6079   -2.9953 H         1 5CN1000     0.0000 
     45 H          44.7250   41.6320   -2.4694 H         1 5CN1000     0.0000 
     46 H          45.6105   39.8724  -14.1953 H         1 5CN1000     0.0000 
@<TRIPOS>BOND
     1    2    1 ar   
     2   17    1 ar   
     3   18    1 1    
     4    3    2 ar   
     5   26    2 1    
     6   15    3 ar   
     7   27    3 1    
     8    5    4 1    
     9    8    4 1    
    10   28    4 1    
    11   29    4 1    
    12   18    5 1    
    13   30    5 1    
    14   31    5 1    
    15    7    6 1    
    16   18    6 1    
    17   32    6 1    
    18   33    6 1    
    19    8    7 1    
    20   34    7 1    
    21   35    7 1    
    22    9    8 1    
    23   36    8 1    
    24   43    9 1    
    25   44    9 1    
    26   45    9 1    
    27   15   10 1    
    28   19   10 1    
    29   37   10 1    
    30   38   10 1    
    31   12   11 1    
    32   20   11 am   
    33   21   11 2    
    34   13   12 2    
    35   24   12 1    
    36   22   13 1    
    37   39   13 1    
    38   23   14 1    
    39   25   14 3    
    40   16   15 ar   
    41   17   16 ar   
    42   40   16 1    
    43   20   17 1    
    44   46   19 1    
    45   41   20 1    
    46   23   22 2    
    47   42   22 1    
    48   24   23 1    
@<TRIPOS>SUBSTRUCTURE
     1 5CN1000     1 GROUP   
@<TRIPOS>SET

