#    Name: 4DLK_4_CAVITY_N1_ALL.mol2
#    Modification time : Mon Mar 10 14:16:15 2014

@<TRIPOS>MOLECULE
4DLK_4_CAVITY_N1_ALL.mol2
   92     0     6     0     0
SMALL
NO_CHARGES


@<TRIPOS>ATOM
      1 N          20.1766  -11.2200   38.9906 N.2       1 ALA2        0.0000 
      2 DU         20.8424  -12.3877   38.3250 H         6 CUB7        0.0000 
      3 CZ         21.5082  -13.5555   37.6594 C.ar      4 PHE5        0.0000 
      4 O          18.5945  -10.9900   40.3849 O.2       1 ALA2        0.0000 
      5 N          19.2603  -12.1578   39.7194 N.2       1 ALA2        0.0000 
      6 DU         19.9262  -13.3255   39.0538 H         6 CUB7        0.0000 
      7 CZ         20.5920  -14.4933   38.3882 C.ar      4 PHE5        0.0000 
      8 CZ         21.2579  -15.6611   37.7227 C.ar      4 PHE5        0.0000 
      9 N          18.3441  -13.0955   40.4481 N.2       1 ALA2        0.0000 
     10 N          19.0100  -14.2633   39.7826 N.2       1 ALA2        0.0000 
     11 CZ         19.6758  -15.4311   39.1170 C.ar      4 PHE5        0.0000 
     12 CZ         20.3417  -16.5988   38.4514 C.ar      4 PHE5        0.0000 
     13 CZ         21.0075  -17.7666   37.7859 C.ar      4 PHE5        0.0000 
     14 N          18.7596  -16.3688   39.8458 N.2       1 ALA2        0.0000 
     15 CZ         19.4254  -17.5366   39.1802 C.ar      4 PHE5        0.0000 
     16 CZ         20.0913  -18.7044   38.5147 C.ar      4 PHE5        0.0000 
     17 N          17.8434  -17.3066   40.5746 N.2       1 ALA2        0.0000 
     18 N          18.5092  -18.4744   39.9090 N.2       1 ALA2        0.0000 
     19 OD1        19.1751  -19.6422   39.2434 O.3       2 ASP3        0.0000 
     20 CZ         24.1410  -14.8893   39.2530 C.ar      4 PHE5        0.0000 
     21 CZ         21.8931  -13.4916   41.3129 C.ar      4 PHE5        0.0000 
     22 CZ         22.7240  -20.0382   40.1082 C.ar      4 PHE5        0.0000 
     23 N          19.1931  -11.1369   37.8610 N.2       1 ALA2        0.0000 
     24 NZ         19.8589  -12.3047   37.1955 N.2       3 LYS4        0.0000 
     25 CA         18.2769  -12.0747   38.5898 C.3       5 GLY6        0.0000 
     26 NZ         18.9427  -13.2425   37.9242 N.2       3 LYS4        0.0000 
     27 NZ         19.6086  -14.4103   37.2587 N.2       3 LYS4        0.0000 
     28 NZ         20.2744  -15.5780   36.5931 N.2       3 LYS4        0.0000 
     29 N          18.0265  -14.1803   38.6530 N.2       1 ALA2        0.0000 
     30 NZ         18.6923  -15.3480   37.9874 N.2       3 LYS4        0.0000 
     31 NZ         19.3582  -16.5158   37.3219 N.2       3 LYS4        0.0000 
     32 N          17.7761  -16.2858   38.7162 N.2       1 ALA2        0.0000 
     33 CZ         18.4420  -17.4536   38.0507 C.ar      4 PHE5        0.0000 
     34 CZ         19.1078  -18.6213   37.3851 C.ar      4 PHE5        0.0000 
     35 N          16.8599  -17.2236   39.4450 N.2       1 ALA2        0.0000 
     36 OD1        17.5258  -18.3914   38.7794 O.3       2 ASP3        0.0000 
     37 OD1        18.1916  -19.5591   38.1139 O.3       2 ASP3        0.0000 
     38 N          16.6095  -19.3291   39.5082 N.2       1 ALA2        0.0000 
     39 NZ         16.4078  -16.2667   33.9332 N.2       3 LYS4        0.0000 
     40 CA         14.1599  -14.8689   35.9931 C.3       5 GLY6        0.0000 
     41 N          14.8257  -16.0367   35.3275 N.2       1 ALA2        0.0000 
     42 NZ         15.4916  -17.2045   34.6620 N.2       3 LYS4        0.0000 
     43 N          13.2437  -15.8067   36.7219 N.2       1 ALA2        0.0000 
     44 NZ         13.9095  -16.9745   36.0563 N.2       3 LYS4        0.0000 
     45 NZ         14.5754  -18.1423   35.3907 N.2       3 LYS4        0.0000 
     46 NZ         12.9933  -17.9123   36.7851 N.2       3 LYS4        0.0000 
     47 NZ         13.6591  -19.0800   36.1195 N.2       3 LYS4        0.0000 
     48 NZ         12.0771  -18.8500   37.5139 N.2       3 LYS4        0.0000 
     49 NZ         12.7429  -20.0178   36.8483 N.2       3 LYS4        0.0000 
     50 N          13.8423  -15.9537   34.1980 N.2       1 ALA2        0.0000 
     51 NZ         12.9261  -16.8915   34.9268 N.2       3 LYS4        0.0000 
     52 NZ         12.0098  -17.8292   35.6555 N.2       3 LYS4        0.0000 
     53 NZ         11.0936  -18.7670   36.3843 N.2       3 LYS4        0.0000 
     54 DU         22.7421  -11.5330   38.7258 H         6 CUB7        0.0000 
     55 DU         21.1600  -11.3030   40.1201 H         6 CUB7        0.0000 
     56 DU         21.8259  -12.4708   39.4546 H         6 CUB7        0.0000 
     57 CZ         22.4917  -13.6385   38.7890 C.ar      4 PHE5        0.0000 
     58 DU         19.5780  -11.0730   41.5145 H         6 CUB7        0.0000 
     59 DU         20.2438  -12.2408   40.8489 H         6 CUB7        0.0000 
     60 CZ         20.9096  -13.4086   40.1834 C.ar      4 PHE5        0.0000 
     61 CZ         21.5755  -14.5763   39.5178 C.ar      4 PHE5        0.0000 
     62 CZ         22.2413  -15.7441   38.8522 C.ar      4 PHE5        0.0000 
     63 N          19.3276  -13.1786   41.5777 N.2       1 ALA2        0.0000 
     64 CZ         19.9934  -14.3463   40.9121 C.ar      4 PHE5        0.0000 
     65 CZ         21.3251  -16.6819   39.5810 C.ar      4 PHE5        0.0000 
     66 CZ         21.9910  -17.8496   38.9154 C.ar      4 PHE5        0.0000 
     67 CZ         21.0747  -18.7874   39.6442 C.ar      4 PHE5        0.0000 
     68 CZ         21.7406  -19.9552   38.9786 C.ar      4 PHE5        0.0000 
     69 CZ         20.1585  -19.7252   40.3730 C.ar      4 PHE5        0.0000 
     70 N          17.0430  -14.0972   37.5234 N.2       1 ALA2        0.0000 
     71 NZ         17.7089  -15.2650   36.8579 N.2       3 LYS4        0.0000 
     72 NZ         18.3747  -16.4328   36.1923 N.2       3 LYS4        0.0000 
     73 N          16.7927  -16.2028   37.5867 N.2       1 ALA2        0.0000 
     74 N          17.4585  -17.3705   36.9211 N.2       1 ALA2        0.0000 
     75 N          15.8764  -17.1406   38.3154 N.2       1 ALA2        0.0000 
     76 N          16.5423  -18.3083   37.6499 N.2       1 ALA2        0.0000 
     77 O          17.2081  -19.4761   36.9843 O.2       1 ALA2        0.0000 
     78 O          14.9602  -18.0783   39.0442 O.2       1 ALA2        0.0000 
     79 O          15.6261  -19.2461   38.3786 O.2       1 ALA2        0.0000 
     80 O          16.7254  -15.1820   35.7283 O.2       1 ALA2        0.0000 
     81 CA         15.1434  -14.9520   37.1227 C.3       5 GLY6        0.0000 
     82 N          15.8092  -16.1197   36.4571 N.2       1 ALA2        0.0000 
     83 N          16.4750  -17.2875   35.7915 N.2       1 ALA2        0.0000 
     84 N          14.2271  -15.8898   37.8514 N.2       1 ALA2        0.0000 
     85 DU         14.8930  -17.0575   37.1859 H         6 CUB7        0.0000 
     86 N          15.5588  -18.2253   36.5203 N.2       1 ALA2        0.0000 
     87 O          13.3109  -16.8275   38.5802 O.2       1 ALA2        0.0000 
     88 O          13.9768  -17.9953   37.9147 O.2       1 ALA2        0.0000 
     89 O          14.6426  -19.1631   37.2491 O.2       1 ALA2        0.0000 
     90 N          15.3085  -20.3308   36.5835 N.2       1 ALA2        0.0000 
     91 O          12.3947  -17.7653   39.3090 O.2       1 ALA2        0.0000 
     92 O          13.7264  -20.1008   37.9779 O.2       1 ALA2        0.0000 
@<TRIPOS>BOND
@<TRIPOS>SUBSTRUCTURE
     1 ALA2        1 GROUP   
     2 ASP3       19 GROUP   
     3 LYS4       24 GROUP   
     4 PHE5        3 GROUP   
     5 GLY6       25 GROUP   
     6 CUB7        2 GROUP   
@<TRIPOS>SET

