#    Name: 4dlk_ATP_4_INTS_M
#    Modification time : Tue Mar 25 09:53:34 2014

@<TRIPOS>MOLECULE
4dlk_ATP_4_INTS_M
   75     0    12     0     0
SMALL
NO_CHARGES


@<TRIPOS>ATOM
      1 N           9.4150  -16.0960   37.2385 N.am      2 SEC2        0.0000 
      2 N           9.9900  -16.3360   35.9780 N.am     10 SEL2        0.0000 
      3 N           8.8400  -15.8560   38.4990 N.am      6 SEP2        0.0000 
      4 N          10.6455  -18.1235   32.8680 N.am      2 SEC2        0.0000 
      5 N          11.0490  -17.4170   33.9420 N.am     10 SEL2        0.0000 
      6 N          10.2420  -18.8300   31.7940 N.am      6 SEP2        0.0000 
      7 N          10.9310  -17.0645   39.4290 N.am      2 SEC2        0.0000 
      8 N          10.9270  -18.1420   38.5320 N.am     10 SEL2        0.0000 
      9 N          10.9350  -15.9870   40.3260 N.am      6 SEP2        0.0000 
     10 NZ         12.3845  -21.8390   37.5665 N.4       3 LYC4        0.0000 
     11 NZ         11.5410  -20.3470   37.2660 N.4      11 LYL4        0.0000 
     12 NZ         12.4970  -23.3200   38.9720 N.4       7 LYP4        0.0000 
     13 N          12.3845  -21.8390   37.5665 N.am      2 SEC2        0.0000 
     14 N          11.5410  -20.3470   37.2660 N.am     10 SEL2        0.0000 
     15 N          13.2280  -23.3310   37.8670 N.am      6 SEP2        0.0000 
     16 N          11.7085  -21.2740   38.2995 N.am      2 SEC2        0.0000 
     17 N          11.8760  -22.2010   39.3330 N.am      6 SEP2        0.0000 
     18 N          15.8415  -19.5525   35.0675 N.am      2 SEC2        0.0000 
     19 N          14.6800  -19.0020   35.8760 N.am     10 SEL2        0.0000 
     20 N          17.0030  -20.1030   34.2590 N.am      6 SEP2        0.0000 
     21 NZ         14.0130  -22.0060   37.8665 N.4       3 LYC4        0.0000 
     22 NZ         14.7980  -20.6810   37.8660 N.4      11 LYL4        0.0000 
     23 NZ         15.9815  -21.4290   38.3415 N.4       3 LYC4        0.0000 
     24 NZ         17.1650  -22.1770   38.8170 N.4       7 LYP4        0.0000 
     25 N          14.0130  -22.0060   37.8665 N.am      2 SEC2        0.0000 
     26 N          14.7980  -20.6810   37.8660 N.am     10 SEL2        0.0000 
     27 N          15.9815  -21.4290   38.3415 N.am      2 SEC2        0.0000 
     28 N          17.1650  -22.1770   38.8170 N.am      6 SEP2        0.0000 
     29 N          14.3360  -20.2380   39.3200 N.am      2 SEC2        0.0000 
     30 N          13.8740  -19.7950   40.7740 N.am      6 SEP2        0.0000 
     31 N          13.5800  -19.2285   39.4055 N.am      2 SEC2        0.0000 
     32 N          13.2860  -18.6620   38.0370 N.am     10 SEL2        0.0000 
     33 CA         14.6910  -15.2395   39.2270 C.3       4 GLC5        0.0000 
     34 CA         15.5170  -16.9050   37.9670 C.3      12 GLL5        0.0000 
     35 CA         13.8650  -13.5740   40.4870 C.3       8 GLP5        0.0000 
     36 O          18.5585  -14.8730   35.0985 O.2       1 ALC1        0.0000 
     37 O          17.3360  -15.9460   35.4700 O.2       9 ALL1        0.0000 
     38 O          19.7810  -13.8000   34.7270 O.2       5 ALP1        0.0000 
     39 O          18.2645  -15.8180   34.6225 O.2       1 ALC1        0.0000 
     40 O          19.1930  -15.6900   33.7750 O.2       5 ALP1        0.0000 
     41 CA         21.2395  -16.2435   36.6915 C.3       4 GLC5        0.0000 
     42 CA         19.1000  -16.3460   37.1250 C.3      12 GLL5        0.0000 
     43 CA         23.3790  -16.1410   36.2580 C.3       8 GLP5        0.0000 
     44 O          19.5740  -14.3735   35.8655 O.2       1 ALC1        0.0000 
     45 O          19.3670  -14.9470   37.0040 O.2       9 ALL1        0.0000 
     46 O          19.2800  -15.3185   35.3895 O.2       1 ALC1        0.0000 
     47 CA         20.3265  -16.5405   40.3365 C.3       4 GLC5        0.0000 
     48 CA         19.0490  -16.6840   38.6060 C.3      12 GLL5        0.0000 
     49 CA         21.6040  -16.3970   42.0670 C.3       8 GLP5        0.0000 
     50 CA         19.8520  -18.1035   37.0595 C.3       4 GLC5        0.0000 
     51 CA         20.6550  -19.5230   35.5130 C.3       8 GLP5        0.0000 
     52 N          18.2190  -21.2515   38.8965 N.am      2 SEC2        0.0000 
     53 N          19.2730  -20.3260   38.9760 N.am     10 SEL2        0.0000 
     54 CA         18.7305  -21.0565   39.6555 C.3       4 GLC5        0.0000 
     55 CA         20.5800  -20.0230   39.0310 C.3      12 GLL5        0.0000 
     56 CA         16.8810  -22.0900   40.2800 C.3       8 GLP5        0.0000 
     57 CA         23.4130  -21.1505   40.3760 C.3       4 GLC5        0.0000 
     58 CA         21.8430  -20.7810   39.1830 C.3      12 GLL5        0.0000 
     59 CA         24.9830  -21.5200   41.5690 C.3       8 GLP5        0.0000 
     60 O          20.7425  -22.9205   39.2175 O.2       1 ALC1        0.0000 
     61 O          21.8290  -22.1240   39.3140 O.2       9 ALL1        0.0000 
     62 O          19.6560  -23.7170   39.1210 O.2       5 ALP1        0.0000 
     63 O          22.8940  -22.9955   39.8705 O.2       1 ALC1        0.0000 
     64 O          23.9590  -23.8670   40.4270 O.2       5 ALP1        0.0000 
     65 N          24.3110  -20.5380   39.2445 N.am      2 SEC2        0.0000 
     66 N          23.0000  -20.0860   39.1830 N.am     10 SEL2        0.0000 
     67 N          25.6220  -20.9900   39.3060 N.am      6 SEP2        0.0000 
     68 CA         24.0055  -20.1325   40.3130 C.3       4 GLC5        0.0000 
     69 CA         23.0280  -18.7450   39.0570 C.3      12 GLL5        0.0000 
     70 CA         24.7865  -19.7370   38.6275 C.3       4 GLC5        0.0000 
     71 CA         26.5450  -20.7290   38.1980 C.3       8 GLP5        0.0000 
     72 CA         19.6648  -17.4888   35.7690 C.3       4 GLC5        0.0000 
     73 CA         20.9330  -18.4740   34.6460 C.3       8 GLP5        0.0000 
     74 CA         20.6568  -21.2840   40.8265 C.3       4 GLC5        0.0000 
     75 CA         20.1020  -22.1660   42.5460 C.3       8 GLP5        0.0000 
@<TRIPOS>BOND
@<TRIPOS>SUBSTRUCTURE
     1 ALC1       36 GROUP        1 X    ALC  0     ROOT ALC X 1
     2 SEC2        1 GROUP        1 X    SEC  0     **** SEC X 2
     3 LYC4       10 GROUP        1 X    LYC  0     **** LYC X 4
     4 GLC5       33 GROUP        1 X    GLC  0     **** GLC X 6
     5 ALP1       38 GROUP        1 Y    ALP  0     ROOT ALP Y 8
     6 SEP2        3 GROUP        1 Y    SEP  0     **** SEP Y 9
     7 LYP4       12 GROUP        1 Y    LYP  0     **** LYP Y 11
     8 GLP5       35 GROUP        1 Y    GLP  0     **** GLP Y 13
     9 ALL1       37 GROUP        1 Z    ALL  0     ROOT ALL Z 15
    10 SEL2        2 GROUP        1 Z    SEL  0     **** SEL Z 16
    11 LYL4       11 GROUP        1 Z    LYL  0     **** LYL Z 18
    12 GLL5       34 GROUP        1 Z    GLL  0     **** GLL Z 20
@<TRIPOS>SET

