#    Name: 4dlk_ATP_4_ligand
#    Modification time : Tue Mar 25 09:53:34 2014

@<TRIPOS>MOLECULE
4dlk_ATP_4_ligand
   43    45     1     0     0
SMALL
NO_CHARGES


@<TRIPOS>ATOM
      1 PG         10.4520  -17.6100   35.3170 P.3       1 ATP403      0.0000 
      2 O1G         9.4320  -18.7180   35.3960 O.co2     1 ATP403      0.0000 
      3 O2G         9.9900  -16.3360   35.9780 O.co2     1 ATP403      0.0000 
      4 O3G        11.0490  -17.4170   33.9420 O.co2     1 ATP403      0.0000 
      5 PB         11.7750  -18.8860   37.5310 P.3       1 ATP403      0.0000 
      6 O1B        10.9270  -18.1420   38.5320 O.co2     1 ATP403      0.0000 
      7 O2B        11.5410  -20.3470   37.2660 O.co2     1 ATP403      0.0000 
      8 O3B        11.7680  -18.0730   36.1390 O.3       1 ATP403      0.0000 
      9 PA         14.6190  -19.2730   37.3580 P.3       1 ATP403      0.0000 
     10 O1A        14.6800  -19.0020   35.8760 O.co2     1 ATP403      0.0000 
     11 O2A        14.7980  -20.6810   37.8660 O.co2     1 ATP403      0.0000 
     12 O3A        13.2860  -18.6620   38.0370 O.3       1 ATP403      0.0000 
     13 O5'        15.6890  -18.3160   38.0550 O.3       1 ATP403      0.0000 
     14 C5'        15.5170  -16.9050   37.9670 C.3       1 ATP403      0.0000 
     15 C4'        16.8690  -16.2160   37.8560 C.3       1 ATP403      0.0000 
     16 O4'        17.6840  -16.4780   39.0040 O.3       1 ATP403      0.0000 
     17 C3'        17.6930  -16.6610   36.6590 C.3       1 ATP403      0.0000 
     18 O3'        17.3360  -15.9460   35.4700 O.3       1 ATP403      0.0000 
     19 C2'        19.1000  -16.3460   37.1250 C.3       1 ATP403      0.0000 
     20 O2'        19.3670  -14.9470   37.0040 O.3       1 ATP403      0.0000 
     21 C1'        19.0490  -16.6840   38.6060 C.3       1 ATP403      0.0000 
     22 N9         19.4350  -18.1080   38.7770 N.pl3     1 ATP403      0.0000 
     23 C8         18.5940  -19.1610   38.8280 C.2       1 ATP403      0.0000 
     24 N7         19.2730  -20.3260   38.9760 N.2       1 ATP403      0.0000 
     25 C5         20.5800  -20.0230   39.0310 C.ar      1 ATP403      0.0000 
     26 C6         21.8430  -20.7810   39.1830 C.ar      1 ATP403      0.0000 
     27 N6         21.8290  -22.1240   39.3140 N.pl3     1 ATP403      0.0000 
     28 N1         23.0000  -20.0860   39.1830 N.ar      1 ATP403      0.0000 
     29 C2         23.0280  -18.7450   39.0570 C.ar      1 ATP403      0.0000 
     30 N3         21.9210  -17.9950   38.9170 N.ar      1 ATP403      0.0000 
     31 C4         20.6870  -18.5630   38.8960 C.ar      1 ATP403      0.0000 
     32 H          15.0061  -16.5015   38.8528 H         1 ATP403      0.0000 
     33 H          14.9224  -16.6219   37.0868 H         1 ATP403      0.0000 
     34 H          16.7106  -15.1412   37.7620 H         1 ATP403      0.0000 
     35 H          17.6006  -17.7165   36.5739 H         1 ATP403      0.0000 
     36 H          19.7823  -16.9646   36.6534 H         1 ATP403      0.0000 
     37 H          19.7124  -16.0449   39.1211 H         1 ATP403      0.0000 
     38 H          17.6153  -19.0972   38.7663 H         1 ATP403      0.0000 
     39 H          20.9271  -22.5559   39.3222 H         1 ATP403      0.0000 
     40 H          22.7217  -22.5679   39.3912 H         1 ATP403      0.0000 
     41 H          23.9743  -18.2559   39.0690 H         1 ATP403      0.0000 
     42 H          18.1943  -15.5584   35.1337 H         1 ATP403      0.0000 
     43 H          19.4548  -14.7845   36.0212 H         1 ATP403      0.0000 
@<TRIPOS>BOND
     1    2    1 ar   
     2    3    1 ar   
     3    4    1 ar   
     4    8    1 1    
     5    6    5 ar   
     6    7    5 ar   
     7    8    5 1    
     8   12    5 1    
     9   10    9 ar   
    10   11    9 ar   
    11   12    9 1    
    12   13    9 1    
    13   14   13 1    
    14   15   14 1    
    15   32   14 1    
    16   33   14 1    
    17   16   15 1    
    18   17   15 1    
    19   34   15 1    
    20   21   16 1    
    21   18   17 1    
    22   19   17 1    
    23   35   17 1    
    24   42   18 1    
    25   20   19 1    
    26   21   19 1    
    27   36   19 1    
    28   43   20 1    
    29   22   21 1    
    30   37   21 1    
    31   23   22 1    
    32   31   22 1    
    33   24   23 2    
    34   38   23 1    
    35   25   24 1    
    36   26   25 ar   
    37   31   25 ar   
    38   27   26 1    
    39   28   26 ar   
    40   39   27 1    
    41   40   27 1    
    42   29   28 ar   
    43   30   29 ar   
    44   41   29 1    
    45   31   30 ar   
@<TRIPOS>SUBSTRUCTURE
     1 ATP403      1 GROUP   
@<TRIPOS>SET

