#    Name: 1A4R_1_CAVITY_N1_ALL.mol2
#    Modification time : Mon Mar 10 12:32:20 2014

@<TRIPOS>MOLECULE
1A4R_1_CAVITY_N1_ALL.mol2
   71     0     5     0     0
SMALL
NO_CHARGES


@<TRIPOS>ATOM
      1 CA        103.6352   29.5630   -0.2874 C.3       4 GLY6        0.0000 
      2 CA        104.0815   29.7195   -1.7108 C.3       4 GLY6        0.0000 
      3 N         104.5278   29.8760   -3.1343 N.2       2 ALA2        0.0000 
      4 CA        103.4207   27.9272    1.0462 C.3       4 GLY6        0.0000 
      5 CA        103.8670   28.0837   -0.3773 C.3       4 GLY6        0.0000 
      6 CA        104.3133   28.2402   -1.8008 C.3       4 GLY6        0.0000 
      7 N         104.7596   28.3967   -3.2243 N.2       2 ALA2        0.0000 
      8 CA        103.2061   26.2915    2.3797 C.3       4 GLY6        0.0000 
      9 CA        103.6524   26.4480    0.9562 C.3       4 GLY6        0.0000 
     10 DU        104.0988   26.6045   -0.4672 H         5 CUB7        0.0000 
     11 CA        104.5451   26.7610   -1.8907 C.3       4 GLY6        0.0000 
     12 N         103.4379   24.8122    2.2898 N.2       2 ALA2        0.0000 
     13 CA        103.8842   24.9687    0.8663 C.3       4 GLY6        0.0000 
     14 DU        104.3305   25.1252   -0.5572 H         5 CUB7        0.0000 
     15 CA        104.7769   25.2817   -1.9807 C.3       4 GLY6        0.0000 
     16 CA        104.1160   23.4895    0.7763 C.3       4 GLY6        0.0000 
     17 CA        104.5623   23.6460   -0.6471 C.3       4 GLY6        0.0000 
     18 CA        104.3478   22.0102    0.6864 C.3       4 GLY6        0.0000 
     19 CA        102.2220   29.3698   -0.7517 C.3       4 GLY6        0.0000 
     20 CA        102.0075   27.7340    0.5819 C.3       4 GLY6        0.0000 
     21 CA        102.4538   27.8905   -0.8416 C.3       4 GLY6        0.0000 
     22 O         102.9001   28.0470   -2.2651 O.2       2 ALA2        0.0000 
     23 OG        102.2393   26.2548    0.4919 O.2       1 SER1        0.0000 
     24 DU        102.6856   26.4113   -0.9316 H         5 CUB7        0.0000 
     25 CA        103.1319   26.5678   -2.3551 C.3       4 GLY6        0.0000 
     26 OG        102.0247   24.6190    1.8255 O.2       1 SER1        0.0000 
     27 OG        102.4711   24.7755    0.4020 O.2       1 SER1        0.0000 
     28 DU        102.9174   24.9320   -1.0215 H         5 CUB7        0.0000 
     29 O         103.3637   25.0885   -2.4450 O.2       2 ALA2        0.0000 
     30 N         102.2565   23.1398    1.7355 N.2       2 ALA2        0.0000 
     31 DU        102.7028   23.2963    0.3120 H         5 CUB7        0.0000 
     32 DU        103.1492   23.4528   -1.1115 H         5 CUB7        0.0000 
     33 CA        103.5955   23.6093   -2.5350 C.3       4 GLY6        0.0000 
     34 N         102.4883   21.6605    1.6456 N.2       2 ALA2        0.0000 
     35 N         102.9346   21.8170    0.2221 N.2       2 ALA2        0.0000 
     36 CA        103.3809   21.9735   -1.2014 C.3       4 GLY6        0.0000 
     37 N         103.1664   20.3378    0.1321 N.2       2 ALA2        0.0000 
     38 N         103.6127   20.4943   -1.2914 N.2       2 ALA2        0.0000 
     39 OG        101.2724   26.2181   -1.3959 O.2       1 SER1        0.0000 
     40 O         101.7187   26.3746   -2.8194 O.2       2 ALA2        0.0000 
     41 OG        101.5042   24.7388   -1.4858 O.2       1 SER1        0.0000 
     42 O         101.9505   24.8953   -2.9093 O.2       2 ALA2        0.0000 
     43 OG        101.2897   23.1031   -0.1523 O.2       1 SER1        0.0000 
     44 DU        101.7360   23.2596   -1.5758 H         5 CUB7        0.0000 
     45 CA        102.1823   23.4161   -2.9993 C.3       4 GLY6        0.0000 
     46 O         101.0751   21.4673    1.1812 O.2       2 ALA2        0.0000 
     47 DU        101.5214   21.6238   -0.2423 H         5 CUB7        0.0000 
     48 N         101.9678   21.7803   -1.6657 N.2       2 ALA2        0.0000 
     49 O         101.3069   19.9881    1.0913 O.2       2 ALA2        0.0000 
     50 DU        101.7532   20.1446   -0.3322 H         5 CUB7        0.0000 
     51 N         102.1995   20.3011   -1.7557 N.2       2 ALA2        0.0000 
     52 CA        106.2470   28.3136    1.9748 C.3       4 GLY6        0.0000 
     53 CA        106.4788   26.8344    1.8849 C.3       4 GLY6        0.0000 
     54 CA        105.0484   29.7562    0.1770 C.3       4 GLY6        0.0000 
     55 DU        105.4947   29.9127   -1.2465 H         5 CUB7        0.0000 
     56 CA        104.8338   28.1204    1.5105 C.3       4 GLY6        0.0000 
     57 DU        105.2802   28.2769    0.0870 H         5 CUB7        0.0000 
     58 DU        105.7265   28.4334   -1.3365 H         5 CUB7        0.0000 
     59 CA        105.0656   26.6412    1.4206 C.3       4 GLY6        0.0000 
     60 DU        105.5119   26.7977   -0.0029 H         5 CUB7        0.0000 
     61 DU        105.9583   26.9542   -1.4264 H         5 CUB7        0.0000 
     62 CA        105.2974   25.1619    1.3306 C.3       4 GLY6        0.0000 
     63 CA        105.7437   25.3184   -0.0929 C.3       4 GLY6        0.0000 
     64 OD1       100.0910   24.5456   -1.9502 O.3       3 ASP3        0.0000 
     65 OG         99.8765   22.9099   -0.6166 O.2       1 SER1        0.0000 
     66 OD1       100.3228   23.0664   -2.0401 O.3       3 ASP3        0.0000 
     67 OD1       100.7691   23.2229   -3.4636 O.3       3 ASP3        0.0000 
     68 CA         99.6619   21.2741    0.7169 C.3       4 GLY6        0.0000 
     69 N         100.1083   21.4306   -0.7066 N.2       2 ALA2        0.0000 
     70 N         100.5546   21.5871   -2.1301 N.2       2 ALA2        0.0000 
     71 CA        100.3401   19.9514   -0.7965 C.3       4 GLY6        0.0000 
@<TRIPOS>BOND
@<TRIPOS>SUBSTRUCTURE
     1 SER1       23 GROUP   
     2 ALA2        3 GROUP   
     3 ASP3       64 GROUP   
     4 GLY6        1 GROUP   
     5 CUB7       10 GROUP   
@<TRIPOS>SET

