#    Name: 1a4r_GNH_1_INTS_M
#    Modification time : Mon Mar 24 17:50:43 2014

@<TRIPOS>MOLECULE
1a4r_GNH_1_INTS_M
   43     0    12     0     0
SMALL
NO_CHARGES


@<TRIPOS>ATOM
      1 NZ         99.4760   25.4320   -3.9135 N.4       3 LYC4        0.0000 
      2 NZ        100.3500   26.2500   -3.2730 N.4      11 LYL4        0.0000 
      3 NZ         98.6020   24.6140   -4.5540 N.4       7 LYP4        0.0000 
      4 N          99.6435   27.5090   -2.9190 N.am      2 SEC2        0.0000 
      5 N         100.3500   26.2500   -3.2730 N.am     10 SEL2        0.0000 
      6 N          98.9370   28.7680   -2.5650 N.am      6 SEP2        0.0000 
      7 N          99.4760   25.4320   -3.9135 N.am      2 SEC2        0.0000 
      8 N          98.6020   24.6140   -4.5540 N.am      6 SEP2        0.0000 
      9 N         101.7485   28.3715   -3.1690 N.am      2 SEC2        0.0000 
     10 N         102.4090   27.1490   -2.1360 N.am     10 SEL2        0.0000 
     11 N         101.0880   29.5940   -4.2020 N.am      6 SEP2        0.0000 
     12 N         100.7945   29.0525    0.8780 N.am      2 SEC2        0.0000 
     13 N         101.8500   28.3180    0.0570 N.am     10 SEL2        0.0000 
     14 N          99.7390   29.7870    1.6990 N.am      6 SEP2        0.0000 
     15 CA        104.3885   27.8550   -3.8475 C.3       4 GLC5        0.0000 
     16 CA        104.8640   28.8490   -2.3670 C.3      12 GLL5        0.0000 
     17 CA        103.9130   26.8610   -5.3280 C.3       8 GLP5        0.0000 
     18 CA        102.8300   29.5635   -2.6610 C.3       4 GLC5        0.0000 
     19 CA        100.7960   30.2780   -2.9550 C.3       8 GLP5        0.0000 
     20 CA        101.0200   34.9060   -0.6735 C.3       4 GLC5        0.0000 
     21 CA        102.8070   34.5960   -1.8890 C.3      12 GLL5        0.0000 
     22 CA         99.2330   35.2160    0.5420 C.3       8 GLP5        0.0000 
     23 N         100.1085   36.8250   -1.5360 N.am      2 SEC2        0.0000 
     24 N         101.2060   36.3850   -2.3060 N.am     10 SEL2        0.0000 
     25 N          99.0110   37.2650   -0.7660 N.am      6 SEP2        0.0000 
     26 N         101.0695   37.1745   -0.7575 N.am      2 SEC2        0.0000 
     27 N         100.9330   37.9640    0.7910 N.am      6 SEP2        0.0000 
     28 O         103.0995   38.1740   -2.8995 O.2       1 ALC1        0.0000 
     29 O         103.4480   36.8880   -2.5220 O.2       9 ALL1        0.0000 
     30 O         102.7510   39.4600   -3.2770 O.2       5 ALP1        0.0000 
     31 O         104.1595   38.4475   -2.8580 O.2       1 ALC1        0.0000 
     32 O         104.8710   40.0070   -3.1940 O.2       5 ALP1        0.0000 
     33 O         105.3020   38.7620   -2.9805 O.2       1 ALC1        0.0000 
     34 O         105.7330   37.5170   -2.7670 O.2       9 ALL1        0.0000 
     35 CA        104.2248   31.3872    0.5657 C.3       4 GLC5        0.0000 
     36 CA        105.5820   32.1390   -1.3490 C.3      12 GLL5        0.0000 
     37 CA        102.7910   31.0720    1.8540 C.3       8 GLP5        0.0000 
     38 CA        104.9477   33.1343    0.6647 C.3       4 GLC5        0.0000 
     39 CA        105.7350   31.2660   -0.0960 C.3      12 GLL5        0.0000 
     40 CA        104.2370   34.5660    2.0520 C.3       8 GLP5        0.0000 
     41 CA        102.7790   34.4752   -3.7293 C.3       4 GLC5        0.0000 
     42 CA        104.2050   34.3230   -1.8660 C.3      12 GLL5        0.0000 
     43 CA        102.0520   34.4910   -5.5810 C.3       8 GLP5        0.0000 
@<TRIPOS>BOND
@<TRIPOS>SUBSTRUCTURE
     1 ALC1       28 GROUP        1 X    ALC  0     ROOT ALC X 1
     2 SEC2        4 GROUP        1 X    SEC  0     **** SEC X 2
     3 LYC4        1 GROUP        1 X    LYC  0     **** LYC X 4
     4 GLC5       15 GROUP        1 X    GLC  0     **** GLC X 6
     5 ALP1       30 GROUP        1 Y    ALP  0     ROOT ALP Y 8
     6 SEP2        6 GROUP        1 Y    SEP  0     **** SEP Y 9
     7 LYP4        3 GROUP        1 Y    LYP  0     **** LYP Y 11
     8 GLP5       17 GROUP        1 Y    GLP  0     **** GLP Y 13
     9 ALL1       29 GROUP        1 Z    ALL  0     ROOT ALL Z 15
    10 SEL2        5 GROUP        1 Z    SEL  0     **** SEL Z 16
    11 LYL4        2 GROUP        1 Z    LYL  0     **** LYL Z 18
    12 GLL5       16 GROUP        1 Z    GLL  0     **** GLL Z 20
@<TRIPOS>SET

