#    Name: 1a4r_GNH_1_ligand
#    Modification time : Mon Mar 24 17:50:43 2014

@<TRIPOS>MOLECULE
1a4r_GNH_1_ligand
   43    45     1     0     0
SMALL
NO_CHARGES


@<TRIPOS>ATOM
      1 N3B       102.4860   24.8700   -2.9090 N.4       1 GNH400      0.0000 
      2 PB        101.5220   25.8860   -2.4280 P.3       1 GNH400      0.0000 
      3 O1B       100.9830   25.4700   -1.0790 O.co2     1 GNH400      0.0000 
      4 O2B       100.3500   26.2500   -3.2730 O.co2     1 GNH400      0.0000 
      5 O3A       102.4090   27.1490   -2.1360 O.3       1 GNH400      0.0000 
      6 PA        102.9800   27.8190   -0.7750 P.3       1 GNH400      0.0000 
      7 O1A       103.9320   26.8730   -0.1570 O.co2     1 GNH400      0.0000 
      8 O2A       101.8500   28.3180    0.0570 O.co2     1 GNH400      0.0000 
      9 O5'       103.7180   29.0170   -1.4980 O.3       1 GNH400      0.0000 
     10 C5'       104.8640   28.8490   -2.3670 C.3       1 GNH400      0.0000 
     11 C4'       105.9930   29.8990   -2.1000 C.3       1 GNH400      0.0000 
     12 O4'       105.4820   31.1830   -2.4390 O.3       1 GNH400      0.0000 
     13 C3'       106.4630   30.0620   -0.6570 C.3       1 GNH400      0.0000 
     14 O3'       107.8730   30.1930   -0.5940 O.3       1 GNH400      0.0000 
     15 C2'       105.7350   31.2660   -0.0960 C.3       1 GNH400      0.0000 
     16 O2'       106.2980   31.8890    1.0590 O.3       1 GNH400      0.0000 
     17 C1'       105.5820   32.1390   -1.3490 C.3       1 GNH400      0.0000 
     18 N9        104.3150   32.9430   -1.5100 N.pl3     1 GNH400      0.0000 
     19 C8        103.0000   32.5360   -1.3540 C.2       1 GNH400      0.0000 
     20 N7        102.0730   33.4460   -1.5560 N.2       1 GNH400      0.0000 
     21 C5        102.8070   34.5960   -1.8890 C.2       1 GNH400      0.0000 
     22 C6        102.3660   35.9710   -2.2360 C.2       1 GNH400      0.0000 
     23 O6        101.2060   36.3850   -2.3060 O.2       1 GNH400      0.0000 
     24 N1        103.4480   36.8880   -2.5220 N.am      1 GNH400      0.0000 
     25 C2        104.8390   36.5560   -2.4810 C.2       1 GNH400      0.0000 
     26 N2        105.7330   37.5170   -2.7670 N.pl3     1 GNH400      0.0000 
     27 N3        105.2800   35.2710   -2.1570 N.2       1 GNH400      0.0000 
     28 C4        104.2050   34.3230   -1.8660 C.2       1 GNH400      0.0000 
     29 H         104.5828   28.9445   -3.4302 H         1 GNH400      0.0000 
     30 H         105.3200   27.8509   -2.2467 H         1 GNH400      0.0000 
     31 H         106.8378   29.6682   -2.7212 H         1 GNH400      0.0000 
     32 H         106.1127   29.1850   -0.1131 H         1 GNH400      0.0000 
     33 H         104.6920   30.8964    0.1053 H         1 GNH400      0.0000 
     34 H         106.4350   32.7390   -1.4946 H         1 GNH400      0.0000 
     35 H         102.7970   31.5708   -1.0947 H         1 GNH400      0.0000 
     36 H         103.1857   37.8711   -2.7787 H         1 GNH400      0.0000 
     37 H         105.4584   38.4530   -2.5470 H         1 GNH400      0.0000 
     38 H         106.5933   37.2106   -3.1744 H         1 GNH400      0.0000 
     39 H         103.1944   25.2746   -3.4873 H         1 GNH400      0.0000 
     40 H         102.9519   24.4123   -2.1517 H         1 GNH400      0.0000 
     41 H         102.0370   24.1587   -3.4499 H         1 GNH400      0.0000 
     42 H         108.0344   30.9506    0.0385 H         1 GNH400      0.0000 
     43 H         106.1779   32.8703    0.9080 H         1 GNH400      0.0000 
@<TRIPOS>BOND
     1    2    1 1    
     2   39    1 1    
     3   40    1 1    
     4   41    1 1    
     5    3    2 ar   
     6    4    2 ar   
     7    5    2 1    
     8    6    5 1    
     9    7    6 ar   
    10    8    6 ar   
    11    9    6 1    
    12   10    9 1    
    13   11   10 1    
    14   29   10 1    
    15   30   10 1    
    16   12   11 1    
    17   13   11 1    
    18   31   11 1    
    19   17   12 1    
    20   14   13 1    
    21   15   13 1    
    22   32   13 1    
    23   42   14 1    
    24   16   15 1    
    25   17   15 1    
    26   33   15 1    
    27   43   16 1    
    28   18   17 1    
    29   34   17 1    
    30   19   18 1    
    31   28   18 1    
    32   20   19 2    
    33   35   19 1    
    34   21   20 1    
    35   22   21 1    
    36   28   21 2    
    37   23   22 2    
    38   24   22 am   
    39   25   24 1    
    40   36   24 1    
    41   26   25 1    
    42   27   25 2    
    43   37   26 1    
    44   38   26 1    
    45   28   27 1    
@<TRIPOS>SUBSTRUCTURE
     1 GNH400      1 GROUP   
@<TRIPOS>SET

