#    Name: 1odm_ASV_1_INTS_M
#    Modification time : Mon Mar 24 19:58:27 2014

@<TRIPOS>MOLECULE
1odm_ASV_1_INTS_M
   57     0     9     0     0
SMALL
NO_CHARGES


@<TRIPOS>ATOM
      1 CA         16.2355   34.5650    6.8695 C.3       3 GLC5        0.0000 
      2 CA         15.8030   36.3740    6.1740 C.3       9 GLL5        0.0000 
      3 CA         16.6680   32.7560    7.5650 C.3       6 GLP5        0.0000 
      4 CA         14.3725   34.9025    5.9990 C.3       3 GLC5        0.0000 
      5 CA         12.9420   33.4310    5.8240 C.3       6 GLP5        0.0000 
      6 CA         16.2115   39.1540    4.8640 C.3       3 GLC5        0.0000 
      7 CA         15.2240   37.6200    5.4870 C.3       9 GLL5        0.0000 
      8 CA         17.1990   40.6880    4.2410 C.3       6 GLP5        0.0000 
      9 CA         15.2640   39.9610    4.7735 C.3       3 GLC5        0.0000 
     10 CA         13.3290   39.2340    5.3060 C.3       9 GLL5        0.0000 
     11 CA         12.9710   41.1420    4.9900 C.3       3 GLC5        0.0000 
     12 CA         12.6130   43.0500    4.6740 C.3       6 GLP5        0.0000 
     13 CA         10.5445   38.2165    3.5905 C.3       3 GLC5        0.0000 
     14 CA          9.5400   39.6740    4.9330 C.3       9 GLL5        0.0000 
     15 CA         11.5490   36.7590    2.2480 C.3       6 GLP5        0.0000 
     16 CA         10.8715   41.8825    4.2625 C.3       3 GLC5        0.0000 
     17 CA          9.1300   40.7150    3.8510 C.3       9 GLL5        0.0000 
     18 CA         10.4935   38.3315    2.2520 C.3       3 GLC5        0.0000 
     19 CA          9.4380   39.9040    2.2560 C.3       9 GLL5        0.0000 
     20 NZ         19.4745   36.0900    6.0495 N.4       2 LYC4        0.0000 
     21 NZ         18.1810   36.2130    6.5470 N.4       8 LYL4        0.0000 
     22 NZ         20.9840   35.4650    4.3440 N.4       5 LYP4        0.0000 
     23 N          19.4745   36.0900    6.0495 N.am      1 SEC2        0.0000 
     24 N          18.1810   36.2130    6.5470 N.am      7 SEL2        0.0000 
     25 N          20.7680   35.9670    5.5520 N.am      4 SEP2        0.0000 
     26 NZ         18.6585   35.5780    4.0140 N.4       2 LYC4        0.0000 
     27 NZ         17.3630   35.8960    4.4860 N.4       8 LYL4        0.0000 
     28 N          18.6585   35.5780    4.0140 N.am      1 SEC2        0.0000 
     29 N          17.3630   35.8960    4.4860 N.am      7 SEL2        0.0000 
     30 N          19.9540   35.2600    3.5420 N.am      4 SEP2        0.0000 
     31 N          16.8915   34.8380    3.7745 N.am      1 SEC2        0.0000 
     32 N          16.4200   33.7800    3.0630 N.am      4 SEP2        0.0000 
     33 CA          7.1515   35.8490    5.4900 C.3       3 GLC5        0.0000 
     34 CA          6.6850   37.1260    4.2900 C.3       9 GLL5        0.0000 
     35 CA          7.6180   34.5720    6.6900 C.3       6 GLP5        0.0000 
     36 CA          7.9415   35.1940    2.9725 C.3       3 GLC5        0.0000 
     37 CA          6.3350   36.7270    2.8020 C.3       9 GLL5        0.0000 
     38 CA          9.5480   33.6610    3.1430 C.3       6 GLP5        0.0000 
     39 CA          8.5570   35.2235    1.7260 C.3       3 GLC5        0.0000 
     40 CA          7.5190   36.7400    1.8000 C.3       9 GLL5        0.0000 
     41 CA          9.5950   33.7070    1.6520 C.3       6 GLP5        0.0000 
     42 CA          9.5340   36.7495    2.0240 C.3       3 GLC5        0.0000 
     43 N           4.4975   38.2520    7.1300 N.am      1 SEC2        0.0000 
     44 N           5.2160   38.2230    5.9640 N.am      7 SEL2        0.0000 
     45 N           3.7790   38.2810    8.2960 N.am      4 SEP2        0.0000 
     46 N           4.5395   35.2310    4.3940 N.am      1 SEC2        0.0000 
     47 N           4.4940   36.4950    4.8190 N.am      7 SEL2        0.0000 
     48 N           4.5850   33.9670    3.9690 N.am      4 SEP2        0.0000 
     49 CA         13.1982   37.2069    4.1787 C.3       3 GLC5        0.0000 
     50 CA         13.7880   37.9270    6.0150 C.3       9 GLL5        0.0000 
     51 CA         12.4790   35.9100    2.8290 C.3       6 GLP5        0.0000 
     52 CA          8.4760   41.7348    5.1110 C.3       3 GLC5        0.0000 
     53 CA          7.6170   43.2750    5.8300 C.3       6 GLP5        0.0000 
     54 CA          8.9040   41.9663    2.4118 C.3       3 GLC5        0.0000 
     55 CA          8.5240   43.6230    1.7700 C.3       6 GLP5        0.0000 
     56 CA          6.4315   34.9517    1.5330 C.3       3 GLC5        0.0000 
     57 CA          5.9360   33.1700    0.7650 C.3       6 GLP5        0.0000 
@<TRIPOS>BOND
@<TRIPOS>SUBSTRUCTURE
     1 SEC2       23 GROUP        1 X    SEC  0     ROOT SEC X 2
     2 LYC4       20 GROUP        1 X    LYC  0     **** LYC X 4
     3 GLC5        1 GROUP        1 X    GLC  0     **** GLC X 6
     4 SEP2       25 GROUP        1 Y    SEP  0     ROOT SEP Y 9
     5 LYP4       22 GROUP        1 Y    LYP  0     **** LYP Y 11
     6 GLP5        3 GROUP        1 Y    GLP  0     **** GLP Y 13
     7 SEL2       24 GROUP        1 Z    SEL  0     ROOT SEL Z 16
     8 LYL4       21 GROUP        1 Z    LYL  0     **** LYL Z 18
     9 GLL5        2 GROUP        1 Z    GLL  0     **** GLL Z 20
@<TRIPOS>SET

