#    Name: 1odm_ASV_1_ligand
#    Modification time : Mon Mar 24 19:58:27 2014

@<TRIPOS>MOLECULE
1odm_ASV_1_ligand
   40    39     1     0     0
SMALL
NO_CHARGES


@<TRIPOS>ATOM
      1 C1         17.2330   36.1320    5.7040 C.2       1 ASV1332     0.0000 
      2 C2         15.8030   36.3740    6.1740 C.3       1 ASV1332     0.0000 
      3 C3         15.2240   37.6200    5.4870 C.3       1 ASV1332     0.0000 
      4 C4         13.7880   37.9270    6.0150 C.3       1 ASV1332     0.0000 
      5 C7         13.3290   39.2340    5.3060 C.3       1 ASV1332     0.0000 
      6 C10        11.9260   39.5390    5.7110 C.2       1 ASV1332     0.0000 
      7 N11        10.9900   39.5010    4.7880 N.am      1 ASV1332     0.0000 
      8 C12         9.5400   39.6740    4.9330 C.3       1 ASV1332     0.0000 
      9 C13         8.8560   38.2970    4.7380 C.2       1 ASV1332     0.0000 
     10 N14        15.8450   36.5270    7.6930 N.4       1 ASV1332     0.0000 
     11 O15        11.6530   39.8190    6.9090 O.2       1 ASV1332     0.0000 
     12 C16         9.1300   40.7150    3.8510 C.3       1 ASV1332     0.0000 
     13 S17         9.4380   39.9040    2.2560 S.3       1 ASV1332     0.0000 
     14 O18         9.3780   37.2010    4.8680 O.2       1 ASV1332     0.0000 
     15 O19        18.1810   36.2130    6.5470 O.co2     1 ASV1332     0.0000 
     16 O20        17.3630   35.8960    4.4860 O.co2     1 ASV1332     0.0000 
     17 N29         7.5550   38.3100    4.3890 N.am      1 ASV1332     0.0000 
     18 C30         6.6850   37.1260    4.2900 C.3       1 ASV1332     0.0000 
     19 C31         5.3930   37.3410    5.1050 C.2       1 ASV1332     0.0000 
     20 C32         6.3350   36.7270    2.8020 C.2       1 ASV1332     0.0000 
     21 C33         7.5190   36.7400    1.8000 C.2       1 ASV1332     0.0000 
     22 O42         5.2160   38.2230    5.9640 O.co2     1 ASV1332     0.0000 
     23 O43         4.4940   36.4950    4.8190 O.co2     1 ASV1332     0.0000 
     24 H          15.2109   35.5179    5.9246 H         1 ASV1332     0.0000 
     25 H          15.1711   37.4535    4.4170 H         1 ASV1332     0.0000 
     26 H          15.8581   38.4754    5.6913 H         1 ASV1332     0.0000 
     27 H          13.8274   38.0891    7.0656 H         1 ASV1332     0.0000 
     28 H          13.1369   37.1303    5.7450 H         1 ASV1332     0.0000 
     29 H          13.3946   39.0789    4.2369 H         1 ASV1332     0.0000 
     30 H          13.9964   40.0320    5.6042 H         1 ASV1332     0.0000 
     31 H          11.2782   39.3177    3.7476 H         1 ASV1332     0.0000 
     32 H           9.3057   40.0622    5.8897 H         1 ASV1332     0.0000 
     33 H           9.7596   41.5400    3.8169 H         1 ASV1332     0.0000 
     34 H           8.1082   40.8976    3.8246 H         1 ASV1332     0.0000 
     35 H           7.0710   39.2269    4.1564 H         1 ASV1332     0.0000 
     36 H           7.1949   36.2557    4.7321 H         1 ASV1332     0.0000 
     37 H           5.4598   36.4982    2.5529 H         1 ASV1332     0.0000 
     38 H          16.7751   36.4386    8.0496 H         1 ASV1332     0.0000 
     39 H          15.5024   37.4196    7.9860 H         1 ASV1332     0.0000 
     40 H          15.2882   35.8344    8.1516 H         1 ASV1332     0.0000 
@<TRIPOS>BOND
     1    2    1 1    
     2   15    1 ar   
     3   16    1 ar   
     4    3    2 1    
     5   10    2 1    
     6   24    2 1    
     7    4    3 1    
     8   25    3 1    
     9   26    3 1    
    10    5    4 1    
    11   27    4 1    
    12   28    4 1    
    13    6    5 1    
    14   29    5 1    
    15   30    5 1    
    16    7    6 am   
    17   11    6 2    
    18    8    7 1    
    19   31    7 1    
    20    9    8 1    
    21   12    8 1    
    22   32    8 1    
    23   14    9 2    
    24   17    9 am   
    25   38   10 1    
    26   39   10 1    
    27   40   10 1    
    28   13   12 1    
    29   33   12 1    
    30   34   12 1    
    31   18   17 1    
    32   35   17 1    
    33   19   18 1    
    34   20   18 1    
    35   36   18 1    
    36   22   19 ar   
    37   23   19 ar   
    38   21   20 2    
    39   37   20 1    
@<TRIPOS>SUBSTRUCTURE
     1 ASV1332     1 GROUP   
@<TRIPOS>SET

