#    Name: 1WS1_1_CAVITY_N1_6.mol2
#    Modification time : Mon Mar 10 16:53:34 2014

@<TRIPOS>MOLECULE
1WS1_1_CAVITY_N1_6.mol2
   73     0     6     0     0
SMALL
NO_CHARGES


@<TRIPOS>ATOM
      1 OG         -7.5555   51.9485   56.6205 O.2       1 SER1        0.0000 
      2 CA         -6.6672   50.8292   56.1645 C.3       5 GLY6        0.0000 
      3 CA         -6.9388   50.0929   57.4428 C.3       5 GLY6        0.0000 
      4 OG         -7.8449   50.1547   55.5258 O.2       1 SER1        0.0000 
      5 OG         -8.1166   49.4184   56.8041 O.2       1 SER1        0.0000 
      6 N          -8.3882   48.6821   58.0824 N.2       2 ALA2        0.0000 
      7 CZ         -9.0227   49.4803   54.8871 C.ar      4 PHE5        0.0000 
      8 CZ         -9.2943   48.7440   56.1654 C.ar      4 PHE5        0.0000 
      9 DU         -9.5659   48.0077   57.4437 H         6 CUB7        0.0000 
     10 CZ        -10.4721   48.0695   55.5267 C.ar      4 PHE5        0.0000 
     11 CZ        -10.7437   47.3332   56.8050 C.ar      4 PHE5        0.0000 
     12 O         -11.9215   46.6587   56.1663 O.2       2 ALA2        0.0000 
     13 N         -13.0992   45.9843   55.5275 N.2       2 ALA2        0.0000 
     14 N          -6.3221   48.2372   58.2652 N.2       2 ALA2        0.0000 
     15 O          -6.9566   49.0354   55.0698 O.2       2 ALA2        0.0000 
     16 CA         -7.2282   48.2991   56.3481 C.3       5 GLY6        0.0000 
     17 N          -7.4999   47.5628   57.6264 N.2       2 ALA2        0.0000 
     18 O          -8.4060   47.6246   55.7094 O.2       2 ALA2        0.0000 
     19 DU         -8.6776   46.8883   56.9877 H         6 CUB7        0.0000 
     20 N          -8.9492   46.1520   58.2660 N.2       2 ALA2        0.0000 
     21 CA         -9.5838   46.9501   55.0707 C.3       5 GLY6        0.0000 
     22 DU         -9.8554   46.2138   56.3490 H         6 CUB7        0.0000 
     23 DU        -10.1270   45.4776   57.6273 H         6 CUB7        0.0000 
     24 O         -11.0332   45.5394   55.7103 O.2       2 ALA2        0.0000 
     25 CZ        -11.3048   44.8031   56.9886 C.ar      4 PHE5        0.0000 
     26 CA        -12.2109   44.8649   55.0715 C.3       5 GLY6        0.0000 
     27 CZ        -12.4825   44.1286   56.3499 C.ar      4 PHE5        0.0000 
     28 N         -13.6603   43.4542   55.7111 N.2       2 ALA2        0.0000 
     29 CA         -6.3399   47.1797   55.8921 C.3       5 GLY6        0.0000 
     30 CA         -6.6115   46.4434   57.1704 C.3       5 GLY6        0.0000 
     31 N          -7.5177   46.5052   55.2534 N.2       2 ALA2        0.0000 
     32 DU         -7.7893   45.7689   56.5317 H         6 CUB7        0.0000 
     33 O          -8.0609   45.0327   57.8100 O.2       2 ALA2        0.0000 
     34 N          -8.9671   45.0945   55.8930 N.2       2 ALA2        0.0000 
     35 CA         -9.2387   44.3582   57.1713 C.3       5 GLY6        0.0000 
     36 N         -10.1448   44.4200   55.2543 N.2       2 ALA2        0.0000 
     37 CA        -10.4164   43.6837   56.5326 C.3       5 GLY6        0.0000 
     38 CA        -11.3226   43.7456   54.6156 C.3       5 GLY6        0.0000 
     39 CZ        -11.5942   43.0093   55.8939 C.ar      4 PHE5        0.0000 
     40 CA        -12.5004   43.0711   53.9768 C.3       5 GLY6        0.0000 
     41 CZ        -12.7720   42.3348   55.2552 C.ar      4 PHE5        0.0000 
     42 CA         -5.4516   46.0603   55.4361 C.3       5 GLY6        0.0000 
     43 CA         -5.7232   45.3240   56.7145 C.3       5 GLY6        0.0000 
     44 N          -6.6294   45.3859   54.7974 N.2       2 ALA2        0.0000 
     45 O          -6.9010   44.6496   56.0757 O.2       2 ALA2        0.0000 
     46 O          -7.1726   43.9133   57.3541 O.2       2 ALA2        0.0000 
     47 N          -7.8072   44.7114   54.1587 N.2       2 ALA2        0.0000 
     48 N          -8.0788   43.9751   55.4370 N.2       2 ALA2        0.0000 
     49 N          -9.2565   43.3007   54.7983 N.2       2 ALA2        0.0000 
     50 CA         -9.5281   42.5644   56.0766 C.3       5 GLY6        0.0000 
     51 N         -10.1627   43.3625   52.8812 N.2       2 ALA2        0.0000 
     52 CA        -10.4343   42.6262   54.1596 C.3       5 GLY6        0.0000 
     53 CZ        -10.7059   41.8899   55.4379 C.ar      4 PHE5        0.0000 
     54 CA        -11.6121   41.9517   53.5208 C.3       5 GLY6        0.0000 
     55 CA        -11.8837   41.2154   54.7992 C.3       5 GLY6        0.0000 
     56 CA         -4.5633   44.9410   54.9801 C.3       5 GLY6        0.0000 
     57 N          -4.8349   44.2047   56.2585 N.2       2 ALA2        0.0000 
     58 CA         -5.4695   45.0028   53.0631 C.3       5 GLY6        0.0000 
     59 N          -5.7411   44.2665   54.3414 N.2       2 ALA2        0.0000 
     60 N          -6.0127   43.5302   55.6197 N.2       2 ALA2        0.0000 
     61 N          -6.9188   43.5920   53.7027 N.2       2 ALA2        0.0000 
     62 NZ         -7.1905   42.8558   54.9810 N.2       3 LYS4        0.0000 
     63 CA         -7.4621   42.1195   56.2593 C.3       5 GLY6        0.0000 
     64 N          -8.0966   42.9176   53.0640 N.2       2 ALA2        0.0000 
     65 CA         -8.3682   42.1813   54.3423 C.3       5 GLY6        0.0000 
     66 CA         -8.6398   41.4450   55.6206 C.3       5 GLY6        0.0000 
     67 CA         -9.5460   41.5068   53.7036 C.3       5 GLY6        0.0000 
     68 CA         -9.8176   40.7705   54.9819 C.3       5 GLY6        0.0000 
     69 N          -3.6750   43.8216   54.5241 N.2       2 ALA2        0.0000 
     70 NZ         -4.8528   43.1471   53.8854 N.2       3 LYS4        0.0000 
     71 NZ         -6.5737   41.0001   55.8034 N.2       3 LYS4        0.0000 
     72 CA         -7.4799   41.0619   53.8863 C.3       5 GLY6        0.0000 
     73 CA         -7.7515   40.3256   55.1646 C.3       5 GLY6        0.0000 
@<TRIPOS>BOND
@<TRIPOS>SUBSTRUCTURE
     1 SER1        1 GROUP   
     2 ALA2        6 GROUP   
     3 LYS4       62 GROUP   
     4 PHE5        7 GROUP   
     5 GLY6        2 GROUP   
     6 CUB7        9 GROUP   
@<TRIPOS>SET

