#    Name: 1ws1_BB2_1_INTS_M
#    Modification time : Tue Mar 25 09:17:14 2014

@<TRIPOS>MOLECULE
1ws1_BB2_1_INTS_M
   64     0     9     0     0
SMALL
NO_CHARGES


@<TRIPOS>ATOM
      1 CA         -4.8720   44.9245   57.4065 C.3       3 GLC5        0.0000 
      2 CA         -4.9730   44.3770   55.2300 C.3       9 GLL5        0.0000 
      3 CA         -4.7710   45.4720   59.5830 C.3       6 GLP5        0.0000 
      4 CA         -4.1435   46.0020   55.5650 C.3       3 GLC5        0.0000 
      5 CA         -3.3140   47.6270   55.9000 C.3       6 GLP5        0.0000 
      6 N          -3.0725   45.0340   52.3840 N.am      2 SEC2        0.0000 
      7 N          -4.4140   44.9500   53.0380 N.am      8 SEL2        0.0000 
      8 N          -1.7310   45.1180   51.7300 N.am      5 SEP2        0.0000 
      9 N          -4.4875   46.3815   53.0545 N.am      2 SEC2        0.0000 
     10 N          -4.5610   47.8130   53.0710 N.am      5 SEP2        0.0000 
     11 O          -4.2280   41.6275   53.8645 O.2       1 ALC1        0.0000 
     12 O          -4.0010   42.8200   53.5250 O.2       7 ALL1        0.0000 
     13 O          -4.4550   40.4350   54.2040 O.2       4 ALP1        0.0000 
     14 O          -3.1080   41.2330   52.7395 O.2       1 ALC1        0.0000 
     15 O          -3.5700   42.5550   52.3880 O.2       7 ALL1        0.0000 
     16 O          -2.6460   39.9110   53.0910 O.2       4 ALP1        0.0000 
     17 CA         -6.5920   45.8130   53.4655 C.3       3 GLC5        0.0000 
     18 CA         -6.5650   44.3290   55.0840 C.3       9 GLL5        0.0000 
     19 CA         -6.6190   47.2970   51.8470 C.3       6 GLP5        0.0000 
     20 N          -6.4760   43.9615   58.4880 N.am      2 SEC2        0.0000 
     21 N          -7.0000   44.6240   57.4030 N.am      8 SEL2        0.0000 
     22 N          -5.9520   43.2990   59.5730 N.am      5 SEP2        0.0000 
     23 CA         -6.7275   42.3070   53.1300 C.3       3 GLC5        0.0000 
     24 CA         -7.0070   42.8300   54.9920 C.3       9 GLL5        0.0000 
     25 CA         -6.4480   41.7840   51.2680 C.3       6 GLP5        0.0000 
     26 CA         -8.0970   42.0635   52.8760 C.3       3 GLC5        0.0000 
     27 CA         -8.5320   42.9080   54.7410 C.3       9 GLL5        0.0000 
     28 CA         -7.6620   41.2190   51.0110 C.3       6 GLP5        0.0000 
     29 CA        -11.9940   40.5015   53.5735 C.3       3 GLC5        0.0000 
     30 CA        -10.5730   41.7530   54.0230 C.3       9 GLL5        0.0000 
     31 CA        -13.4150   39.2500   53.1240 C.3       6 GLP5        0.0000 
     32 CA        -12.5120   41.8675   56.3685 C.3       3 GLC5        0.0000 
     33 CA        -11.5180   42.3420   55.0060 C.3       9 GLL5        0.0000 
     34 CA        -13.5060   41.3930   57.7310 C.3       6 GLP5        0.0000 
     35 CA        -12.9600   41.3395   54.2940 C.3       3 GLC5        0.0000 
     36 CA        -14.4020   40.3370   53.5820 C.3       6 GLP5        0.0000 
     37 CA         -9.5465   48.2715   54.0160 C.3       3 GLC5        0.0000 
     38 CA         -8.7580   48.6800   55.6450 C.3       9 GLL5        0.0000 
     39 CA        -10.3350   47.8630   52.3870 C.3       6 GLP5        0.0000 
     40 CA         -6.1300   46.8455   58.6385 C.3       3 GLC5        0.0000 
     41 CA         -7.4890   48.2190   57.6940 C.3       9 GLL5        0.0000 
     42 CA         -5.6045   48.5895   57.1445 C.3       3 GLC5        0.0000 
     43 CA         -3.7200   48.9600   56.5950 C.3       6 GLP5        0.0000 
     44 N         -11.0925   46.4495   53.9490 N.am      2 SEC2        0.0000 
     45 N         -10.8830   46.1010   55.3110 N.am      8 SEL2        0.0000 
     46 N         -11.3020   46.7980   52.5870 N.am      5 SEP2        0.0000 
     47 CA        -13.2155   43.5985   57.4555 C.3       3 GLC5        0.0000 
     48 CA        -12.9250   45.8040   57.1800 C.3       9 GLL5        0.0000 
     49 CA        -12.8900   43.3710   58.5005 C.3       3 GLC5        0.0000 
     50 CA        -13.4500   45.2600   58.4990 C.3       9 GLL5        0.0000 
     51 CA        -12.3300   41.4820   58.5020 C.3       6 GLP5        0.0000 
     52 CA        -12.7985   48.7745   55.8235 C.3       3 GLC5        0.0000 
     53 CA        -13.7070   47.0270   56.7600 C.3       9 GLL5        0.0000 
     54 CA        -11.8900   50.5220   54.8870 C.3       6 GLP5        0.0000 
     55 CA         -8.4466   42.0515   56.7164 C.3       3 GLC5        0.0000 
     56 CA         -8.4330   41.8590   58.7240 C.3       6 GLP5        0.0000 
     57 CA         -9.5760   39.8560   54.6425 C.3       3 GLC5        0.0000 
     58 CA         -9.1510   41.6190   54.5510 C.3       9 GLL5        0.0000 
     59 CA         -9.2900   38.0260   54.9980 C.3       6 GLP5        0.0000 
     60 CA         -9.0245   40.7665   52.7790 C.3       3 GLC5        0.0000 
     61 CA         -8.1870   39.8470   51.2710 C.3       6 GLP5        0.0000 
     62 CA        -12.0573   42.5588   52.9597 C.3       3 GLC5        0.0000 
     63 CA        -13.0690   43.0700   51.4050 C.3       6 GLP5        0.0000 
     64 CA        -10.3388   49.4438   55.6005 C.3       3 GLC5        0.0000 
@<TRIPOS>BOND
@<TRIPOS>SUBSTRUCTURE
     1 ALC1       11 GROUP        1 X    ALC  0     ROOT ALC X 1
     2 SEC2        6 GROUP        1 X    SEC  0     **** SEC X 2
     3 GLC5        1 GROUP        1 X    GLC  0     **** GLC X 6
     4 ALP1       13 GROUP        1 Y    ALP  0     ROOT ALP Y 8
     5 SEP2        8 GROUP        1 Y    SEP  0     **** SEP Y 9
     6 GLP5        3 GROUP        1 Y    GLP  0     **** GLP Y 13
     7 ALL1       12 GROUP        1 Z    ALL  0     ROOT ALL Z 15
     8 SEL2        7 GROUP        1 Z    SEL  0     **** SEL Z 16
     9 GLL5        2 GROUP        1 Z    GLL  0     **** GLL Z 20
@<TRIPOS>SET

