#    Name: 1ws1_BB2_1_ligand
#    Modification time : Tue Mar 25 09:17:14 2014

@<TRIPOS>MOLECULE
1ws1_BB2_1_ligand
   62    62     1     0     0
SMALL
NO_CHARGES


@<TRIPOS>ATOM
      1 C5         -4.9730   44.3770   55.2300 C.3       1 BB2400      0.0000 
      2 C3         -4.4200   44.0440   53.8400 C.2       1 BB2400      0.0000 
      3 O4         -4.4140   44.9500   53.0380 O.2       1 BB2400      0.0000 
      4 N1         -4.0010   42.8200   53.5250 N.am      1 BB2400      0.0000 
      5 O2         -3.5700   42.5550   52.3880 O.3       1 BB2400      0.0000 
      6 C6         -6.5650   44.3290   55.0840 C.3       1 BB2400      0.0000 
      7 C12        -7.3070   44.9290   56.2760 C.2       1 BB2400      0.0000 
      8 O13        -7.0000   44.6240   57.4030 O.2       1 BB2400      0.0000 
      9 C7         -7.0070   42.8300   54.9920 C.3       1 BB2400      0.0000 
     10 C8         -8.5320   42.9080   54.7410 C.3       1 BB2400      0.0000 
     11 C9         -9.1510   41.6190   54.5510 C.3       1 BB2400      0.0000 
     12 C10       -10.5730   41.7530   54.0230 C.3       1 BB2400      0.0000 
     13 C11       -11.5180   42.3420   55.0060 C.3       1 BB2400      0.0000 
     14 N14        -8.2950   45.8170   55.9570 N.am      1 BB2400      0.0000 
     15 C15        -9.1130   46.5460   56.9020 C.3       1 BB2400      0.0000 
     16 C16        -8.8170   48.0510   56.9830 C.3       1 BB2400      0.0000 
     17 C18        -8.7580   48.6800   55.6450 C.3       1 BB2400      0.0000 
     18 C17        -7.4890   48.2190   57.6940 C.3       1 BB2400      0.0000 
     19 C19       -10.5900   46.2420   56.5180 C.2       1 BB2400      0.0000 
     20 O20       -10.8830   46.1010   55.3110 O.2       1 BB2400      0.0000 
     21 N21       -11.5180   46.1150   57.4910 N.am      1 BB2400      0.0000 
     22 C22       -12.9250   45.8040   57.1800 C.3       1 BB2400      0.0000 
     23 C23       -11.3130   46.2470   58.9630 C.3       1 BB2400      0.0000 
     24 C24       -12.6880   46.0030   59.5370 C.3       1 BB2400      0.0000 
     25 C25       -13.4500   45.2600   58.4990 C.3       1 BB2400      0.0000 
     26 C26       -13.7070   47.0270   56.7600 C.3       1 BB2400      0.0000 
     27 O27       -13.5340   47.3590   55.5740 O.3       1 BB2400      0.0000 
     28 H          -4.7004   45.3602   55.5154 H         1 BB2400      0.0000 
     29 H          -4.6869   43.6382   55.9333 H         1 BB2400      0.0000 
     30 H          -4.0516   42.0742   54.2938 H         1 BB2400      0.0000 
     31 H          -6.8441   44.8098   54.1848 H         1 BB2400      0.0000 
     32 H          -6.8194   42.3569   55.9151 H         1 BB2400      0.0000 
     33 H          -6.5305   42.3790   54.1669 H         1 BB2400      0.0000 
     34 H          -8.6844   43.5613   53.8586 H         1 BB2400      0.0000 
     35 H          -8.9774   43.4450   55.6024 H         1 BB2400      0.0000 
     36 H          -9.1922   41.0546   55.4971 H         1 BB2400      0.0000 
     37 H          -8.5797   41.0054   53.8351 H         1 BB2400      0.0000 
     38 H         -10.9267   40.7516   53.7150 H         1 BB2400      0.0000 
     39 H         -10.5483   42.3726   53.1074 H         1 BB2400      0.0000 
     40 H          -8.5055   46.0111   54.9316 H         1 BB2400      0.0000 
     41 H          -8.9763   46.1125   57.9076 H         1 BB2400      0.0000 
     42 H          -9.5823   48.5115   57.5858 H         1 BB2400      0.0000 
     43 H         -12.9831   45.0380   56.4540 H         1 BB2400      0.0000 
     44 H         -10.9909   47.2331   59.2074 H         1 BB2400      0.0000 
     45 H         -10.6389   45.4997   59.3138 H         1 BB2400      0.0000 
     46 H         -13.1619   46.9473   59.7465 H         1 BB2400      0.0000 
     47 H         -12.6026   45.4130   60.4341 H         1 BB2400      0.0000 
     48 H         -13.2444   44.2130   58.5566 H         1 BB2400      0.0000 
     49 H         -14.4952   45.4681   58.5764 H         1 BB2400      0.0000 
     50 H         -13.4323   47.8223   57.5324 H         1 BB2400      0.0000 
     51 H         -14.7870   46.7889   57.0455 H         1 BB2400      0.0000 
     52 H         -11.5840   41.7878   55.8358 H         1 BB2400      0.0000 
     53 H         -11.2368   43.2594   55.2878 H         1 BB2400      0.0000 
     54 H         -12.4420   42.4206   54.6318 H         1 BB2400      0.0000 
     55 H          -8.5680   49.6600   55.7034 H         1 BB2400      0.0000 
     56 H          -8.0418   48.2760   55.0759 H         1 BB2400      0.0000 
     57 H          -9.6198   48.5776   55.1482 H         1 BB2400      0.0000 
     58 H          -6.7465   47.7584   57.2077 H         1 BB2400      0.0000 
     59 H          -7.2317   49.1817   57.7777 H         1 BB2400      0.0000 
     60 H          -7.5126   47.8404   58.6193 H         1 BB2400      0.0000 
     61 H          -2.9006   41.8256   52.5287 H         1 BB2400      0.0000 
     62 H         -12.9438   46.6489   55.1900 H         1 BB2400      0.0000 
@<TRIPOS>BOND
     1    2    1 1    
     2    6    1 1    
     3   28    1 1    
     4   29    1 1    
     5    3    2 2    
     6    4    2 am   
     7    5    4 1    
     8   30    4 1    
     9   61    5 1    
    10    7    6 1    
    11    9    6 1    
    12   31    6 1    
    13    8    7 2    
    14   14    7 am   
    15   10    9 1    
    16   32    9 1    
    17   33    9 1    
    18   11   10 1    
    19   34   10 1    
    20   35   10 1    
    21   12   11 1    
    22   36   11 1    
    23   37   11 1    
    24   13   12 1    
    25   38   12 1    
    26   39   12 1    
    27   52   13 1    
    28   53   13 1    
    29   54   13 1    
    30   15   14 1    
    31   40   14 1    
    32   16   15 1    
    33   19   15 1    
    34   41   15 1    
    35   17   16 1    
    36   18   16 1    
    37   42   16 1    
    38   55   17 1    
    39   56   17 1    
    40   57   17 1    
    41   58   18 1    
    42   59   18 1    
    43   60   18 1    
    44   20   19 2    
    45   21   19 am   
    46   22   21 1    
    47   23   21 1    
    48   25   22 1    
    49   26   22 1    
    50   43   22 1    
    51   24   23 1    
    52   44   23 1    
    53   45   23 1    
    54   25   24 1    
    55   46   24 1    
    56   47   24 1    
    57   48   25 1    
    58   49   25 1    
    59   27   26 1    
    60   50   26 1    
    61   51   26 1    
    62   62   27 1    
@<TRIPOS>SUBSTRUCTURE
     1 BB2400      1 GROUP   
@<TRIPOS>SET

