#    Name: 4hw2_19H_4_INTS_M
#    Modification time : Tue Mar 25 01:51:20 2014

@<TRIPOS>MOLECULE
4hw2_19H_4_INTS_M
   89     0     9     0     0
SMALL
NO_CHARGES


@<TRIPOS>ATOM
      1 NZ        -19.7795   -3.3910   11.6385 N.4       2 LYC4        0.0000 
      2 NZ        -20.3050   -3.8950   10.5270 N.4       8 LYL4        0.0000 
      3 NZ        -20.2280   -2.1350   13.1870 N.4       5 LYP4        0.0000 
      4 N         -20.7320   -2.8115   11.4410 N.am      1 SEC2        0.0000 
      5 N         -20.3050   -3.8950   10.5270 N.am      7 SEL2        0.0000 
      6 N         -21.1590   -1.7280   12.3550 N.am      4 SEP2        0.0000 
      7 N         -19.7795   -3.3910   11.6385 N.am      1 SEC2        0.0000 
      8 N         -19.2540   -2.8870   12.7500 N.am      4 SEP2        0.0000 
      9 NZ        -20.5340   -1.9975   10.7990 N.4       2 LYC4        0.0000 
     10 NZ        -19.9090   -2.2670    9.2430 N.4       8 LYL4        0.0000 
     11 N         -20.5340   -1.9975   10.7990 N.am      1 SEC2        0.0000 
     12 N         -19.9090   -2.2670    9.2430 N.am      7 SEL2        0.0000 
     13 CA        -16.9020   -7.9435    5.0705 C.3       3 GLC5        0.0000 
     14 CA        -18.4630   -6.7240    4.5970 C.3       9 GLL5        0.0000 
     15 CA        -15.3410   -9.1630    5.5440 C.3       6 GLP5        0.0000 
     16 CA        -17.3105   -5.8125    1.5485 C.3       3 GLC5        0.0000 
     17 CA        -17.5820   -7.1460    3.1700 C.3       9 GLL5        0.0000 
     18 CA        -17.0390   -4.4790   -0.0730 C.3       6 GLP5        0.0000 
     19 CA        -19.0815   -7.0880    2.1085 C.3       3 GLC5        0.0000 
     20 CA        -20.5810   -7.0300    1.0470 C.3       6 GLP5        0.0000 
     21 CA        -16.9780   -8.7050    2.7660 C.3       3 GLC5        0.0000 
     22 CA        -16.3740  -10.2640    2.3620 C.3       6 GLP5        0.0000 
     23 CA        -18.0345   -9.1365    4.4005 C.3       3 GLC5        0.0000 
     24 CA        -19.4950   -7.5560    5.0180 C.3       9 GLL5        0.0000 
     25 CA        -16.5740  -10.7170    3.7830 C.3       6 GLP5        0.0000 
     26 CA        -22.7645   -5.0905    7.5095 C.3       3 GLC5        0.0000 
     27 CA        -21.6160   -6.1490    8.7720 C.3       9 GLL5        0.0000 
     28 CA        -23.9130   -4.0320    6.2470 C.3       6 GLP5        0.0000 
     29 CA        -23.3105   -7.0280    8.4110 C.3       3 GLC5        0.0000 
     30 CA        -25.0050   -7.9070    8.0500 C.3       6 GLP5        0.0000 
     31 CA        -23.2255   -7.5920    9.6515 C.3       3 GLC5        0.0000 
     32 CA        -21.2190   -7.2530    9.7410 C.3       9 GLL5        0.0000 
     33 CA        -25.2320   -7.9310    9.5620 C.3       6 GLP5        0.0000 
     34 CA        -20.8605   -8.2140   11.2265 C.3       3 GLC5        0.0000 
     35 CA        -20.5550   -8.4890    9.1280 C.3       9 GLL5        0.0000 
     36 CA        -21.1660   -7.9390   13.3250 C.3       6 GLP5        0.0000 
     37 CA        -22.4700   -9.2470    9.9090 C.3       3 GLC5        0.0000 
     38 CA        -24.3850  -10.0050   10.6900 C.3       6 GLP5        0.0000 
     39 CA        -17.9770  -14.1380    6.2180 C.3       3 GLC5        0.0000 
     40 CA        -18.5910  -13.1460    7.9340 C.3       9 GLL5        0.0000 
     41 CA        -17.3630  -15.1300    4.5020 C.3       6 GLP5        0.0000 
     42 CA        -16.9085  -13.4370    8.8690 C.3       3 GLC5        0.0000 
     43 CA        -15.2260  -13.7280    9.8040 C.3       6 GLP5        0.0000 
     44 CA        -18.9255  -12.9090    9.9405 C.3       3 GLC5        0.0000 
     45 CA        -19.2600  -12.6720   11.9470 C.3       6 GLP5        0.0000 
     46 CA        -19.2605  -12.5375    5.9820 C.3       3 GLC5        0.0000 
     47 CA        -19.9300  -11.9290    4.0300 C.3       6 GLP5        0.0000 
     48 CA        -18.9720  -15.0130    5.7380 C.3       3 GLC5        0.0000 
     49 CA        -20.5810  -14.8960    6.9740 C.3       9 GLL5        0.0000 
     50 CA        -20.4385  -16.5315    6.9460 C.3       3 GLC5        0.0000 
     51 CA        -20.2960  -18.1670    6.9180 C.3       6 GLP5        0.0000 
     52 CA        -21.2465  -15.3195    8.7745 C.3       3 GLC5        0.0000 
     53 CA        -21.9120  -15.7430   10.5750 C.3       6 GLP5        0.0000 
     54 CA        -20.2555  -13.4125    5.5020 C.3       3 GLC5        0.0000 
     55 CA        -23.0715  -13.8855    8.8115 C.3       3 GLC5        0.0000 
     56 CA        -23.2310  -13.3850    6.7910 C.3       9 GLL5        0.0000 
     57 CA        -22.9120  -14.3860   10.8320 C.3       6 GLP5        0.0000 
     58 CA        -22.1285  -12.2715    5.6025 C.3       3 GLC5        0.0000 
     59 CA        -21.0260  -11.1580    4.4140 C.3       6 GLP5        0.0000 
     60 CA        -24.6515  -13.1605    5.6540 C.3       3 GLC5        0.0000 
     61 CA        -26.0720  -12.9360    4.5170 C.3       6 GLP5        0.0000 
     62 CA        -23.9030  -15.5180    6.8575 C.3       3 GLC5        0.0000 
     63 CA        -24.5750  -17.6510    6.9240 C.3       6 GLP5        0.0000 
     64 CA        -25.1905  -13.7815    7.2630 C.3       3 GLC5        0.0000 
     65 CA        -27.1500  -14.1780    7.7350 C.3       6 GLP5        0.0000 
     66 CA        -22.6190  -10.4795    5.7440 C.3       3 GLC5        0.0000 
     67 CA        -22.3070  -11.3330    7.5890 C.3       9 GLL5        0.0000 
     68 CA        -22.9310   -9.6260    3.8990 C.3       6 GLP5        0.0000 
     69 CA        -18.9010   -6.0077    9.0068 C.3       3 GLC5        0.0000 
     70 CA        -20.3790   -5.5020    7.9720 C.3       9 GLL5        0.0000 
     71 CA        -17.6990   -7.0730    9.8470 C.3       6 GLP5        0.0000 
     72 CA        -21.5165   -4.6107    6.6413 C.3       3 GLC5        0.0000 
     73 CA        -22.9300   -4.2790    5.1160 C.3       6 GLP5        0.0000 
     74 CA        -21.3888   -8.4955    4.7523 C.3       3 GLC5        0.0000 
     75 CA        -20.1980   -7.1740    6.1930 C.3       9 GLL5        0.0000 
     76 CA        -18.7548   -6.7540    8.1401 C.3       3 GLC5        0.0000 
     77 CA        -21.3702   -5.3570    5.7746 C.3       3 GLC5        0.0000 
     78 CA        -19.9250   -6.0860    6.8880 C.3       9 GLL5        0.0000 
     79 CA        -22.2668   -6.6245   10.9032 C.3       3 GLC5        0.0000 
     80 CA        -23.1160   -6.5480   12.5500 C.3       6 GLP5        0.0000 
     81 CA        -19.3426   -7.3340    9.5196 C.3       3 GLC5        0.0000 
     82 CA        -21.1562  -11.9797    9.6717 C.3       3 GLC5        0.0000 
     83 CA        -21.2410  -10.5730    8.0920 C.3       9 GLL5        0.0000 
     84 CA        -21.6980  -13.0840   11.2010 C.3       6 GLP5        0.0000 
     85 CA        -23.0795  -10.4790    9.2652 C.3       3 GLC5        0.0000 
     86 CA        -21.0120  -12.9960    9.4103 C.3       3 GLC5        0.0000 
     87 CA        -20.8940  -13.2740    7.3830 C.3       9 GLL5        0.0000 
     88 CA        -21.9733  -12.5525    9.3057 C.3       3 GLC5        0.0000 
     89 CA        -22.1900  -12.7090    7.2320 C.3       9 GLL5        0.0000 
@<TRIPOS>BOND
@<TRIPOS>SUBSTRUCTURE
     1 SEC2        4 GROUP        1 X    SEC  0     ROOT SEC X 2
     2 LYC4        1 GROUP        1 X    LYC  0     **** LYC X 4
     3 GLC5       13 GROUP        1 X    GLC  0     **** GLC X 6
     4 SEP2        6 GROUP        1 Y    SEP  0     ROOT SEP Y 9
     5 LYP4        3 GROUP        1 Y    LYP  0     **** LYP Y 11
     6 GLP5       15 GROUP        1 Y    GLP  0     **** GLP Y 13
     7 SEL2        5 GROUP        1 Z    SEL  0     ROOT SEL Z 16
     8 LYL4        2 GROUP        1 Z    LYL  0     **** LYL Z 18
     9 GLL5       14 GROUP        1 Z    GLL  0     **** GLL Z 20
@<TRIPOS>SET

