#    Name: 4hw2_19H_4_ligand
#    Modification time : Tue Mar 25 01:51:20 2014

@<TRIPOS>MOLECULE
4hw2_19H_4_ligand
   44    46     1     0     0
SMALL
NO_CHARGES


@<TRIPOS>ATOM
      1 OAC       -20.3050   -3.8950   10.5270 O.co2     1 19H400      0.0000 
      2 CAQ       -19.9920   -3.5530    9.3220 C.2       1 19H400      0.0000 
      3 OAD       -19.9090   -2.2670    9.2430 O.co2     1 19H400      0.0000 
      4 CAW       -19.8270   -4.3830    8.3610 C.2       1 19H400      0.0000 
      5 NAO       -18.8660   -4.2820    7.3650 N.pl3     1 19H400      0.0000 
      6 CAY       -18.9210   -5.3060    6.4590 C.ar      1 19H400      0.0000 
      7 CAK       -18.2230   -5.5860    5.3860 C.ar      1 19H400      0.0000 
      8 CAT       -18.4630   -6.7240    4.5970 C.ar      1 19H400      0.0000 
      9 CL2       -17.5820   -7.1460    3.1700 Cl        1 19H400      0.0000 
     10 CAG       -19.4950   -7.5560    5.0180 C.ar      1 19H400      0.0000 
     11 CAH       -20.1980   -7.1740    6.1930 C.ar      1 19H400      0.0000 
     12 CAZ       -19.9250   -6.0860    6.8880 C.ar      1 19H400      0.0000 
     13 CAX       -20.3790   -5.5020    7.9720 C.2       1 19H400      0.0000 
     14 CAN       -21.6160   -6.1490    8.7720 C.3       1 19H400      0.0000 
     15 CAL       -21.2190   -7.2530    9.7410 C.3       1 19H400      0.0000 
     16 CAM       -20.5550   -8.4890    9.1280 C.3       1 19H400      0.0000 
     17 OAP       -21.5130   -9.3090    8.3780 O.3       1 19H400      0.0000 
     18 CAU       -21.2410  -10.5730    8.0920 C.ar      1 19H400      0.0000 
     19 CAI       -19.9880  -11.1780    8.1930 C.ar      1 19H400      0.0000 
     20 CAR       -19.7580  -12.5420    7.8560 C.ar      1 19H400      0.0000 
     21 CAA       -18.5910  -13.1460    7.9340 C.3       1 19H400      0.0000 
     22 CAV       -20.8940  -13.2740    7.3830 C.ar      1 19H400      0.0000 
     23 CL1       -20.5810  -14.8960    6.9740 Cl        1 19H400      0.0000 
     24 CAS       -22.1900  -12.7090    7.2320 C.ar      1 19H400      0.0000 
     25 CAB       -23.2310  -13.3850    6.7910 C.3       1 19H400      0.0000 
     26 CAJ       -22.3070  -11.3330    7.5890 C.ar      1 19H400      0.0000 
     27 H         -18.2144   -3.5436    7.3233 H         1 19H400      0.0000 
     28 H         -17.4361   -4.9530    5.0663 H         1 19H400      0.0000 
     29 H         -19.7438   -8.3928    4.5239 H         1 19H400      0.0000 
     30 H         -20.9784   -7.8277    6.4938 H         1 19H400      0.0000 
     31 H         -22.3147   -6.5340    8.0214 H         1 19H400      0.0000 
     32 H         -22.1116   -5.3321    9.3076 H         1 19H400      0.0000 
     33 H         -22.1233   -7.5807   10.3019 H         1 19H400      0.0000 
     34 H         -20.5323   -6.8281   10.5076 H         1 19H400      0.0000 
     35 H         -20.1000   -9.0716    9.9424 H         1 19H400      0.0000 
     36 H         -19.7393   -8.1492    8.4731 H         1 19H400      0.0000 
     37 H         -19.1761  -10.6162    8.5291 H         1 19H400      0.0000 
     38 H         -23.2387  -10.8768    7.4659 H         1 19H400      0.0000 
     39 H         -17.9074  -12.7102    7.3485 H         1 19H400      0.0000 
     40 H         -18.2286  -13.1349    8.8660 H         1 19H400      0.0000 
     41 H         -18.6492  -14.1041    7.6536 H         1 19H400      0.0000 
     42 H         -23.0789  -13.7416    5.8692 H         1 19H400      0.0000 
     43 H         -23.4411  -14.1675    7.3771 H         1 19H400      0.0000 
     44 H         -24.0536  -12.8176    6.7537 H         1 19H400      0.0000 
@<TRIPOS>BOND
     1    2    1 ar   
     2    3    2 ar   
     3    4    2 1    
     4    5    4 1    
     5   13    4 2    
     6    6    5 1    
     7   27    5 1    
     8    7    6 ar   
     9   12    6 ar   
    10    8    7 ar   
    11   28    7 1    
    12    9    8 1    
    13   10    8 ar   
    14   11   10 ar   
    15   29   10 1    
    16   12   11 ar   
    17   30   11 1    
    18   13   12 1    
    19   14   13 1    
    20   15   14 1    
    21   31   14 1    
    22   32   14 1    
    23   16   15 1    
    24   33   15 1    
    25   34   15 1    
    26   17   16 1    
    27   35   16 1    
    28   36   16 1    
    29   18   17 1    
    30   19   18 ar   
    31   26   18 ar   
    32   20   19 ar   
    33   37   19 1    
    34   21   20 1    
    35   22   20 ar   
    36   39   21 1    
    37   40   21 1    
    38   41   21 1    
    39   23   22 1    
    40   24   22 ar   
    41   25   24 1    
    42   26   24 ar   
    43   42   25 1    
    44   43   25 1    
    45   44   25 1    
    46   38   26 1    
@<TRIPOS>SUBSTRUCTURE
     1 19H400      1 GROUP   
@<TRIPOS>SET

