#    Name: 3suf_SUE_2_INTS_M
#    Modification time : Mon Mar 24 18:36:56 2014

@<TRIPOS>MOLECULE
3suf_SUE_2_INTS_M
  114     0     9     0     0
SMALL
NO_CHARGES


@<TRIPOS>ATOM
      1 O         -14.6980    4.3950    3.6335 O.2       1 ALC1        0.0000 
      2 O         -15.2930    5.0650    2.4890 O.2       7 ALL1        0.0000 
      3 O         -14.1030    3.7250    4.7780 O.2       4 ALP1        0.0000 
      4 N         -14.8205    6.9525    4.7640 N.am      2 SEC2        0.0000 
      5 N         -16.0210    7.2710    3.9510 N.am      8 SEL2        0.0000 
      6 N         -13.6200    6.6340    5.5770 N.am      5 SEP2        0.0000 
      7 CA        -18.4555   11.6360   -3.9150 C.3       3 GLC5        0.0000 
      8 CA        -17.2220   13.0250   -3.1710 C.3       9 GLL5        0.0000 
      9 CA        -19.6890   10.2470   -4.6590 C.3       6 GLP5        0.0000 
     10 CA        -10.4200    2.5880    2.3400 C.3       3 GLC5        0.0000 
     11 CA        -10.9040    4.0230    1.0040 C.3       9 GLL5        0.0000 
     12 CA         -9.9360    1.1530    3.6760 C.3       6 GLP5        0.0000 
     13 CA        -12.1535    6.8395    1.8510 C.3       3 GLC5        0.0000 
     14 CA        -11.5200    5.3700    0.6100 C.3       9 GLL5        0.0000 
     15 CA        -12.7870    8.3090    3.0920 C.3       6 GLP5        0.0000 
     16 CA        -23.0570   15.9350    5.3895 C.3       3 GLC5        0.0000 
     17 CA        -21.1220   15.3340    5.4380 C.3       9 GLL5        0.0000 
     18 CA        -24.9920   16.5360    5.3410 C.3       6 GLP5        0.0000 
     19 CA        -21.1820   16.8720    6.0265 C.3       3 GLC5        0.0000 
     20 CA        -21.2420   18.4100    6.6150 C.3       6 GLP5        0.0000 
     21 CA        -19.9590   16.6960    6.0245 C.3       3 GLC5        0.0000 
     22 CA        -19.9100   15.1950    4.8190 C.3       9 GLL5        0.0000 
     23 CA        -20.0080   18.1970    7.2300 C.3       6 GLP5        0.0000 
     24 CA        -18.1515   16.0310    4.6835 C.3       3 GLC5        0.0000 
     25 CA        -16.3930   16.8670    4.5480 C.3       6 GLP5        0.0000 
     26 CA        -18.0780   14.6455    5.8650 C.3       3 GLC5        0.0000 
     27 CA        -16.2460   14.0960    6.9110 C.3       6 GLP5        0.0000 
     28 N         -18.5620   14.1580    7.2485 N.am      2 SEC2        0.0000 
     29 N         -19.5750   13.6660    7.6630 N.am      8 SEL2        0.0000 
     30 N         -17.5490   14.6500    6.8340 N.am      5 SEP2        0.0000 
     31 CA        -18.8595    4.7570    0.2680 C.3       3 GLC5        0.0000 
     32 CA        -17.8160    3.7450    1.9330 C.3       9 GLL5        0.0000 
     33 CA        -19.9030    5.7690   -1.3970 C.3       6 GLP5        0.0000 
     34 CA        -10.6125    5.0775   -2.2485 C.3       3 GLC5        0.0000 
     35 CA        -11.2310    5.9770   -0.7890 C.3       9 GLL5        0.0000 
     36 CA         -9.9940    4.1780   -3.7080 C.3       6 GLP5        0.0000 
     37 O         -18.2195   12.6040    4.7310 O.2       1 ALC1        0.0000 
     38 O         -18.8510   11.8190    6.0010 O.2       7 ALL1        0.0000 
     39 O         -17.5880   13.3890    3.4610 O.2       4 ALP1        0.0000 
     40 CA        -14.6815   15.4760   -5.6115 C.3       3 GLC5        0.0000 
     41 CA        -15.4840   14.3750   -4.0970 C.3       9 GLL5        0.0000 
     42 CA        -13.8790   16.5770   -7.1260 C.3       6 GLP5        0.0000 
     43 CA        -16.3195   14.6425   -6.0025 C.3       3 GLC5        0.0000 
     44 CA        -17.1550   14.9100   -7.9080 C.3       6 GLP5        0.0000 
     45 CA        -18.3145   16.7940   -4.3805 C.3       3 GLC5        0.0000 
     46 CA        -19.0390   14.9890   -4.1550 C.3       9 GLL5        0.0000 
     47 CA        -17.5900   18.5990   -4.6060 C.3       6 GLP5        0.0000 
     48 CA        -18.7815   15.5080   -2.1070 C.3       3 GLC5        0.0000 
     49 CA        -18.5240   16.0270   -0.0590 C.3       6 GLP5        0.0000 
     50 CA        -18.7470   13.9205   -5.7520 C.3       3 GLC5        0.0000 
     51 CA        -18.4550   12.8520   -7.3490 C.3       6 GLP5        0.0000 
     52 CA        -13.1060   10.0185   -3.0860 C.3       3 GLC5        0.0000 
     53 CA        -12.7670    9.2310   -1.1020 C.3       9 GLL5        0.0000 
     54 CA        -13.4450   10.8060   -5.0700 C.3       6 GLP5        0.0000 
     55 CA        -13.9365   10.8615   -3.0185 C.3       3 GLC5        0.0000 
     56 CA        -14.4280   10.9170   -0.9670 C.3       9 GLL5        0.0000 
     57 CA        -12.5310   11.2325    1.2120 C.3       3 GLC5        0.0000 
     58 CA        -13.4810   10.2300   -0.2040 C.3       9 GLL5        0.0000 
     59 CA        -11.5810   12.2350    2.6280 C.3       6 GLP5        0.0000 
     60 N         -20.9665   11.7795    8.7030 N.am      2 SEC2        0.0000 
     61 N         -21.2770   11.9580    7.1170 N.am      8 SEL2        0.0000 
     62 N         -20.6560   11.6010   10.2890 N.am      5 SEP2        0.0000 
     63 N         -19.5215   11.3150    9.1895 N.am      2 SEC2        0.0000 
     64 N         -18.3870   11.0290    8.0900 N.am      8 SEL2        0.0000 
     65 O         -15.4200   10.7940    4.8230 O.2       1 ALC1        0.0000 
     66 O         -16.6610   10.3410    4.8660 O.2       7 ALL1        0.0000 
     67 O         -14.1790   11.2470    4.7800 O.2       4 ALP1        0.0000 
     68 CA        -18.7510    5.5430    8.0785 C.3       3 GLC5        0.0000 
     69 CA        -17.8720    7.0090    8.1170 C.3       9 GLL5        0.0000 
     70 CA        -19.6300    4.0770    8.0400 C.3       6 GLP5        0.0000 
     71 CA        -16.2315    6.1080    7.7195 C.3       3 GLC5        0.0000 
     72 CA        -14.5910    5.2070    7.3220 C.3       6 GLP5        0.0000 
     73 CA        -14.8740    8.9570    2.8710 C.3       3 GLC5        0.0000 
     74 CA        -16.9610    9.6050    2.6500 C.3       9 GLL5        0.0000 
     75 CA        -18.7760    6.9675   -0.2950 C.3       3 GLC5        0.0000 
     76 CA        -17.6490    8.1660    0.8070 C.3       9 GLL5        0.0000 
     77 CA        -19.4635    5.7915    0.6555 C.3       3 GLC5        0.0000 
     78 CA        -19.0240    5.8140    2.7080 C.3       9 GLL5        0.0000 
     79 CA        -18.5595    4.3545    6.1515 C.3       3 GLC5        0.0000 
     80 CA        -17.4890    4.6320    4.2630 C.3       9 GLL5        0.0000 
     81 CA        -16.0400    4.9195    5.7925 C.3       3 GLC5        0.0000 
     82 CA        -13.5388   14.0785   -1.8585 C.3       3 GLC5        0.0000 
     83 CA        -14.9460   12.6310   -2.4920 C.3       9 GLL5        0.0000 
     84 CA        -12.3310   15.0120   -0.8020 C.3       6 GLP5        0.0000 
     85 CA        -13.8167   13.0220   -4.5303 C.3       3 GLC5        0.0000 
     86 CA        -14.5470   13.6590   -3.3380 C.3       9 GLL5        0.0000 
     87 CA        -12.6180   12.0270   -5.3430 C.3       6 GLP5        0.0000 
     88 CA        -17.7432   13.1995   -5.4697 C.3       3 GLC5        0.0000 
     89 CA        -20.3895   16.5317    3.9283 C.3       3 GLC5        0.0000 
     90 CA        -20.2630   17.7990    2.7280 C.3       6 GLP5        0.0000 
     91 CA        -16.3035   12.1725    6.8422 C.3       3 GLC5        0.0000 
     92 CA        -16.9490   10.2680    6.3240 C.3       9 GLL5        0.0000 
     93 CA        -17.1253    7.4287   10.0125 C.3       3 GLC5        0.0000 
     94 CA        -17.2650    8.4100    8.2050 C.3       9 GLL5        0.0000 
     95 CA        -16.6820    7.1480   11.8640 C.3       6 GLP5        0.0000 
     96 CA        -19.1043    8.4593    9.4255 C.3       3 GLC5        0.0000 
     97 CA        -20.6400    9.2090   10.6900 C.3       6 GLP5        0.0000 
     98 CA        -15.7415    6.9490    7.4613 C.3       3 GLC5        0.0000 
     99 CA        -16.5190    8.9720    6.9960 C.3       9 GLL5        0.0000 
    100 CA        -14.5310   11.6375   -3.7640 C.3       3 GLC5        0.0000 
    101 CA        -16.2880   12.3070   -2.4240 C.3       9 GLL5        0.0000 
    102 CA        -14.6020    9.1750    5.8133 C.3       3 GLC5        0.0000 
    103 CA        -15.7730   10.2300    7.2230 C.3       9 GLL5        0.0000 
    104 CA        -13.0580    8.7490    4.5170 C.3       6 GLP5        0.0000 
    105 CA        -12.3210    8.0122    1.3222 C.3       3 GLC5        0.0000 
    106 CA        -12.5530    7.9680   -0.2870 C.3       9 GLL5        0.0000 
    107 CA        -12.9555    9.0198    1.2195 C.3       3 GLC5        0.0000 
    108 CA        -17.4845   13.9512   -1.6789 C.3       3 GLC5        0.0000 
    109 CA        -18.1710   14.5350    0.0460 C.3       6 GLP5        0.0000 
    110 CA        -19.5230   14.1959    3.8299 C.3       3 GLC5        0.0000 
    111 CA        -18.4470   13.8090    2.5510 C.3       6 GLP5        0.0000 
    112 CA        -15.0038    9.2267    8.4544 C.3       3 GLC5        0.0000 
    113 CA        -13.6750    8.9930    9.4970 C.3       6 GLP5        0.0000 
    114 CA        -17.9207   11.8972    2.3523 C.3       3 GLC5        0.0000 
@<TRIPOS>BOND
@<TRIPOS>SUBSTRUCTURE
     1 ALC1        1 GROUP        1 X    ALC  0     ROOT ALC X 1
     2 SEC2        4 GROUP        1 X    SEC  0     **** SEC X 2
     3 GLC5        7 GROUP        1 X    GLC  0     **** GLC X 6
     4 ALP1        3 GROUP        1 Y    ALP  0     ROOT ALP Y 8
     5 SEP2        6 GROUP        1 Y    SEP  0     **** SEP Y 9
     6 GLP5        9 GROUP        1 Y    GLP  0     **** GLP Y 13
     7 ALL1        2 GROUP        1 Z    ALL  0     ROOT ALL Z 15
     8 SEL2        5 GROUP        1 Z    SEL  0     **** SEL Z 16
     9 GLL5        8 GROUP        1 Z    GLL  0     **** GLL Z 20
@<TRIPOS>SET

