#    Name: 3suf_SUE_2_ligand
#    Modification time : Mon Mar 24 18:36:56 2014

@<TRIPOS>MOLECULE
3suf_SUE_2_ligand
  102   108     1     0     0
SMALL
NO_CHARGES


@<TRIPOS>ATOM
      1 C         -16.4920    7.1110    2.8270 C.2       1 SUE1201     0.0000 
      2 N         -15.2930    5.0650    2.4890 N.am      1 SUE1201     0.0000 
      3 O         -16.0210    7.2710    3.9510 O.2       1 SUE1201     0.0000 
      4 CA        -16.5490    5.8360    2.2580 C.3       1 SUE1201     0.0000 
      5 CB        -17.7170    5.0140    2.8040 C.3       1 SUE1201     0.0000 
      6 CAB       -14.3940    4.8440    1.4650 C.2       1 SUE1201     0.0000 
      7 NAC       -16.6920   11.3060   -1.6170 N.ar      1 SUE1201     0.0000 
      8 CAD       -14.5470   13.6590   -3.3380 C.ar      1 SUE1201     0.0000 
      9 CAE       -17.2220   13.0250   -3.1710 C.ar      1 SUE1201     0.0000 
     10 CAF       -10.9040    4.0230    1.0040 C.3       1 SUE1201     0.0000 
     11 CAG       -11.5200    5.3700    0.6100 C.3       1 SUE1201     0.0000 
     12 CAH       -12.3830    4.1090    0.6430 C.3       1 SUE1201     0.0000 
     13 CAK       -21.1220   15.3340    5.4380 C.3       1 SUE1201     0.0000 
     14 CAL       -19.9100   15.1950    4.8190 C.3       1 SUE1201     0.0000 
     15 OAM       -19.5750   13.6660    7.6630 O.2       1 SUE1201     0.0000 
     16 SAN       -20.1070   12.7660    6.5530 S.o2      1 SUE1201     0.0000 
     17 CAO       -16.9490   10.2680    6.3240 C.3       1 SUE1201     0.0000 
     18 OAP       -18.3100    8.8750    4.3440 O.2       1 SUE1201     0.0000 
     19 CAQ       -17.3970    9.6190    3.9890 C.2       1 SUE1201     0.0000 
     20 CAR       -17.8160    3.7450    1.9330 C.3       1 SUE1201     0.0000 
     21 CAS       -17.2650    8.4100    8.2050 C.2       1 SUE1201     0.0000 
     22 CAT       -14.9460   12.6310   -2.4920 C.ar      1 SUE1201     0.0000 
     23 CAU       -11.2310    5.9770   -0.7890 C.3       1 SUE1201     0.0000 
     24 NAV       -18.8510   11.8190    6.0010 N.am      1 SUE1201     0.0000 
     25 CAW       -16.5190    8.9720    6.9960 C.3       1 SUE1201     0.0000 
     26 CAX       -12.5530    7.9680   -0.2870 C.3       1 SUE1201     0.0000 
     27 CAY       -15.4840   14.3750   -4.0970 C.ar      1 SUE1201     0.0000 
     28 OAZ       -16.1510    9.6260   -0.0570 O.3       1 SUE1201     0.0000 
     29 CBA       -19.0390   14.9890   -4.1550 C.3       1 SUE1201     0.0000 
     30 OBB       -17.7630   14.7750   -4.7770 O.3       1 SUE1201     0.0000 
     31 CBC       -11.1570    7.4630   -0.6080 C.3       1 SUE1201     0.0000 
     32 CBD       -12.7670    9.2310   -1.1020 C.3       1 SUE1201     0.0000 
     33 CBE       -15.7940   10.6280   -0.8940 C.ar      1 SUE1201     0.0000 
     34 CBF       -14.4280   10.9170   -0.9670 C.ar      1 SUE1201     0.0000 
     35 CBG       -16.2880   12.3070   -2.4240 C.ar      1 SUE1201     0.0000 
     36 NBH       -14.0420   11.9280   -1.7740 N.ar      1 SUE1201     0.0000 
     37 CBI       -13.4810   10.2300   -0.2040 C.3       1 SUE1201     0.0000 
     38 CBJ       -16.8410   14.0690   -4.0100 C.ar      1 SUE1201     0.0000 
     39 OBK       -21.2770   11.9580    7.1170 O.2       1 SUE1201     0.0000 
     40 CBL       -20.6820   13.9010    5.0890 C.3       1 SUE1201     0.0000 
     41 OBM       -18.3870   11.0290    8.0900 O.2       1 SUE1201     0.0000 
     42 CBN       -15.7730   10.2300    7.2230 C.3       1 SUE1201     0.0000 
     43 CBO       -18.1430   11.0770    6.8850 C.2       1 SUE1201     0.0000 
     44 NBP       -16.6610   10.3410    4.8660 N.am      1 SUE1201     0.0000 
     45 CBQ       -17.8720    7.0090    8.1170 C.2       1 SUE1201     0.0000 
     46 OBR       -14.6150    5.3720    0.3830 O.2       1 SUE1201     0.0000 
     47 OBT       -13.3100    4.0630    1.7150 O.3       1 SUE1201     0.0000 
     48 CBX       -17.8280   10.3660    1.6570 C.3       1 SUE1201     0.0000 
     49 CBY       -16.9610    9.6050    2.6500 C.3       1 SUE1201     0.0000 
     50 NBZ       -16.9880    8.1630    2.1580 N.am      1 SUE1201     0.0000 
     51 CCA       -17.6490    8.1660    0.8070 C.3       1 SUE1201     0.0000 
     52 CCB       -17.5090    9.5710    0.3720 C.3       1 SUE1201     0.0000 
     53 CG1       -19.0240    5.8140    2.7080 C.3       1 SUE1201     0.0000 
     54 CG2       -17.4890    4.6320    4.2630 C.3       1 SUE1201     0.0000 
     55 H         -15.1394    4.7149    3.4369 H         1 SUE1201     0.0000 
     56 H         -16.6994    5.8925    1.1667 H         1 SUE1201     0.0000 
     57 H         -13.5456   13.9037   -3.4127 H         1 SUE1201     0.0000 
     58 H         -18.2277   12.7735   -3.0988 H         1 SUE1201     0.0000 
     59 H         -10.8395    4.0074    1.9465 H         1 SUE1201     0.0000 
     60 H         -10.4433    3.6919    0.2484 H         1 SUE1201     0.0000 
     61 H         -11.7012    5.8464    1.4165 H         1 SUE1201     0.0000 
     62 H         -12.4544    3.8216   -0.2667 H         1 SUE1201     0.0000 
     63 H         -21.8402   15.5557    4.8234 H         1 SUE1201     0.0000 
     64 H         -21.0498   15.4137    6.4030 H         1 SUE1201     0.0000 
     65 H         -19.1609   15.2066    5.4391 H         1 SUE1201     0.0000 
     66 H         -19.9514   15.3486    3.8596 H         1 SUE1201     0.0000 
     67 H         -17.3532    8.9361    9.0209 H         1 SUE1201     0.0000 
     68 H         -12.0357    5.7146   -1.4478 H         1 SUE1201     0.0000 
     69 H         -10.2947    5.5906   -1.1420 H         1 SUE1201     0.0000 
     70 H         -18.7341   11.8930    5.0183 H         1 SUE1201     0.0000 
     71 H         -16.0236    8.4637    6.3408 H         1 SUE1201     0.0000 
     72 H         -12.6229    8.1969    0.7610 H         1 SUE1201     0.0000 
     73 H         -13.2795    7.2274   -0.5690 H         1 SUE1201     0.0000 
     74 H         -15.1647   15.1283   -4.7193 H         1 SUE1201     0.0000 
     75 H         -10.8086    7.9312   -1.5184 H         1 SUE1201     0.0000 
     76 H         -10.4929    7.7049    0.2105 H         1 SUE1201     0.0000 
     77 H         -13.3812    9.0114   -1.9571 H         1 SUE1201     0.0000 
     78 H         -11.8165    9.6330   -1.4046 H         1 SUE1201     0.0000 
     79 H         -12.7199   10.8951    0.2202 H         1 SUE1201     0.0000 
     80 H         -13.9333    9.6675    0.6210 H         1 SUE1201     0.0000 
     81 H         -21.0831   13.5625    4.3998 H         1 SUE1201     0.0000 
     82 H         -16.0199   10.5905    8.0756 H         1 SUE1201     0.0000 
     83 H         -14.9750   10.2203    6.6931 H         1 SUE1201     0.0000 
     84 H         -15.8938   10.9546    4.5856 H         1 SUE1201     0.0000 
     85 H         -17.4866   11.3468    1.5531 H         1 SUE1201     0.0000 
     86 H         -18.8380   10.2527    1.8945 H         1 SUE1201     0.0000 
     87 H         -15.9404    9.9431    2.5342 H         1 SUE1201     0.0000 
     88 H         -18.6765    7.9024    0.9093 H         1 SUE1201     0.0000 
     89 H         -17.1242    7.5123    0.1490 H         1 SUE1201     0.0000 
     90 H         -18.2074    9.7741   -0.3650 H         1 SUE1201     0.0000 
     91 H         -16.9757    3.2040    1.9681 H         1 SUE1201     0.0000 
     92 H         -18.5615    3.1481    2.2297 H         1 SUE1201     0.0000 
     93 H         -17.9823    3.9662    0.9720 H         1 SUE1201     0.0000 
     94 H         -18.9548   15.5053   -3.3027 H         1 SUE1201     0.0000 
     95 H         -19.6600   15.5015   -4.7481 H         1 SUE1201     0.0000 
     96 H         -19.4926   14.1263   -3.9314 H         1 SUE1201     0.0000 
     97 H         -18.9773    6.6657    3.2300 H         1 SUE1201     0.0000 
     98 H         -19.2399    6.0607    1.7633 H         1 SUE1201     0.0000 
     99 H         -19.8032    5.2962    3.0611 H         1 SUE1201     0.0000 
    100 H         -16.6610    4.0833    4.3782 H         1 SUE1201     0.0000 
    101 H         -17.3902    5.4378    4.8468 H         1 SUE1201     0.0000 
    102 H         -18.2493    4.0959    4.6297 H         1 SUE1201     0.0000 
@<TRIPOS>BOND
     1    3    1 2    
     2    4    1 1    
     3   50    1 am   
     4    4    2 1    
     5    6    2 am   
     6   55    2 1    
     7    5    4 1    
     8   56    4 1    
     9   20    5 1    
    10   53    5 1    
    11   54    5 1    
    12   46    6 2    
    13   47    6 1    
    14   33    7 ar   
    15   35    7 ar   
    16   22    8 ar   
    17   27    8 ar   
    18   57    8 1    
    19   35    9 ar   
    20   38    9 ar   
    21   58    9 1    
    22   11   10 1    
    23   12   10 1    
    24   59   10 1    
    25   60   10 1    
    26   12   11 1    
    27   23   11 1    
    28   61   11 1    
    29   47   12 1    
    30   62   12 1    
    31   14   13 1    
    32   40   13 1    
    33   63   13 1    
    34   64   13 1    
    35   40   14 1    
    36   65   14 1    
    37   66   14 1    
    38   16   15 2    
    39   24   16 1    
    40   39   16 2    
    41   40   16 1    
    42   25   17 1    
    43   42   17 1    
    44   43   17 1    
    45   44   17 1    
    46   19   18 2    
    47   44   19 am   
    48   49   19 1    
    49   91   20 1    
    50   92   20 1    
    51   93   20 1    
    52   25   21 1    
    53   45   21 2    
    54   67   21 1    
    55   35   22 ar   
    56   36   22 ar   
    57   31   23 1    
    58   68   23 1    
    59   69   23 1    
    60   43   24 am   
    61   70   24 1    
    62   42   25 1    
    63   71   25 1    
    64   31   26 1    
    65   32   26 1    
    66   72   26 1    
    67   73   26 1    
    68   38   27 ar   
    69   74   27 1    
    70   33   28 1    
    71   52   28 1    
    72   30   29 1    
    73   94   29 1    
    74   95   29 1    
    75   96   29 1    
    76   38   30 1    
    77   75   31 1    
    78   76   31 1    
    79   37   32 1    
    80   77   32 1    
    81   78   32 1    
    82   34   33 ar   
    83   36   34 ar   
    84   37   34 1    
    85   79   37 1    
    86   80   37 1    
    87   81   40 1    
    88   43   41 2    
    89   82   42 1    
    90   83   42 1    
    91   84   44 1    
    92   49   48 1    
    93   52   48 1    
    94   85   48 1    
    95   86   48 1    
    96   50   49 1    
    97   87   49 1    
    98   51   50 1    
    99   52   51 1    
   100   88   51 1    
   101   89   51 1    
   102   90   52 1    
   103   97   53 1    
   104   98   53 1    
   105   99   53 1    
   106  100   54 1    
   107  101   54 1    
   108  102   54 1    
@<TRIPOS>SUBSTRUCTURE
     1 SUE1201     1 GROUP   
@<TRIPOS>SET

