#    Name: 1HXP_1_CAVITY_N1_6.mol2
#    Modification time : Tue Mar 11 07:20:18 2014

@<TRIPOS>MOLECULE
1HXP_1_CAVITY_N1_6.mol2
   38     0     3     0     0
SMALL
NO_CHARGES


@<TRIPOS>ATOM
      1 O          31.5230   86.6181   23.0596 O.2       1 ALA2        0.0000 
      2 O          30.2130   86.9812   23.6937 O.2       1 ALA2        0.0000 
      3 N          31.0145   85.2303   22.8037 N.2       1 ALA2        0.0000 
      4 O          29.7045   85.5934   23.4378 O.2       1 ALA2        0.0000 
      5 O          28.6263   88.6567   26.5528 O.2       1 ALA2        0.0000 
      6 DU         27.3163   89.0198   27.1869 H         3 CUB7        0.0000 
      7 CZ         32.0478   86.1797   24.3947 C.ar      2 PHE5        0.0000 
      8 O          30.7378   86.5428   25.0288 O.2       1 ALA2        0.0000 
      9 O          29.4278   86.9058   25.6629 O.2       1 ALA2        0.0000 
     10 N          31.5392   84.7919   24.1388 N.2       1 ALA2        0.0000 
     11 O          30.2292   85.1550   24.7729 O.2       1 ALA2        0.0000 
     12 DU         28.9193   85.5181   25.4070 H         3 CUB7        0.0000 
     13 O          29.7207   83.7672   24.5170 O.2       1 ALA2        0.0000 
     14 O          28.4107   84.1303   25.1511 O.2       1 ALA2        0.0000 
     15 CZ         32.5725   85.7412   25.7297 C.ar      2 PHE5        0.0000 
     16 O          31.2625   86.1043   26.3638 O.2       1 ALA2        0.0000 
     17 O          29.9525   86.4674   26.9979 O.2       1 ALA2        0.0000 
     18 DU         28.6425   86.8305   27.6320 H         3 CUB7        0.0000 
     19 CZ         32.0640   84.3534   25.4739 C.ar      2 PHE5        0.0000 
     20 DU         30.7540   84.7165   26.1080 H         3 CUB7        0.0000 
     21 DU         29.4440   85.0796   26.7421 H         3 CUB7        0.0000 
     22 DU         25.5140   86.1689   28.6443 H         3 CUB7        0.0000 
     23 O          31.5554   82.9657   25.2180 O.2       1 ALA2        0.0000 
     24 O          30.2455   83.3288   25.8521 O.2       1 ALA2        0.0000 
     25 DU         28.9355   83.6919   26.4862 H         3 CUB7        0.0000 
     26 DU         27.6255   84.0549   27.1203 H         3 CUB7        0.0000 
     27 N          26.3155   84.4180   27.7544 N.2       1 ALA2        0.0000 
     28 O          29.7369   81.9410   25.5962 O.2       1 ALA2        0.0000 
     29 O          28.4270   82.3041   26.2303 O.2       1 ALA2        0.0000 
     30 DU         27.1170   82.6672   26.8644 H         3 CUB7        0.0000 
     31 N          25.8070   83.0303   27.4985 N.2       1 ALA2        0.0000 
     32 DU         31.2787   84.2781   27.4430 H         3 CUB7        0.0000 
     33 O          30.7702   82.8903   27.1872 O.2       1 ALA2        0.0000 
     34 DU         28.1502   83.6165   28.4554 H         3 CUB7        0.0000 
     35 DU         26.8402   83.9796   29.0895 H         3 CUB7        0.0000 
     36 CZ         25.5302   84.3427   29.7236 C.ar      2 PHE5        0.0000 
     37 O          27.6417   82.2287   28.1995 O.2       1 ALA2        0.0000 
     38 N          26.3317   82.5918   28.8336 N.2       1 ALA2        0.0000 
@<TRIPOS>BOND
@<TRIPOS>SUBSTRUCTURE
     1 ALA2        1 GROUP   
     2 PHE5        7 GROUP   
     3 CUB7        6 GROUP   
@<TRIPOS>SET

