#    Name: 1HXP_1_CAVITY_N1_ALL.mol2
#    Modification time : Tue Mar 11 07:20:18 2014

@<TRIPOS>MOLECULE
1HXP_1_CAVITY_N1_ALL.mol2
   93     0     6     0     0
SMALL
NO_CHARGES


@<TRIPOS>ATOM
      1 O          31.5230   86.6181   23.0596 O.2       1 ALA2        0.0000 
      2 O          30.2130   86.9812   23.6937 O.2       1 ALA2        0.0000 
      3 N          31.0145   85.2303   22.8037 N.2       1 ALA2        0.0000 
      4 O          29.7045   85.5934   23.4378 O.2       1 ALA2        0.0000 
      5 OD1        29.6433   91.4323   27.0646 O.3       2 ASP3        0.0000 
      6 NZ         28.3333   91.7954   27.6987 N.2       3 LYS4        0.0000 
      7 O          29.1348   90.0445   26.8087 O.2       1 ALA2        0.0000 
      8 O          28.6263   88.6567   26.5528 O.2       1 ALA2        0.0000 
      9 DU         27.3163   89.0198   27.1869 H         6 CUB7        0.0000 
     10 CZ         32.0478   86.1797   24.3947 C.ar      4 PHE5        0.0000 
     11 O          30.7378   86.5428   25.0288 O.2       1 ALA2        0.0000 
     12 O          29.4278   86.9058   25.6629 O.2       1 ALA2        0.0000 
     13 N          31.5392   84.7919   24.1388 N.2       1 ALA2        0.0000 
     14 O          30.2292   85.1550   24.7729 O.2       1 ALA2        0.0000 
     15 DU         28.9193   85.5181   25.4070 H         6 CUB7        0.0000 
     16 O          29.7207   83.7672   24.5170 O.2       1 ALA2        0.0000 
     17 O          28.4107   84.1303   25.1511 O.2       1 ALA2        0.0000 
     18 NZ         30.1680   90.9939   28.3997 N.2       3 LYS4        0.0000 
     19 O          29.6595   89.6061   28.1438 O.2       1 ALA2        0.0000 
     20 NZ         28.3495   89.9692   28.7779 N.2       3 LYS4        0.0000 
     21 NZ         27.0395   90.3323   29.4120 N.2       3 LYS4        0.0000 
     22 O          29.1510   88.2183   27.8879 O.2       1 ALA2        0.0000 
     23 DU         27.8410   88.5814   28.5220 H         6 CUB7        0.0000 
     24 DU         26.5310   88.9445   29.1561 H         6 CUB7        0.0000 
     25 CA         25.2210   89.3076   29.7902 C.3       5 GLY6        0.0000 
     26 CZ         32.5725   85.7412   25.7297 C.ar      4 PHE5        0.0000 
     27 O          31.2625   86.1043   26.3638 O.2       1 ALA2        0.0000 
     28 O          29.9525   86.4674   26.9979 O.2       1 ALA2        0.0000 
     29 DU         28.6425   86.8305   27.6320 H         6 CUB7        0.0000 
     30 CZ         32.0640   84.3534   25.4739 C.ar      4 PHE5        0.0000 
     31 DU         30.7540   84.7165   26.1080 H         6 CUB7        0.0000 
     32 DU         29.4440   85.0796   26.7421 H         6 CUB7        0.0000 
     33 DU         25.5140   86.1689   28.6443 H         6 CUB7        0.0000 
     34 O          31.5554   82.9657   25.2180 O.2       1 ALA2        0.0000 
     35 O          30.2455   83.3288   25.8521 O.2       1 ALA2        0.0000 
     36 DU         28.9355   83.6919   26.4862 H         6 CUB7        0.0000 
     37 DU         27.6255   84.0549   27.1203 H         6 CUB7        0.0000 
     38 N          26.3155   84.4180   27.7544 N.2       1 ALA2        0.0000 
     39 O          29.7369   81.9410   25.5962 O.2       1 ALA2        0.0000 
     40 O          28.4270   82.3041   26.2303 O.2       1 ALA2        0.0000 
     41 DU         27.1170   82.6672   26.8644 H         6 CUB7        0.0000 
     42 N          25.8070   83.0303   27.4985 N.2       1 ALA2        0.0000 
     43 NZ         30.6927   90.5554   29.7348 N.2       3 LYS4        0.0000 
     44 NZ         30.1842   89.1676   29.4789 N.2       3 LYS4        0.0000 
     45 NZ         28.8742   89.5307   30.1130 N.2       3 LYS4        0.0000 
     46 CA         27.5642   89.8938   30.7471 C.3       5 GLY6        0.0000 
     47 N          30.9857   87.4168   28.5889 N.2       1 ALA2        0.0000 
     48 DU         29.6757   87.7799   29.2230 H         6 CUB7        0.0000 
     49 DU         28.3657   88.1430   29.8571 H         6 CUB7        0.0000 
     50 CA         27.0557   88.5061   30.4912 C.3       5 GLY6        0.0000 
     51 CA         25.7457   88.8691   31.1253 C.3       5 GLY6        0.0000 
     52 CZ         33.0972   85.3028   27.0648 C.ar      4 PHE5        0.0000 
     53 N          31.7872   85.6659   27.6989 N.2       1 ALA2        0.0000 
     54 N          30.4772   86.0290   28.3330 N.2       1 ALA2        0.0000 
     55 DU         29.1672   86.3921   28.9671 H         6 CUB7        0.0000 
     56 DU         27.8572   86.7552   29.6012 H         6 CUB7        0.0000 
     57 DU         26.5472   87.1183   30.2353 H         6 CUB7        0.0000 
     58 N          25.2372   87.4814   30.8694 N.2       1 ALA2        0.0000 
     59 CZ         33.8987   83.5519   26.1748 C.ar      4 PHE5        0.0000 
     60 CZ         32.5887   83.9150   26.8089 C.ar      4 PHE5        0.0000 
     61 DU         31.2787   84.2781   27.4430 H         6 CUB7        0.0000 
     62 DU         29.9687   84.6412   28.0771 H         6 CUB7        0.0000 
     63 DU         28.6587   85.0043   28.7112 H         6 CUB7        0.0000 
     64 DU         27.3487   85.3674   29.3453 H         6 CUB7        0.0000 
     65 CZ         26.0387   85.7305   29.9794 C.ar      4 PHE5        0.0000 
     66 CZ         32.0802   82.5272   26.5531 C.ar      4 PHE5        0.0000 
     67 O          30.7702   82.8903   27.1872 O.2       1 ALA2        0.0000 
     68 O          29.4602   83.2534   27.8213 O.2       1 ALA2        0.0000 
     69 DU         28.1502   83.6165   28.4554 H         6 CUB7        0.0000 
     70 DU         26.8402   83.9796   29.0895 H         6 CUB7        0.0000 
     71 CZ         25.5302   84.3427   29.7236 C.ar      4 PHE5        0.0000 
     72 O          27.6417   82.2287   28.1995 O.2       1 ALA2        0.0000 
     73 N          26.3317   82.5918   28.8336 N.2       1 ALA2        0.0000 
     74 N          30.7090   88.7292   30.8140 N.2       1 ALA2        0.0000 
     75 NZ         29.3990   89.0923   31.4481 N.2       3 LYS4        0.0000 
     76 N          31.5104   86.9783   29.9240 N.2       1 ALA2        0.0000 
     77 NZ         30.2004   87.3414   30.5581 N.2       3 LYS4        0.0000 
     78 DU         28.8905   87.7045   31.1922 H         6 CUB7        0.0000 
     79 CA         27.5805   88.0676   31.8263 C.3       5 GLY6        0.0000 
     80 NZ         32.3119   85.2275   29.0340 N.2       3 LYS4        0.0000 
     81 NZ         31.0019   85.5906   29.6681 N.2       3 LYS4        0.0000 
     82 N          29.6919   85.9537   30.3022 N.2       1 ALA2        0.0000 
     83 N          28.3819   86.3167   30.9363 N.2       1 ALA2        0.0000 
     84 O          27.0719   86.6798   31.5704 O.2       1 ALA2        0.0000 
     85 CA         33.1134   83.4766   28.1440 C.3       5 GLY6        0.0000 
     86 NZ         31.8034   83.8397   28.7781 N.2       3 LYS4        0.0000 
     87 NZ         30.4934   84.2028   29.4122 N.2       3 LYS4        0.0000 
     88 N          29.1834   84.5659   30.0463 N.2       1 ALA2        0.0000 
     89 N          27.8734   84.9290   30.6804 N.2       1 ALA2        0.0000 
     90 CZ         26.5634   85.2921   31.3145 C.ar      4 PHE5        0.0000 
     91 O          31.2949   82.4519   28.5222 O.2       1 ALA2        0.0000 
     92 CA         28.6749   83.1781   29.7904 C.3       5 GLY6        0.0000 
     93 CA         27.3649   83.5412   30.4245 C.3       5 GLY6        0.0000 
@<TRIPOS>BOND
@<TRIPOS>SUBSTRUCTURE
     1 ALA2        1 GROUP   
     2 ASP3        5 GROUP   
     3 LYS4        6 GROUP   
     4 PHE5       10 GROUP   
     5 GLY6       25 GROUP   
     6 CUB7        9 GROUP   
@<TRIPOS>SET

