#    Name: 1hxp_U5P_1_INTS_M
#    Modification time : Tue Mar 25 06:30:43 2014

@<TRIPOS>MOLECULE
1hxp_U5P_1_INTS_M
   30     0     9     0     0
SMALL
NO_CHARGES


@<TRIPOS>ATOM
      1 O          26.8285   88.4485   15.2625 O.2       1 ALC1        0.0000 
      2 O          26.3750   87.7920   16.2600 O.2       7 ALL1        0.0000 
      3 O          27.2820   89.1050   14.2650 O.2       4 ALP1        0.0000 
      4 N          29.5300   88.1670   16.6325 N.am      2 SEC2        0.0000 
      5 N          28.4860   87.2500   16.9950 N.am      8 SEL2        0.0000 
      6 N          30.5740   89.0840   16.2700 N.am      5 SEP2        0.0000 
      7 N          23.2450   89.1545   14.6940 N.am      2 SEC2        0.0000 
      8 N          24.3180   88.3600   15.5420 N.am      8 SEL2        0.0000 
      9 N          22.1720   89.9490   13.8460 N.am      5 SEP2        0.0000 
     10 CA         26.1795   85.0895   18.0025 C.3       3 GLC5        0.0000 
     11 CA         27.6670   85.9490   19.1560 C.3       9 GLL5        0.0000 
     12 CA         24.6920   84.2300   16.8490 C.3       6 GLP5        0.0000 
     13 CA         29.0370   84.6485   18.2555 C.3       3 GLC5        0.0000 
     14 CA         30.4070   83.3480   17.3550 C.3       6 GLP5        0.0000 
     15 CA         27.4465   88.6250   20.0335 C.3       3 GLC5        0.0000 
     16 CA         27.5610   86.5090   20.5670 C.3       9 GLL5        0.0000 
     17 CA         27.3320   90.7410   19.5000 C.3       6 GLP5        0.0000 
     18 N          29.7425   86.8995   20.2515 N.am      2 SEC2        0.0000 
     19 N          28.3850   87.6750   20.7740 N.am      8 SEL2        0.0000 
     20 N          31.1000   86.1240   19.7290 N.am      5 SEP2        0.0000 
     21 O          29.4860   87.9390   19.9855 O.2       1 ALC1        0.0000 
     22 O          28.3850   87.6750   20.7740 O.2       7 ALL1        0.0000 
     23 O          30.5870   88.2030   19.1970 O.2       4 ALP1        0.0000 
     24 N          30.1970   85.7160   20.8545 N.am      2 SEC2        0.0000 
     25 N          29.2940   85.3080   21.9800 N.am      8 SEL2        0.0000 
     26 CA         24.8208   85.5335   17.4095 C.3       3 GLC5        0.0000 
     27 CA         25.3690   86.5550   18.3880 C.3       9 GLL5        0.0000 
     28 CA         25.4367   83.9208   19.4165 C.3       3 GLC5        0.0000 
     29 CA         25.9790   83.6790   20.8320 C.3       9 GLL5        0.0000 
     30 CA         24.1740   83.9330   18.1000 C.3       6 GLP5        0.0000 
@<TRIPOS>BOND
@<TRIPOS>SUBSTRUCTURE
     1 ALC1        1 GROUP        1 X    ALC  0     ROOT ALC X 1
     2 SEC2        4 GROUP        1 X    SEC  0     **** SEC X 2
     3 GLC5       10 GROUP        1 X    GLC  0     **** GLC X 6
     4 ALP1        3 GROUP        1 Y    ALP  0     ROOT ALP Y 8
     5 SEP2        6 GROUP        1 Y    SEP  0     **** SEP Y 9
     6 GLP5       12 GROUP        1 Y    GLP  0     **** GLP Y 13
     7 ALL1        2 GROUP        1 Z    ALL  0     ROOT ALL Z 15
     8 SEL2        5 GROUP        1 Z    SEL  0     **** SEL Z 16
     9 GLL5       11 GROUP        1 Z    GLL  0     **** GLL Z 20
@<TRIPOS>SET

