#    Name: 1hxp_U5P_1_ligand
#    Modification time : Tue Mar 25 06:30:43 2014

@<TRIPOS>MOLECULE
1hxp_U5P_1_ligand
   32    33     1     0     0
SMALL
NO_CHARGES


@<TRIPOS>ATOM
      1 N1         26.7350   86.5820   18.2070 N.am      1 U5P355      0.0000 
      2 C2         27.2730   87.2130   17.1180 C.2       1 U5P355      0.0000 
      3 N3         26.3750   87.7920   16.2600 N.am      1 U5P355      0.0000 
      4 C4         24.9900   87.8000   16.3930 C.2       1 U5P355      0.0000 
      5 C5         24.5300   87.1190   17.5520 C.2       1 U5P355      0.0000 
      6 C6         25.3690   86.5550   18.3880 C.2       1 U5P355      0.0000 
      7 O2         28.4860   87.2500   16.9950 O.2       1 U5P355      0.0000 
      8 O4         24.3180   88.3600   15.5420 O.2       1 U5P355      0.0000 
      9 C1'        27.6670   85.9490   19.1560 C.3       1 U5P355      0.0000 
     10 C2'        27.5610   86.5090   20.5670 C.3       1 U5P355      0.0000 
     11 O2'        28.3850   87.6750   20.7740 O.3       1 U5P355      0.0000 
     12 C3'        27.9380   85.3160   21.4600 C.3       1 U5P355      0.0000 
     13 C4'        27.4200   84.1380   20.6340 C.3       1 U5P355      0.0000 
     14 O3'        29.2940   85.3080   21.9800 O.3       1 U5P355      0.0000 
     15 O4'        27.4600   84.5670   19.2440 O.3       1 U5P355      0.0000 
     16 C5'        25.9790   83.6790   20.8320 C.3       1 U5P355      0.0000 
     17 O5'        25.6030   83.4100   22.2000 O.3       1 U5P355      0.0000 
     18 P          24.6010   84.4090   22.9890 P.3       1 U5P355      0.0000 
     19 O1P        25.0920   85.7930   23.3450 O.co2     1 U5P355      0.0000 
     20 O2P        24.2570   83.8270   24.3190 O.co2     1 U5P355      0.0000 
     21 O3P        23.2160   84.3130   22.0710 O.co2     1 U5P355      0.0000 
     22 H          26.7733   88.2931   15.3933 H         1 U5P355      0.0000 
     23 H          23.4946   87.0933   17.6992 H         1 U5P355      0.0000 
     24 H          25.0077   86.0488   19.2501 H         1 U5P355      0.0000 
     25 H          28.7019   86.1454   18.8238 H         1 U5P355      0.0000 
     26 H          26.5080   86.7111   20.7473 H         1 U5P355      0.0000 
     27 H          27.1903   85.3980   22.3182 H         1 U5P355      0.0000 
     28 H          28.0805   83.2957   20.7432 H         1 U5P355      0.0000 
     29 H          25.8252   82.7733   20.1956 H         1 U5P355      0.0000 
     30 H          25.3144   84.4593   20.3868 H         1 U5P355      0.0000 
     31 H          29.1114   87.6031   20.0905 H         1 U5P355      0.0000 
     32 H          29.3236   84.5349   22.6135 H         1 U5P355      0.0000 
@<TRIPOS>BOND
     1    2    1 1    
     2    6    1 1    
     3    9    1 1    
     4    3    2 1    
     5    7    2 2    
     6    4    3 1    
     7   22    3 1    
     8    5    4 1    
     9    8    4 2    
    10    6    5 2    
    11   23    5 1    
    12   24    6 1    
    13   10    9 1    
    14   15    9 1    
    15   25    9 1    
    16   11   10 1    
    17   12   10 1    
    18   26   10 1    
    19   31   11 1    
    20   13   12 1    
    21   14   12 1    
    22   27   12 1    
    23   15   13 1    
    24   16   13 1    
    25   28   13 1    
    26   32   14 1    
    27   17   16 1    
    28   29   16 1    
    29   30   16 1    
    30   18   17 1    
    31   19   18 ar   
    32   20   18 ar   
    33   21   18 ar   
@<TRIPOS>SUBSTRUCTURE
     1 U5P355      1 GROUP   
@<TRIPOS>SET

