#    Name: 2gqg_1N1_2_INTS_M
#    Modification time : Tue Mar 25 14:57:35 2014

@<TRIPOS>MOLECULE
2gqg_1N1_2_INTS_M
   76     0     9     0     0
SMALL
NO_CHARGES


@<TRIPOS>ATOM
      1 CA         43.8155   20.0945   45.4375 C.3       3 GLC5        0.0000 
      2 CA         45.0920   21.1980   44.0220 C.3       9 GLL5        0.0000 
      3 CA         42.5390   18.9910   46.8530 C.3       6 GLP5        0.0000 
      4 CA         45.6725   21.6820   45.9325 C.3       3 GLC5        0.0000 
      5 CA         46.2530   22.1660   47.8430 C.3       6 GLP5        0.0000 
      6 CA         48.6360   19.8915   36.8205 C.3       3 GLC5        0.0000 
      7 CA         49.5720   19.2410   38.6830 C.3       9 GLL5        0.0000 
      8 CA         47.7000   20.5420   34.9580 C.3       6 GLP5        0.0000 
      9 CA         51.4105   19.1560   37.4455 C.3       3 GLC5        0.0000 
     10 CA         53.2490   19.0710   36.2080 C.3       6 GLP5        0.0000 
     11 CA         50.2055   22.6705   42.5225 C.3       3 GLC5        0.0000 
     12 CA         49.6460   21.3380   41.8210 C.3       9 GLL5        0.0000 
     13 CA         50.7650   24.0030   43.2240 C.3       6 GLP5        0.0000 
     14 CA         42.3190   27.1790   44.6550 C.3       3 GLC5        0.0000 
     15 CA         41.7070   26.4480   42.7130 C.3       9 GLL5        0.0000 
     16 CA         42.9310   27.9100   46.5970 C.3       6 GLP5        0.0000 
     17 CA         44.3415   26.8110   40.9185 C.3       3 GLC5        0.0000 
     18 CA         42.2170   26.9640   41.3950 C.3       9 GLL5        0.0000 
     19 CA         46.4660   26.6580   40.4420 C.3       6 GLP5        0.0000 
     20 CA         40.8340   27.4035   46.5830 C.3       3 GLC5        0.0000 
     21 CA         38.7370   26.8970   46.5690 C.3       9 GLL5        0.0000 
     22 CA         39.9460   28.9905   49.4935 C.3       3 GLC5        0.0000 
     23 CA         38.5070   30.5380   48.9590 C.3       9 GLL5        0.0000 
     24 CA         41.3850   27.4430   50.0280 C.3       6 GLP5        0.0000 
     25 O          42.3560   23.7460   46.2705 O.2       1 ALC1        0.0000 
     26 O          42.5570   23.7240   44.8230 O.2       7 ALL1        0.0000 
     27 O          42.1550   23.7680   47.7180 O.2       4 ALP1        0.0000 
     28 N          43.7065   21.4730   46.1635 N.am      2 SEC2        0.0000 
     29 N          43.9610   21.8100   44.7770 N.am      8 SEL2        0.0000 
     30 N          43.4520   21.1360   47.5500 N.am      5 SEP2        0.0000 
     31 CA         43.4610   22.6945   40.7330 C.3       3 GLC5        0.0000 
     32 CA         44.2160   23.1540   42.6110 C.3       9 GLL5        0.0000 
     33 CA         42.7060   22.2350   38.8550 C.3       6 GLP5        0.0000 
     34 CA         43.5990   21.1540   42.4565 C.3       3 GLC5        0.0000 
     35 CA         42.9820   19.1540   42.3020 C.3       6 GLP5        0.0000 
     36 CA         45.6830   23.5100   43.7080 C.3       3 GLC5        0.0000 
     37 CA         47.1500   23.8660   44.8050 C.3       6 GLP5        0.0000 
     38 O          46.6460   19.0405   42.4540 O.2       1 ALC1        0.0000 
     39 O          46.8710   20.2910   41.6870 O.2       7 ALL1        0.0000 
     40 O          46.4210   17.7900   43.2210 O.2       4 ALP1        0.0000 
     41 CA         44.3470   18.9560   40.8530 C.3       3 GLC5        0.0000 
     42 CA         45.7120   18.7580   39.4040 C.3       9 GLL5        0.0000 
     43 CA         43.9890   17.8720   38.8225 C.3       3 GLC5        0.0000 
     44 CA         42.2660   16.9860   38.2410 C.3       6 GLP5        0.0000 
     45 CA         45.7470   18.9380   37.6000 C.3       3 GLC5        0.0000 
     46 CA         45.7820   19.1180   35.7960 C.3       6 GLP5        0.0000 
     47 CA         46.8415   17.6980   40.5875 C.3       3 GLC5        0.0000 
     48 CA         47.9710   16.6380   41.7710 C.3       6 GLP5        0.0000 
     49 O          40.8125   30.1340   49.1165 O.2       1 ALC1        0.0000 
     50 O          39.7210   30.9530   49.5710 O.2       7 ALL1        0.0000 
     51 O          41.9040   29.3150   48.6620 O.2       4 ALP1        0.0000 
     52 CA         44.0720   20.3240   42.8620 C.3       3 GLC5        0.0000 
     53 CA         46.1560   22.6800   44.1135 C.3       3 GLC5        0.0000 
     54 CA         51.1380   18.4725   39.4552 C.3       3 GLC5        0.0000 
     55 CA         49.9920   20.0530   39.7340 C.3       9 GLL5        0.0000 
     56 CA         52.4940   17.2980   39.7020 C.3       6 GLP5        0.0000 
     57 CA         48.8702   17.2843   38.1015 C.3       3 GLC5        0.0000 
     58 CA         48.8360   15.5050   37.5630 C.3       6 GLP5        0.0000 
     59 CA         48.8765   18.1425   40.4898 C.3       3 GLC5        0.0000 
     60 CA         48.1995   18.4383   41.2443 C.3       3 GLC5        0.0000 
     61 CA         49.1070   20.4520   40.7440 C.3       9 GLL5        0.0000 
     62 CA         40.5450   24.0165   43.4062 C.3       3 GLC5        0.0000 
     63 CA         41.9280   24.8430   44.3640 C.3       9 GLL5        0.0000 
     64 CA         39.6620   22.8790   42.0570 C.3       6 GLP5        0.0000 
     65 CA         41.9080   26.9023   45.6389 C.3       3 GLC5        0.0000 
     66 CA         40.3420   26.6350   44.6060 C.3       9 GLL5        0.0000 
     67 CA         40.5250   25.7445   41.3080 C.3       3 GLC5        0.0000 
     68 CA         39.0880   24.7830   40.5620 C.3       6 GLP5        0.0000 
     69 CA         39.8577   27.4335   48.4868 C.3       3 GLC5        0.0000 
     70 CA         48.8364   19.8810   42.9074 C.3       3 GLC5        0.0000 
     71 CA         47.7490   20.0250   40.6910 C.3       9 GLL5        0.0000 
     72 CA         49.1100   19.3020   44.8280 C.3       6 GLP5        0.0000 
     73 CA         46.7867   19.0987   37.4445 C.3       3 GLC5        0.0000 
     74 CA         47.3460   19.2730   39.5890 C.3       9 GLL5        0.0000 
     75 CA         47.8812   17.8588   40.4320 C.3       3 GLC5        0.0000 
     76 CA         48.2370   18.8860   38.5970 C.3       9 GLL5        0.0000 
@<TRIPOS>BOND
@<TRIPOS>SUBSTRUCTURE
     1 ALC1       25 GROUP        1 X    ALC  0     ROOT ALC X 1
     2 SEC2       28 GROUP        1 X    SEC  0     **** SEC X 2
     3 GLC5        1 GROUP        1 X    GLC  0     **** GLC X 6
     4 ALP1       27 GROUP        1 Y    ALP  0     ROOT ALP Y 8
     5 SEP2       30 GROUP        1 Y    SEP  0     **** SEP Y 9
     6 GLP5        3 GROUP        1 Y    GLP  0     **** GLP Y 13
     7 ALL1       26 GROUP        1 Z    ALL  0     ROOT ALL Z 15
     8 SEL2       29 GROUP        1 Z    SEL  0     **** SEL Z 16
     9 GLL5        2 GROUP        1 Z    GLL  0     **** GLL Z 20
@<TRIPOS>SET

