#    Name: 2gqg_1N1_2_ligand
#    Modification time : Tue Mar 25 14:57:35 2014

@<TRIPOS>MOLECULE
2gqg_1N1_2_ligand
   60    63     1     0     0
SMALL
NO_CHARGES


@<TRIPOS>ATOM
      1 C1         45.0920   21.1980   44.0220 C.2       1 1N1502      0.0000 
      2 C2         45.2320   21.7900   42.8220 C.2       1 1N1502      0.0000 
      3 C3         46.1380   21.4040   41.6930 C.2       1 1N1502      0.0000 
      4 N6         37.8580   29.3200   46.7410 N.4       1 1N1502      0.0000 
      5 C7         49.5720   19.2410   38.6830 C.ar      1 1N1502      0.0000 
      6 C8         49.9920   20.0530   39.7340 C.ar      1 1N1502      0.0000 
      7 C9         49.1070   20.4520   40.7440 C.ar      1 1N1502      0.0000 
      8 C10        49.6460   21.3380   41.8210 C.3       1 1N1502      0.0000 
      9 C11        41.9280   24.8430   44.3640 C.ar      1 1N1502      0.0000 
     10 C12        40.9280   25.4650   45.1470 C.ar      1 1N1502      0.0000 
     11 C13        40.3420   26.6350   44.6060 C.ar      1 1N1502      0.0000 
     12 C14        41.7070   26.4480   42.7130 C.ar      1 1N1502      0.0000 
     13 C15        42.2170   26.9640   41.3950 C.3       1 1N1502      0.0000 
     14 C16        38.4330   28.2200   44.5120 C.3       1 1N1502      0.0000 
     15 C19        38.7370   26.8970   46.5690 C.3       1 1N1502      0.0000 
     16 C20        38.6540   30.3560   47.4350 C.3       1 1N1502      0.0000 
     17 C21        38.5070   30.5380   48.9590 C.3       1 1N1502      0.0000 
     18 N          42.5570   23.7240   44.8230 N.pl3     1 1N1502      0.0000 
     19 C          43.4580   22.9160   44.1980 C.2       1 1N1502      0.0000 
     20 N1         43.9610   21.8100   44.7770 N.2       1 1N1502      0.0000 
     21 S          44.2160   23.1540   42.6110 S.3       1 1N1502      0.0000 
     22 N2         46.8710   20.2910   41.6870 N.am      1 1N1502      0.0000 
     23 C4         47.7490   20.0250   40.6910 C.ar      1 1N1502      0.0000 
     24 C5         47.3460   19.2730   39.5890 C.ar      1 1N1502      0.0000 
     25 C6         48.2370   18.8860   38.5970 C.ar      1 1N1502      0.0000 
     26 CL         45.7120   18.7580   39.4040 Cl        1 1N1502      0.0000 
     27 O          46.1400   22.2090   40.7620 O.2       1 1N1502      0.0000 
     28 N3         40.7480   27.1060   43.3800 N.ar      1 1N1502      0.0000 
     29 N4         42.2870   25.3460   43.1770 N.ar      1 1N1502      0.0000 
     30 N5         39.3580   27.4000   45.3300 N.3       1 1N1502      0.0000 
     31 C17        38.0180   29.4710   45.2700 C.3       1 1N1502      0.0000 
     32 C18        37.9240   27.9510   47.3220 C.3       1 1N1502      0.0000 
     33 O1         39.7210   30.9530   49.5710 O.3       1 1N1502      0.0000 
     34 H          45.5998   20.4864   44.4070 H         1 1N1502      0.0000 
     35 H          36.7436   29.6732   46.9298 H         1 1N1502      0.0000 
     36 H          50.2449   18.9133   37.9855 H         1 1N1502      0.0000 
     37 H          50.9770   20.3697   39.7726 H         1 1N1502      0.0000 
     38 H          40.6507   25.1010   46.0301 H         1 1N1502      0.0000 
     39 H          37.5362   27.6458   44.2641 H         1 1N1502      0.0000 
     40 H          38.9170   28.5194   43.5784 H         1 1N1502      0.0000 
     41 H          39.5137   26.5081   47.2556 H         1 1N1502      0.0000 
     42 H          38.0674   26.0447   46.3427 H         1 1N1502      0.0000 
     43 H          38.4556   31.3646   46.9598 H         1 1N1502      0.0000 
     44 H          39.7543   30.1888   47.2255 H         1 1N1502      0.0000 
     45 H          38.1484   29.5747   49.3676 H         1 1N1502      0.0000 
     46 H          37.6932   31.2694   49.1213 H         1 1N1502      0.0000 
     47 H          42.2970   23.4289   45.8557 H         1 1N1502      0.0000 
     48 H          46.7716   19.5945   42.4730 H         1 1N1502      0.0000 
     49 H          47.9012   18.3324   37.7945 H         1 1N1502      0.0000 
     50 H          38.7673   30.2715   45.0575 H         1 1N1502      0.0000 
     51 H          37.0628   29.8449   44.8283 H         1 1N1502      0.0000 
     52 H          36.8819   27.5515   47.4517 H         1 1N1502      0.0000 
     53 H          38.3268   28.0105   48.3692 H         1 1N1502      0.0000 
     54 H          50.4011   20.9060   42.3141 H         1 1N1502      0.0000 
     55 H          49.9918   22.2013   41.4533 H         1 1N1502      0.0000 
     56 H          48.9467   21.5670   42.4982 H         1 1N1502      0.0000 
     57 H          42.6094   27.8797   41.4814 H         1 1N1502      0.0000 
     58 H          42.9301   26.3742   41.0161 H         1 1N1502      0.0000 
     59 H          41.4892   27.0202   40.7115 H         1 1N1502      0.0000 
     60 H          40.2940   30.1337   49.5907 H         1 1N1502      0.0000 
@<TRIPOS>BOND
     1    2    1 2    
     2   20    1 1    
     3   34    1 1    
     4    3    2 1    
     5   21    2 1    
     6   22    3 am   
     7   27    3 2    
     8   16    4 1    
     9   31    4 1    
    10   32    4 1    
    11   35    4 1    
    12    6    5 ar   
    13   25    5 ar   
    14   36    5 1    
    15    7    6 ar   
    16   37    6 1    
    17    8    7 1    
    18   23    7 ar   
    19   54    8 1    
    20   55    8 1    
    21   56    8 1    
    22   10    9 ar   
    23   18    9 1    
    24   29    9 ar   
    25   11   10 ar   
    26   38   10 1    
    27   28   11 ar   
    28   30   11 1    
    29   13   12 1    
    30   28   12 ar   
    31   29   12 ar   
    32   57   13 1    
    33   58   13 1    
    34   59   13 1    
    35   30   14 1    
    36   31   14 1    
    37   39   14 1    
    38   40   14 1    
    39   30   15 1    
    40   32   15 1    
    41   41   15 1    
    42   42   15 1    
    43   17   16 1    
    44   43   16 1    
    45   44   16 1    
    46   33   17 1    
    47   45   17 1    
    48   46   17 1    
    49   19   18 1    
    50   47   18 1    
    51   20   19 2    
    52   21   19 1    
    53   23   22 1    
    54   48   22 1    
    55   24   23 ar   
    56   25   24 ar   
    57   26   24 1    
    58   49   25 1    
    59   50   31 1    
    60   51   31 1    
    61   52   32 1    
    62   53   32 1    
    63   60   33 1    
@<TRIPOS>SUBSTRUCTURE
     1 1N1502      1 GROUP   
@<TRIPOS>SET

