#    Name: 1fnd_A2P_1_INTS_M
#    Modification time : Tue Mar 25 01:33:37 2014

@<TRIPOS>MOLECULE
1fnd_A2P_1_INTS_M
   63     0    12     0     0
SMALL
NO_CHARGES


@<TRIPOS>ATOM
      1 NZ          6.9010   -4.6865   11.8435 N.4       3 LYC4        0.0000 
      2 NZ          8.0850   -3.8170   11.4070 N.4      11 LYL4        0.0000 
      3 NZ          5.7170   -5.5560   12.2800 N.4       7 LYP4        0.0000 
      4 N           7.0680   -3.0185   11.7515 N.am      2 SEC2        0.0000 
      5 N           8.0850   -3.8170   11.4070 N.am     10 SEL2        0.0000 
      6 N           6.0510   -2.2200   12.0960 N.am      6 SEP2        0.0000 
      7 NZ         10.3355   -6.3630   11.0290 N.4       3 LYC4        0.0000 
      8 NZ         10.3490   -5.1310   11.4130 N.4      11 LYL4        0.0000 
      9 NZ         10.0210   -8.6460   11.4000 N.4       7 LYP4        0.0000 
     10 N          10.3355   -6.3630   11.0290 N.am      2 SEC2        0.0000 
     11 N          10.3490   -5.1310   11.4130 N.am     10 SEL2        0.0000 
     12 N          10.3220   -7.5950   10.6450 N.am      6 SEP2        0.0000 
     13 NZ          8.9375   -7.1345   12.7695 N.4       3 LYC4        0.0000 
     14 NZ          8.5710   -5.8260   13.0520 N.4      11 LYL4        0.0000 
     15 NZ          7.1440   -5.6910   12.6660 N.4       3 LYC4        0.0000 
     16 N           8.7905   -5.6240   14.3835 N.am      2 SEC2        0.0000 
     17 N           8.5710   -5.8260   13.0520 N.am     10 SEL2        0.0000 
     18 N           9.0100   -5.4220   15.7150 N.am      6 SEP2        0.0000 
     19 N           8.9375   -7.1345   12.7695 N.am      2 SEC2        0.0000 
     20 N           9.3040   -8.4430   12.4870 N.am      6 SEP2        0.0000 
     21 N           9.4465   -6.7105   11.8485 N.am      2 SEC2        0.0000 
     22 N           7.1440   -5.6910   12.6660 N.am      2 SEC2        0.0000 
     23 N           5.7170   -5.5560   12.2800 N.am      6 SEP2        0.0000 
     24 NZ         16.9200   -4.8400   10.7670 N.4       3 LYC4        0.0000 
     25 NZ         16.9270   -3.6920   12.1750 N.4      11 LYL4        0.0000 
     26 NZ         16.9130   -5.9880    9.3590 N.4       7 LYP4        0.0000 
     27 NZ         15.9435   -5.5050   10.7645 N.4       3 LYC4        0.0000 
     28 NZ         14.9740   -5.0220   12.1700 N.4      11 LYL4        0.0000 
     29 CA         15.9770   -1.8290   14.4865 C.3       4 GLC5        0.0000 
     30 CA         14.2180   -2.3000   13.4210 C.3      12 GLL5        0.0000 
     31 CA         17.7360   -1.3580   15.5520 C.3       8 GLP5        0.0000 
     32 CA         14.8295   -0.5630   12.5895 C.3       4 GLC5        0.0000 
     33 CA         15.4410    1.1740   11.7580 C.3       8 GLP5        0.0000 
     34 O          10.2215   -4.5900   15.6130 O.2       1 ALC1        0.0000 
     35 O          11.4330   -3.7580   15.5110 O.2       9 ALL1        0.0000 
     36 O           9.0100   -5.4220   15.7150 O.2       5 ALP1        0.0000 
     37 CA          9.5260    3.9985   10.6375 C.3       4 GLC5        0.0000 
     38 CA          8.6110    2.4130   11.8920 C.3      12 GLL5        0.0000 
     39 CA         10.4410    5.5840    9.3830 C.3       8 GLP5        0.0000 
     40 CA          9.5025    4.2420   12.5155 C.3       4 GLC5        0.0000 
     41 CA         10.3940    6.0710   13.1390 C.3       8 GLP5        0.0000 
     42 CA         10.9415    2.2280   15.0730 C.3       4 GLC5        0.0000 
     43 CA          8.8840    2.3440   14.2730 C.3      12 GLL5        0.0000 
     44 CA         12.9990    2.1120   15.8730 C.3       8 GLP5        0.0000 
     45 CA          7.5510    1.6275   15.5400 C.3       4 GLC5        0.0000 
     46 CA          6.2180    0.9110   16.8070 C.3       8 GLP5        0.0000 
     47 CA          9.5090    3.0750   16.2365 C.3       4 GLC5        0.0000 
     48 CA         10.1340    3.8060   18.2000 C.3       8 GLP5        0.0000 
     49 CA          9.6390    4.2075   13.7060 C.3       4 GLC5        0.0000 
     50 CA         13.9922   -0.2590   14.5770 C.3       4 GLC5        0.0000 
     51 CA         13.0510   -2.2460   14.3730 C.3      12 GLL5        0.0000 
     52 CA         14.3500    1.7550   15.2570 C.3       8 GLP5        0.0000 
     53 CA         13.1555   -3.5038   16.1360 C.3       4 GLC5        0.0000 
     54 CA         13.7550   -4.1810   17.9290 C.3       8 GLP5        0.0000 
     55 CA         13.2755   -4.5277   15.0125 C.3       4 GLC5        0.0000 
     56 CA         12.0610   -3.4070   14.3130 C.3      12 GLL5        0.0000 
     57 CA         13.9950   -6.2290   15.6820 C.3       8 GLP5        0.0000 
     58 CA          8.9672   -1.9968   13.8800 C.3       4 GLC5        0.0000 
     59 CA         11.1190   -2.8770   13.1980 C.3      12 GLL5        0.0000 
     60 CA          6.9140   -1.8000   14.2750 C.3       8 GLP5        0.0000 
     61 CA         11.4330    0.7235   11.5242 C.3       4 GLC5        0.0000 
     62 CA          9.7210    0.6520   13.1120 C.3      12 GLL5        0.0000 
     63 CA         13.3510    0.5410   10.5560 C.3       8 GLP5        0.0000 
@<TRIPOS>BOND
@<TRIPOS>SUBSTRUCTURE
     1 ALC1       34 GROUP        1 X    ALC  0     ROOT ALC X 1
     2 SEC2        4 GROUP        1 X    SEC  0     **** SEC X 2
     3 LYC4        1 GROUP        1 X    LYC  0     **** LYC X 4
     4 GLC5       29 GROUP        1 X    GLC  0     **** GLC X 6
     5 ALP1       36 GROUP        1 Y    ALP  0     ROOT ALP Y 8
     6 SEP2        6 GROUP        1 Y    SEP  0     **** SEP Y 9
     7 LYP4        3 GROUP        1 Y    LYP  0     **** LYP Y 11
     8 GLP5       31 GROUP        1 Y    GLP  0     **** GLP Y 13
     9 ALL1       35 GROUP        1 Z    ALL  0     ROOT ALL Z 15
    10 SEL2        5 GROUP        1 Z    SEL  0     **** SEL Z 16
    11 LYL4        2 GROUP        1 Z    LYL  0     **** LYL Z 18
    12 GLL5       30 GROUP        1 Z    GLL  0     **** GLL Z 20
@<TRIPOS>SET

