#    Name: 1fnd_A2P_1_ligand
#    Modification time : Tue Mar 25 01:33:37 2014

@<TRIPOS>MOLECULE
1fnd_A2P_1_ligand
   38    40     1     0     0
SMALL
NO_CHARGES


@<TRIPOS>ATOM
      1 P1          9.1350   -4.6300   12.2120 P.3       1 A2P316      0.0000 
      2 O1P         8.0850   -3.8170   11.4070 O.co2     1 A2P316      0.0000 
      3 O2P        10.3490   -5.1310   11.4130 O.co2     1 A2P316      0.0000 
      4 O3P         8.5710   -5.8260   13.0520 O.co2     1 A2P316      0.0000 
      5 P2         15.9780   -4.3740   13.0170 P.3       1 A2P316      0.0000 
      6 O4P        16.9270   -3.6920   12.1750 O.co2     1 A2P316      0.0000 
      7 O5P        16.7180   -5.4050   13.8740 O.co2     1 A2P316      0.0000 
      8 O6P        14.9740   -5.0220   12.1700 O.co2     1 A2P316      0.0000 
      9 O5'        15.1900   -3.3240   13.9970 O.3       1 A2P316      0.0000 
     10 C5'        14.2180   -2.3000   13.4210 C.3       1 A2P316      0.0000 
     11 C4'        13.0510   -2.2460   14.3730 C.3       1 A2P316      0.0000 
     12 O4'        12.2940   -1.0630   13.9290 O.3       1 A2P316      0.0000 
     13 C3'        12.0610   -3.4070   14.3130 C.3       1 A2P316      0.0000 
     14 O3'        11.4330   -3.7580   15.5110 O.3       1 A2P316      0.0000 
     15 C2'        11.1190   -2.8770   13.1980 C.3       1 A2P316      0.0000 
     16 O2'         9.8310   -3.4630   13.2880 O.3       1 A2P316      0.0000 
     17 C1'        10.9220   -1.5100   13.7720 C.3       1 A2P316      0.0000 
     18 N9         10.2840   -0.5930   12.8010 N.pl3     1 A2P316      0.0000 
     19 C8         10.2360   -0.7230   11.4170 C.2       1 A2P316      0.0000 
     20 N7          9.6310    0.3260   10.8560 N.2       1 A2P316      0.0000 
     21 C5          9.3090    1.1600   11.8730 C.ar      1 A2P316      0.0000 
     22 C6          8.6110    2.4130   11.8920 C.ar      1 A2P316      0.0000 
     23 N6          8.1770    2.9920   10.8150 N.pl3     1 A2P316      0.0000 
     24 N1          8.4250    2.9580   13.1380 N.ar      1 A2P316      0.0000 
     25 C2          8.8840    2.3440   14.2730 C.ar      1 A2P316      0.0000 
     26 N3          9.5550    1.1990   14.3190 N.ar      1 A2P316      0.0000 
     27 C4          9.7210    0.6520   13.1120 C.ar      1 A2P316      0.0000 
     28 H          13.8900   -2.6251   12.4531 H         1 A2P316      0.0000 
     29 H          14.6978   -1.3423   13.3706 H         1 A2P316      0.0000 
     30 H          13.3809   -2.0871   15.3650 H         1 A2P316      0.0000 
     31 H          12.6104   -4.2321   13.8348 H         1 A2P316      0.0000 
     32 H          11.5761   -2.8391   12.3237 H         1 A2P316      0.0000 
     33 H          10.4339   -1.5513   14.6783 H         1 A2P316      0.0000 
     34 H          10.6067   -1.4956   10.9449 H         1 A2P316      0.0000 
     35 H           8.3528    2.5116    9.9558 H         1 A2P316      0.0000 
     36 H           7.7068    3.8651   10.9438 H         1 A2P316      0.0000 
     37 H           8.6730    2.8494   15.2063 H         1 A2P316      0.0000 
     38 H          10.6468   -4.3126   15.2382 H         1 A2P316      0.0000 
@<TRIPOS>BOND
     1    2    1 ar   
     2    3    1 ar   
     3    4    1 ar   
     4   16    1 1    
     5    6    5 ar   
     6    7    5 ar   
     7    8    5 ar   
     8    9    5 1    
     9   10    9 1    
    10   11   10 1    
    11   28   10 1    
    12   29   10 1    
    13   12   11 1    
    14   13   11 1    
    15   30   11 1    
    16   17   12 1    
    17   14   13 1    
    18   15   13 1    
    19   31   13 1    
    20   38   14 1    
    21   16   15 1    
    22   17   15 1    
    23   32   15 1    
    24   18   17 1    
    25   33   17 1    
    26   19   18 1    
    27   27   18 1    
    28   20   19 2    
    29   34   19 1    
    30   21   20 1    
    31   22   21 ar   
    32   27   21 ar   
    33   23   22 1    
    34   24   22 ar   
    35   35   23 1    
    36   36   23 1    
    37   25   24 ar   
    38   26   25 ar   
    39   37   25 1    
    40   27   26 ar   
@<TRIPOS>SUBSTRUCTURE
     1 A2P316      1 GROUP   
@<TRIPOS>SET

