#    Name: 2fk8_SAM_1_INTS_M
#    Modification time : Tue Mar 25 12:50:04 2014

@<TRIPOS>MOLECULE
2fk8_SAM_1_INTS_M
   67     0     9     0     0
SMALL
NO_CHARGES


@<TRIPOS>ATOM
      1 O          25.3900   -5.4880   11.7350 O.2       1 ALC1        0.0000 
      2 O          24.1690   -5.6400   12.4260 O.2       7 ALL1        0.0000 
      3 O          26.6110   -5.3360   11.0440 O.2       4 ALP1        0.0000 
      4 O          24.4125   -5.1250   13.6605 O.2       1 ALC1        0.0000 
      5 O          24.6560   -4.6100   14.8950 O.2       4 ALP1        0.0000 
      6 N          21.2390   -7.0790   14.5680 N.am      2 SEC2        0.0000 
      7 N          21.9910   -6.9130   13.5500 N.am      8 SEL2        0.0000 
      8 N          20.4870   -7.2450   15.5860 N.am      5 SEP2        0.0000 
      9 N          21.9145   -9.9735   13.5005 N.am      2 SEC2        0.0000 
     10 N          22.4700   -8.8650   12.7110 N.am      8 SEL2        0.0000 
     11 N          21.3590  -11.0820   14.2900 N.am      5 SEP2        0.0000 
     12 CA         27.5880  -10.3015   17.7105 C.3       3 GLC5        0.0000 
     13 CA         26.5750   -9.1950   16.3780 C.3       9 GLL5        0.0000 
     14 CA         28.6010  -11.4080   19.0430 C.3       6 GLP5        0.0000 
     15 CA         28.6495   -5.9950   15.2610 C.3       3 GLC5        0.0000 
     16 CA         28.4190   -7.9710   14.4850 C.3       9 GLL5        0.0000 
     17 CA         28.8800   -4.0190   16.0370 C.3       6 GLP5        0.0000 
     18 CA         29.0135   -5.4595   13.8585 C.3       3 GLC5        0.0000 
     19 CA         28.9120   -7.4090   13.1180 C.3       9 GLL5        0.0000 
     20 CA         29.1150   -3.5100   14.5990 C.3       6 GLP5        0.0000 
     21 N          27.7865   -8.0065    9.9895 N.am      2 SEC2        0.0000 
     22 N          29.1940   -8.1880   10.8390 N.am      8 SEL2        0.0000 
     23 N          26.3790   -7.8250    9.1400 N.am      5 SEP2        0.0000 
     24 O          29.1405   -9.2105   10.2120 O.2       1 ALC1        0.0000 
     25 O          29.1940   -8.1880   10.8390 O.2       7 ALL1        0.0000 
     26 O          29.0870  -10.2330    9.5850 O.2       4 ALP1        0.0000 
     27 N          32.7955   -8.1380   10.0950 N.am      2 SEC2        0.0000 
     28 N          31.9330   -8.4410   11.2660 N.am      8 SEL2        0.0000 
     29 N          33.6580   -7.8350    8.9240 N.am      5 SEP2        0.0000 
     30 O          31.5060   -8.6985    9.7930 O.2       1 ALC1        0.0000 
     31 O          31.9330   -8.4410   11.2660 O.2       7 ALL1        0.0000 
     32 O          31.0790   -8.9560    8.3200 O.2       4 ALP1        0.0000 
     33 CA         29.9170   -5.5005   11.6505 C.3       3 GLC5        0.0000 
     34 CA         31.0150   -6.5520   12.4710 C.3       9 GLL5        0.0000 
     35 CA         28.8190   -4.4490   10.8300 C.3       6 GLP5        0.0000 
     36 CA         30.0650   -5.0310   13.5350 C.3       3 GLC5        0.0000 
     37 CA         35.4720   -2.7290   10.8450 C.3       3 GLC5        0.0000 
     38 CA         34.5180   -3.0860   12.5380 C.3       9 GLL5        0.0000 
     39 CA         36.4260   -2.3720    9.1520 C.3       6 GLP5        0.0000 
     40 O          36.7280   -1.6530   12.6315 O.2       1 ALC1        0.0000 
     41 O          35.5790   -2.5900   13.2100 O.2       7 ALL1        0.0000 
     42 O          37.8770   -0.7160   12.0530 O.2       4 ALP1        0.0000 
     43 N          34.7670   -1.3665   10.5215 N.am      2 SEC2        0.0000 
     44 N          34.1220   -2.4870   11.3520 N.am      8 SEL2        0.0000 
     45 N          35.4120   -0.2460    9.6910 N.am      5 SEP2        0.0000 
     46 CA         31.9075   -1.5865   10.9400 C.3       3 GLC5        0.0000 
     47 CA         33.0670   -2.9980   10.6210 C.3       9 GLL5        0.0000 
     48 CA         30.7480   -0.1750   11.2590 C.3       6 GLP5        0.0000 
     49 CA         30.9430   -3.7235   10.7255 C.3       3 GLC5        0.0000 
     50 CA         32.4205   -2.6475    8.7420 C.3       3 GLC5        0.0000 
     51 CA         31.7740   -2.2970    6.8630 C.3       6 GLP5        0.0000 
     52 CA         34.7465   -2.6850    9.8865 C.3       3 GLC5        0.0000 
     53 CA         30.7655   -4.5650   11.5495 C.3       3 GLC5        0.0000 
     54 CA         32.7120   -4.6810   12.2690 C.3       9 GLL5        0.0000 
     55 CA         34.3085   -5.6490   11.5120 C.3       3 GLC5        0.0000 
     56 CA         35.9050   -6.6170   10.7550 C.3       6 GLP5        0.0000 
     57 CA         30.9135   -4.0955   13.4340 C.3       3 GLC5        0.0000 
     58 CA         25.2512   -8.3308   10.9230 C.3       3 GLC5        0.0000 
     59 CA         25.2710   -7.8630   12.7040 C.3       9 GLL5        0.0000 
     60 CA         25.8540   -9.1810    9.3730 C.3       6 GLP5        0.0000 
     61 CA         26.1463  -10.9530   15.7980 C.3       3 GLC5        0.0000 
     62 CA         26.8600   -8.9610   14.5940 C.3       9 GLL5        0.0000 
     63 CA         25.5750  -12.8280   16.1100 C.3       6 GLP5        0.0000 
     64 CA         29.0463   -6.1765   11.7415 C.3       3 GLC5        0.0000 
     65 CA         35.2627   -5.0665   12.5122 C.3       3 GLC5        0.0000 
     66 CA         33.7830   -4.1860   13.0170 C.3       9 GLL5        0.0000 
     67 CA         36.3750   -6.4970   12.2470 C.3       6 GLP5        0.0000 
@<TRIPOS>BOND
@<TRIPOS>SUBSTRUCTURE
     1 ALC1        1 GROUP        1 X    ALC  0     ROOT ALC X 1
     2 SEC2        6 GROUP        1 X    SEC  0     **** SEC X 2
     3 GLC5       12 GROUP        1 X    GLC  0     **** GLC X 6
     4 ALP1        3 GROUP        1 Y    ALP  0     ROOT ALP Y 8
     5 SEP2        8 GROUP        1 Y    SEP  0     **** SEP Y 9
     6 GLP5       14 GROUP        1 Y    GLP  0     **** GLP Y 13
     7 ALL1        2 GROUP        1 Z    ALL  0     ROOT ALL Z 15
     8 SEL2        7 GROUP        1 Z    SEL  0     **** SEL Z 16
     9 GLL5       13 GROUP        1 Z    GLL  0     **** GLL Z 20
@<TRIPOS>SET

