#    Name: 2fk8_SAM_1_ligand
#    Modification time : Tue Mar 25 12:50:04 2014

@<TRIPOS>MOLECULE
2fk8_SAM_1_ligand
   50    52     1     0     0
SMALL
NO_CHARGES


@<TRIPOS>ATOM
      1 N          24.1690   -5.6400   12.4260 N.4       1 SAM302      0.0000 
      2 CA         24.0260   -7.0980   12.2420 C.3       1 SAM302      0.0000 
      3 C          22.7420   -7.6570   12.8850 C.2       1 SAM302      0.0000 
      4 O          21.9910   -6.9130   13.5500 O.co2     1 SAM302      0.0000 
      5 OXT        22.4700   -8.8650   12.7110 O.co2     1 SAM302      0.0000 
      6 CB         25.2710   -7.8630   12.7040 C.3       1 SAM302      0.0000 
      7 CG         25.5460   -7.7800   14.1900 C.3       1 SAM302      0.0000 
      8 SD         26.8600   -8.9610   14.5940 S.3       1 SAM302      0.0000 
      9 CE         26.5750   -9.1950   16.3780 C.3       1 SAM302      0.0000 
     10 C5'        28.4190   -7.9710   14.4850 C.3       1 SAM302      0.0000 
     11 C4'        28.9120   -7.4090   13.1180 C.3       1 SAM302      0.0000 
     12 O4'        29.8910   -6.3850   13.3220 O.3       1 SAM302      0.0000 
     13 C3'        29.6350   -8.3990   12.1880 C.3       1 SAM302      0.0000 
     14 O3'        29.1940   -8.1880   10.8390 O.3       1 SAM302      0.0000 
     15 C2'        31.1370   -8.0640   12.3640 C.3       1 SAM302      0.0000 
     16 O2'        31.9330   -8.4410   11.2660 O.3       1 SAM302      0.0000 
     17 C1'        31.0150   -6.5520   12.4710 C.3       1 SAM302      0.0000 
     18 N9         32.2040   -5.7820   12.9410 N.pl3     1 SAM302      0.0000 
     19 C8         32.9310   -5.9420   14.0990 C.2       1 SAM302      0.0000 
     20 N7         33.9030   -4.9770   14.1350 N.2       1 SAM302      0.0000 
     21 C5         33.7830   -4.1860   13.0170 C.ar      1 SAM302      0.0000 
     22 C6         34.5180   -3.0860   12.5380 C.ar      1 SAM302      0.0000 
     23 N6         35.5790   -2.5900   13.2100 N.pl3     1 SAM302      0.0000 
     24 N1         34.1220   -2.4870   11.3520 N.ar      1 SAM302      0.0000 
     25 C2         33.0670   -2.9980   10.6210 C.ar      1 SAM302      0.0000 
     26 N3         32.3560   -4.0900   11.0840 N.ar      1 SAM302      0.0000 
     27 C4         32.7120   -4.6810   12.2690 C.ar      1 SAM302      0.0000 
     28 H          23.9311   -7.2983   11.1420 H         1 SAM302      0.0000 
     29 H          26.1465   -7.4766   12.1490 H         1 SAM302      0.0000 
     30 H          25.1591   -8.9243   12.4126 H         1 SAM302      0.0000 
     31 H          24.7483   -8.1150   14.7963 H         1 SAM302      0.0000 
     32 H          25.9656   -6.8617   14.5011 H         1 SAM302      0.0000 
     33 H          29.1489   -8.6596   14.9463 H         1 SAM302      0.0000 
     34 H          28.2246   -7.1735   15.2239 H         1 SAM302      0.0000 
     35 H          28.0708   -7.0002   12.5768 H         1 SAM302      0.0000 
     36 H          29.4635   -9.3749   12.5481 H         1 SAM302      0.0000 
     37 H          31.4329   -8.4291   13.3050 H         1 SAM302      0.0000 
     38 H          30.7231   -6.1964   11.4600 H         1 SAM302      0.0000 
     39 H          32.7804   -6.6133   14.7627 H         1 SAM302      0.0000 
     40 H          36.2676   -2.1185   12.6590 H         1 SAM302      0.0000 
     41 H          35.5820   -2.7382   14.1989 H         1 SAM302      0.0000 
     42 H          32.8064   -2.5609    9.7203 H         1 SAM302      0.0000 
     43 H          25.0053   -5.2924   12.0019 H         1 SAM302      0.0000 
     44 H          23.4046   -5.1379   12.0214 H         1 SAM302      0.0000 
     45 H          24.2049   -5.3895   13.3934 H         1 SAM302      0.0000 
     46 H          27.1077   -9.9590   16.7421 H         1 SAM302      0.0000 
     47 H          26.8289   -8.3835   16.9043 H         1 SAM302      0.0000 
     48 H          25.6141   -9.3857   16.5787 H         1 SAM302      0.0000 
     49 H          28.7320   -9.0368   10.5822 H         1 SAM302      0.0000 
     50 H          31.2853   -8.6123   10.5236 H         1 SAM302      0.0000 
@<TRIPOS>BOND
     1    2    1 1    
     2   43    1 1    
     3   44    1 1    
     4   45    1 1    
     5    3    2 1    
     6    6    2 1    
     7   28    2 1    
     8    4    3 ar   
     9    5    3 ar   
    10    7    6 1    
    11   29    6 1    
    12   30    6 1    
    13    8    7 1    
    14   31    7 1    
    15   32    7 1    
    16    9    8 1    
    17   10    8 1    
    18   46    9 1    
    19   47    9 1    
    20   48    9 1    
    21   11   10 1    
    22   33   10 1    
    23   34   10 1    
    24   12   11 1    
    25   13   11 1    
    26   35   11 1    
    27   17   12 1    
    28   14   13 1    
    29   15   13 1    
    30   36   13 1    
    31   49   14 1    
    32   16   15 1    
    33   17   15 1    
    34   37   15 1    
    35   50   16 1    
    36   18   17 1    
    37   38   17 1    
    38   19   18 1    
    39   27   18 1    
    40   20   19 2    
    41   39   19 1    
    42   21   20 1    
    43   22   21 ar   
    44   27   21 ar   
    45   23   22 1    
    46   24   22 ar   
    47   40   23 1    
    48   41   23 1    
    49   25   24 ar   
    50   26   25 ar   
    51   42   25 1    
    52   27   26 ar   
@<TRIPOS>SUBSTRUCTURE
     1 SAM302      1 GROUP   
@<TRIPOS>SET

