#    Name: 2ghm_LIC_1_INTS_M
#    Modification time : Tue Mar 25 14:28:12 2014

@<TRIPOS>MOLECULE
2ghm_LIC_1_INTS_M
   73     0     9     0     0
SMALL
NO_CHARGES


@<TRIPOS>ATOM
      1 CA          0.5340   -2.1510   21.6830 C.3       3 GLC5        0.0000 
      2 CA          1.9490   -3.2700   22.6430 C.3       9 GLL5        0.0000 
      3 CA         -0.8810   -1.0320   20.7230 C.3       6 GLP5        0.0000 
      4 CA          6.8960   -1.2935   15.3810 C.3       3 GLC5        0.0000 
      5 CA          5.3000   -0.6520   16.7390 C.3       9 GLL5        0.0000 
      6 CA          8.4920   -1.9350   14.0230 C.3       6 GLP5        0.0000 
      7 CA          6.1355    1.0705   20.1070 C.3       3 GLC5        0.0000 
      8 CA          5.4630   -0.5120   19.1180 C.3       9 GLL5        0.0000 
      9 CA          6.8080    2.6530   21.0960 C.3       6 GLP5        0.0000 
     10 CA          2.3065    0.1630   15.9420 C.3       3 GLC5        0.0000 
     11 CA          3.9440   -0.9670   16.8260 C.3       9 GLL5        0.0000 
     12 CA          0.6690    1.2930   15.0580 C.3       6 GLP5        0.0000 
     13 CA          5.6415   -2.6195   24.0905 C.3       3 GLC5        0.0000 
     14 CA          3.8120   -2.7800   25.0720 C.3       9 GLL5        0.0000 
     15 CA          7.4710   -2.4590   23.1090 C.3       6 GLP5        0.0000 
     16 CA          6.6570   -6.7245   23.3440 C.3       3 GLC5        0.0000 
     17 CA          4.6380   -6.4780   23.6390 C.3       9 GLL5        0.0000 
     18 CA          8.6760   -6.9710   23.0490 C.3       6 GLP5        0.0000 
     19 CA          4.8320   -3.7360   22.4590 C.3       3 GLC5        0.0000 
     20 CA          2.8960   -4.3930   22.9970 C.3       9 GLL5        0.0000 
     21 CA          6.7680   -3.0790   21.9210 C.3       6 GLP5        0.0000 
     22 CA          4.9510   -1.0130   13.1815 C.3       3 GLC5        0.0000 
     23 CA          5.3500    0.2910   14.5560 C.3       9 GLL5        0.0000 
     24 CA          4.5520   -2.3170   11.8070 C.3       6 GLP5        0.0000 
     25 CA          6.2980    0.5830   12.9900 C.3       3 GLC5        0.0000 
     26 CA          7.2460    0.8750   11.4240 C.3       6 GLP5        0.0000 
     27 CA          6.9210   -0.8220   14.2895 C.3       3 GLC5        0.0000 
     28 CA          5.2185    1.9805   15.2465 C.3       3 GLC5        0.0000 
     29 CA          5.0870    3.6700   15.9370 C.3       6 GLP5        0.0000 
     30 CA          1.2315   -0.3060   20.8995 C.3       3 GLC5        0.0000 
     31 CA          3.3440    0.4200   21.0760 C.3       9 GLL5        0.0000 
     32 CA          4.1140    4.6305   21.4245 C.3       3 GLC5        0.0000 
     33 CA          3.1710    2.7940   20.8300 C.3       9 GLL5        0.0000 
     34 CA          5.0570    6.4670   22.0190 C.3       6 GLP5        0.0000 
     35 CA          1.7855    4.2490   20.9660 C.3       3 GLC5        0.0000 
     36 CA          0.4000    5.7040   21.1020 C.3       6 GLP5        0.0000 
     37 N           2.8280    4.4570   22.4705 N.am      2 SEC2        0.0000 
     38 N           2.8920    2.8790   22.1300 N.am      8 SEL2        0.0000 
     39 N           2.7640    6.0350   22.8110 N.am      5 SEP2        0.0000 
     40 CA          4.8085    2.2240   22.0045 C.3       3 GLC5        0.0000 
     41 CA          2.8090    1.7950   22.9130 C.3       9 GLL5        0.0000 
     42 CA          4.3455    3.1455   23.6070 C.3       3 GLC5        0.0000 
     43 CA          5.8820    4.4960   24.3010 C.3       6 GLP5        0.0000 
     44 CA          1.6010    3.6695   22.7730 C.3       3 GLC5        0.0000 
     45 CA          0.3930    5.5440   22.6330 C.3       6 GLP5        0.0000 
     46 O           2.3065    3.5070   24.7055 O.2       1 ALC1        0.0000 
     47 O           2.4780    1.9980   24.2040 O.2       7 ALL1        0.0000 
     48 O           2.1350    5.0160   25.2070 O.2       4 ALP1        0.0000 
     49 CA          4.5445    0.9585   27.2690 C.3       3 GLC5        0.0000 
     50 CA          3.0840    1.2850   26.4320 C.3       9 GLL5        0.0000 
     51 CA          6.0050    0.6320   28.1060 C.3       6 GLP5        0.0000 
     52 CA         -0.3110   -0.5200   22.3800 C.3       3 GLC5        0.0000 
     53 CA          0.2590   -0.0080   24.0370 C.3       9 GLL5        0.0000 
     54 CA          5.4170   -7.0015   25.3325 C.3       3 GLC5        0.0000 
     55 CA          4.6480   -5.3020   24.3830 C.3       9 GLL5        0.0000 
     56 CA          6.1910   -8.1130   26.6540 C.3       6 GLP5        0.0000 
     57 CA          5.7777   -1.8715   20.5398 C.3       3 GLC5        0.0000 
     58 CA          6.7796   -1.9636   18.3461 C.3       3 GLC5        0.0000 
     59 CA          7.9880   -3.4080   18.4800 C.3       6 GLP5        0.0000 
     60 CA          4.4102   -2.9790   17.3015 C.3       3 GLC5        0.0000 
     61 CA          3.3290   -1.0490   18.0740 C.3       9 GLL5        0.0000 
     62 CA          5.1840   -4.9500   17.1530 C.3       6 GLP5        0.0000 
     63 CA          4.1900   -8.5010   23.7855 C.3       3 GLC5        0.0000 
     64 CA          3.7780   -6.5900   22.5550 C.3       9 GLL5        0.0000 
     65 CA          4.1720  -10.4680   24.4740 C.3       6 GLP5        0.0000 
     66 CA          5.5959   -4.3550   22.9266 C.3       3 GLC5        0.0000 
     67 CA          2.0720    2.5000   19.3125 C.3       3 GLC5        0.0000 
     68 CA          3.3930    1.5440   20.2660 C.3       9 GLL5        0.0000 
     69 CA          0.8620    2.8310   18.0770 C.3       6 GLP5        0.0000 
     70 CA          3.9710    2.6315   18.8945 C.3       3 GLC5        0.0000 
     71 CA          4.6600    3.0940   17.2410 C.3       6 GLP5        0.0000 
     72 CA          5.0389    2.2705   20.9232 C.3       3 GLC5        0.0000 
     73 CA          4.6797    1.1816   17.6066 C.3       3 GLC5        0.0000 
@<TRIPOS>BOND
@<TRIPOS>SUBSTRUCTURE
     1 ALC1       46 GROUP        1 X    ALC  0     ROOT ALC X 1
     2 SEC2       37 GROUP        1 X    SEC  0     **** SEC X 2
     3 GLC5        1 GROUP        1 X    GLC  0     **** GLC X 6
     4 ALP1       48 GROUP        1 Y    ALP  0     ROOT ALP Y 8
     5 SEP2       39 GROUP        1 Y    SEP  0     **** SEP Y 9
     6 GLP5        3 GROUP        1 Y    GLP  0     **** GLP Y 13
     7 ALL1       47 GROUP        1 Z    ALL  0     ROOT ALL Z 15
     8 SEL2       38 GROUP        1 Z    SEL  0     **** SEL Z 16
     9 GLL5        2 GROUP        1 Z    GLL  0     **** GLL Z 20
@<TRIPOS>SET

