#    Name: 2ghm_LIC_1_ligand
#    Modification time : Tue Mar 25 14:28:12 2014

@<TRIPOS>MOLECULE
2ghm_LIC_1_ligand
   61    63     1     0     0
SMALL
NO_CHARGES


@<TRIPOS>ATOM
      1 N1          3.5510   -0.8320   20.4750 N.am      1 LIC353      0.0000 
      2 C7          1.9490   -3.2700   22.6430 C.3       1 LIC353      0.0000 
      3 C13         2.9090   -5.5540   22.2310 C.ar      1 LIC353      0.0000 
      4 C15         4.6480   -5.3020   24.3830 C.ar      1 LIC353      0.0000 
      5 C21         5.3000   -0.6520   16.7390 C.ar      1 LIC353      0.0000 
      6 C22         5.4630   -0.5120   19.1180 C.ar      1 LIC353      0.0000 
      7 C24         3.9440   -0.9670   16.8260 C.ar      1 LIC353      0.0000 
      8 CL16        3.8120   -2.7800   25.0720 Cl        1 LIC353      0.0000 
      9 C12         3.7710   -4.2660   24.0680 C.ar      1 LIC353      0.0000 
     10 C11         4.6380   -6.4780   23.6390 C.ar      1 LIC353      0.0000 
     11 C14         3.7780   -6.5900   22.5550 C.ar      1 LIC353      0.0000 
     12 C9          2.8960   -4.3930   22.9970 C.ar      1 LIC353      0.0000 
     13 N5          2.7480   -2.1330   22.2110 N.am      1 LIC353      0.0000 
     14 C1          3.1910   -2.0050   20.9720 C.2       1 LIC353      0.0000 
     15 O4          3.3020   -2.9660   20.2370 O.2       1 LIC353      0.0000 
     16 C2          4.1120   -0.8160   19.1990 C.ar      1 LIC353      0.0000 
     17 C25         6.0590   -0.4010   17.8740 C.ar      1 LIC353      0.0000 
     18 O30         5.9560   -0.5410   15.5440 O.3       1 LIC353      0.0000 
     19 C31         5.3500    0.2910   14.5560 C.3       1 LIC353      0.0000 
     20 C23         3.3290   -1.0490   18.0740 C.ar      1 LIC353      0.0000 
     21 C3          3.3440    0.4200   21.0760 C.ar      1 LIC353      0.0000 
     22 C35         3.3930    1.5440   20.2660 C.ar      1 LIC353      0.0000 
     23 C37         3.1710    2.7940   20.8300 C.ar      1 LIC353      0.0000 
     24 N39         2.8920    2.8790   22.1300 N.ar      1 LIC353      0.0000 
     25 C41         2.8090    1.7950   22.9130 C.ar      1 LIC353      0.0000 
     26 N42         3.0430    0.5790   22.3840 N.ar      1 LIC353      0.0000 
     27 N36         2.4780    1.9980   24.2040 N.pl3     1 LIC353      0.0000 
     28 C43         2.4150    0.8710   25.1240 C.3       1 LIC353      0.0000 
     29 C45         3.0840    1.2850   26.4320 C.3       1 LIC353      0.0000 
     30 C47         0.9810    0.3870   25.3180 C.3       1 LIC353      0.0000 
     31 C53         0.9320   -0.7730   26.2990 C.3       1 LIC353      0.0000 
     32 O52         0.2170    1.4590   25.8600 O.3       1 LIC353      0.0000 
     33 C51         0.2590   -0.0080   24.0370 C.3       1 LIC353      0.0000 
     34 H           1.3579   -3.0210   23.5201 H         1 LIC353      0.0000 
     35 H           1.2880   -3.6067   21.8491 H         1 LIC353      0.0000 
     36 H           2.2765   -5.6458   21.4259 H         1 LIC353      0.0000 
     37 H           5.3046   -5.1964   25.1682 H         1 LIC353      0.0000 
     38 H           6.0129   -0.3713   19.9717 H         1 LIC353      0.0000 
     39 H           3.4006   -1.1380   15.9724 H         1 LIC353      0.0000 
     40 H           5.2594   -7.2522   23.8899 H         1 LIC353      0.0000 
     41 H           3.7830   -7.4503   21.9834 H         1 LIC353      0.0000 
     42 H           2.9497   -1.4189   22.9517 H         1 LIC353      0.0000 
     43 H           7.0439   -0.1381   17.7899 H         1 LIC353      0.0000 
     44 H           2.3448   -1.2709   18.1569 H         1 LIC353      0.0000 
     45 H           3.5899    1.4555   19.2660 H         1 LIC353      0.0000 
     46 H           3.2274    3.6307   20.2274 H         1 LIC353      0.0000 
     47 H           2.2626    2.9253   24.5843 H         1 LIC353      0.0000 
     48 H           3.0009    0.0404   24.7093 H         1 LIC353      0.0000 
     49 H           5.2510    1.2338   14.8743 H         1 LIC353      0.0000 
     50 H           5.8890    0.3209   13.7142 H         1 LIC353      0.0000 
     51 H           4.4367   -0.0320   14.3079 H         1 LIC353      0.0000 
     52 H           4.0417    1.5381   26.2954 H         1 LIC353      0.0000 
     53 H           2.6294    2.0721   26.8488 H         1 LIC353      0.0000 
     54 H           3.0692    0.5469   27.1066 H         1 LIC353      0.0000 
     55 H           1.4742   -1.5510   25.9816 H         1 LIC353      0.0000 
     56 H           1.2875   -0.5150   27.1973 H         1 LIC353      0.0000 
     57 H          -0.0017   -1.1034   26.4372 H         1 LIC353      0.0000 
     58 H           0.1970    0.7561   23.3949 H         1 LIC353      0.0000 
     59 H           0.7269   -0.7531   23.5616 H         1 LIC353      0.0000 
     60 H          -0.6752   -0.3161   24.2171 H         1 LIC353      0.0000 
     61 H           0.7944    2.0364   26.4374 H         1 LIC353      0.0000 
@<TRIPOS>BOND
     1   14    1 am   
     2   16    1 1    
     3   21    1 1    
     4   12    2 1    
     5   13    2 1    
     6   34    2 1    
     7   35    2 1    
     8   11    3 ar   
     9   12    3 ar   
    10   36    3 1    
    11    9    4 ar   
    12   10    4 ar   
    13   37    4 1    
    14    7    5 ar   
    15   17    5 ar   
    16   18    5 1    
    17   16    6 ar   
    18   17    6 ar   
    19   38    6 1    
    20   20    7 ar   
    21   39    7 1    
    22    9    8 1    
    23   12    9 ar   
    24   11   10 ar   
    25   40   10 1    
    26   41   11 1    
    27   14   13 am   
    28   42   13 1    
    29   15   14 2    
    30   20   16 ar   
    31   43   17 1    
    32   19   18 1    
    33   49   19 1    
    34   50   19 1    
    35   51   19 1    
    36   44   20 1    
    37   22   21 ar   
    38   26   21 ar   
    39   23   22 ar   
    40   45   22 1    
    41   24   23 ar   
    42   46   23 1    
    43   25   24 ar   
    44   26   25 ar   
    45   27   25 1    
    46   28   27 1    
    47   47   27 1    
    48   29   28 1    
    49   30   28 1    
    50   48   28 1    
    51   52   29 1    
    52   53   29 1    
    53   54   29 1    
    54   31   30 1    
    55   32   30 1    
    56   33   30 1    
    57   55   31 1    
    58   56   31 1    
    59   57   31 1    
    60   61   32 1    
    61   58   33 1    
    62   59   33 1    
    63   60   33 1    
@<TRIPOS>SUBSTRUCTURE
     1 LIC353      1 GROUP   
@<TRIPOS>SET

