#    Name: 2gpv_OHT_1_INTS_M
#    Modification time : Tue Mar 25 14:53:20 2014

@<TRIPOS>MOLECULE
2gpv_OHT_1_INTS_M
  103     0    12     0     0
SMALL
NO_CHARGES


@<TRIPOS>ATOM
      1 CA         37.4310    1.6355   55.3300 C.3       4 GLC5        0.0000 
      2 CA         35.3600    0.9870   55.1960 C.3      12 GLL5        0.0000 
      3 CA         39.5020    2.2840   55.4640 C.3       8 GLP5        0.0000 
      4 CA         34.1780    0.0165   55.9385 C.3       4 GLC5        0.0000 
      5 CA         32.9960   -0.9540   56.6810 C.3       8 GLP5        0.0000 
      6 CA         36.5930   -0.3745   54.7045 C.3       4 GLC5        0.0000 
      7 CA         37.8260   -1.7360   54.2130 C.3       8 GLP5        0.0000 
      8 CA         37.5055    2.7635   54.7105 C.3       4 GLC5        0.0000 
      9 CA         35.7810    2.4260   55.0170 C.3      12 GLL5        0.0000 
     10 CA         39.2300    3.1010   54.4040 C.3       8 GLP5        0.0000 
     11 CA         34.9670    4.3090   57.3585 C.3       4 GLC5        0.0000 
     12 CA         33.2550    3.3010   56.6950 C.3      12 GLL5        0.0000 
     13 CA         36.6790    5.3170   58.0220 C.3       8 GLP5        0.0000 
     14 CA         34.3295    2.7735   58.2670 C.3       4 GLC5        0.0000 
     15 CA         35.4040    2.2460   59.8390 C.3       8 GLP5        0.0000 
     16 CA         30.9005    0.0840   54.3535 C.3       4 GLC5        0.0000 
     17 CA         31.1610    2.0580   55.3770 C.3      12 GLL5        0.0000 
     18 CA         30.6400   -1.8900   53.3300 C.3       8 GLP5        0.0000 
     19 CA         31.6180    2.2645   52.7400 C.3       4 GLC5        0.0000 
     20 CA         32.3340    2.3500   54.7190 C.3      12 GLL5        0.0000 
     21 CA         30.9020    2.1790   50.7610 C.3       8 GLP5        0.0000 
     22 CA         32.0395    0.5290   53.5760 C.3       4 GLC5        0.0000 
     23 CA         31.7450   -1.2920   52.4330 C.3       8 GLP5        0.0000 
     24 CA         35.1610    5.6880   55.1460 C.3       4 GLC5        0.0000 
     25 CA         34.6330    4.2180   53.6550 C.3      12 GLL5        0.0000 
     26 CA         35.6890    7.1580   56.6370 C.3       8 GLP5        0.0000 
     27 CA         34.9295    7.0840   51.9090 C.3       4 GLC5        0.0000 
     28 CA         36.1550    5.8900   52.7560 C.3      12 GLL5        0.0000 
     29 CA         33.7040    8.2780   51.0620 C.3       8 GLP5        0.0000 
     30 CA         38.1450    8.0685   52.1415 C.3       4 GLC5        0.0000 
     31 CA         37.2230    6.2600   51.9820 C.3      12 GLL5        0.0000 
     32 CA         39.0670    9.8770   52.3010 C.3       8 GLP5        0.0000 
     33 CA         36.0170    7.7025   51.2320 C.3       4 GLC5        0.0000 
     34 CA         34.8110    9.1450   50.4820 C.3       8 GLP5        0.0000 
     35 N          40.6390    5.4415   50.3680 N.am      2 SEC2        0.0000 
     36 N          38.9830    5.6560   50.4940 N.am     10 SEL2        0.0000 
     37 N          42.2950    5.2270   50.2420 N.am      6 SEP2        0.0000 
     38 O          39.2340    7.0330   50.1105 O.2       1 ALC1        0.0000 
     39 O          38.9830    5.6560   50.4940 O.2       9 ALL1        0.0000 
     40 O          39.4850    8.4100   49.7270 O.2       5 ALP1        0.0000 
     41 CA         39.0115    2.5160   51.2170 C.3       4 GLC5        0.0000 
     42 CA         37.5370    3.9730   51.3410 C.3      12 GLL5        0.0000 
     43 CA         40.4860    1.0590   51.0930 C.3       8 GLP5        0.0000 
     44 CA         31.7635    7.9460   51.2725 C.3       4 GLC5        0.0000 
     45 CA         29.8230    7.6140   51.4830 C.3      12 GLL5        0.0000 
     46 CA         29.8605    6.3150   49.9345 C.3       4 GLC5        0.0000 
     47 CA         29.8980    5.0160   48.3860 C.3       8 GLP5        0.0000 
     48 CA         28.7940    7.1605   53.2185 C.3       4 GLC5        0.0000 
     49 CA         27.7650    6.7070   54.9540 C.3       8 GLP5        0.0000 
     50 CA         27.5275    7.7165   52.9815 C.3       4 GLC5        0.0000 
     51 CA         28.5170    8.3570   51.5600 C.3      12 GLL5        0.0000 
     52 CA         26.5380    7.0760   54.4030 C.3       8 GLP5        0.0000 
     53 OD1        29.6830   10.3670   50.6705 O.co2     3 ASC3        0.0000 
     54 OD1        28.6540    9.5590   50.7310 O.co2    11 ASL3        0.0000 
     55 OD1        30.7120   11.1750   50.6100 O.co2     7 ASP3        0.0000 
     56 OD1        29.4670   11.2945   51.2130 O.co2     3 ASC3        0.0000 
     57 OD1        30.2800   13.0300   51.6950 O.co2     7 ASP3        0.0000 
     58 O          29.6830   10.3670   50.6705 O.2       1 ALC1        0.0000 
     59 O          28.6540    9.5590   50.7310 O.2       9 ALL1        0.0000 
     60 O          30.7120   11.1750   50.6100 O.2       5 ALP1        0.0000 
     61 CA         27.9145   11.4780   49.0435 C.3       4 GLC5        0.0000 
     62 CA         27.4340   10.3900   50.8560 C.3      12 GLL5        0.0000 
     63 CA         28.3950   12.5660   47.2310 C.3       8 GLP5        0.0000 
     64 CA         29.7810    9.0985   47.8765 C.3       4 GLC5        0.0000 
     65 CA         28.9340    9.1620   49.3260 C.3      12 GLL5        0.0000 
     66 CA         30.6280    9.0350   46.4270 C.3       8 GLP5        0.0000 
     67 CA         29.4160    7.0890   48.8560 C.3       4 GLC5        0.0000 
     68 CA         28.6645   10.8640   48.2785 C.3       4 GLC5        0.0000 
     69 CA         34.2720    6.4265   55.5115 C.3       4 GLC5        0.0000 
     70 CA         32.8550    5.6950   54.3860 C.3      12 GLL5        0.0000 
     71 CA         35.9393    4.0810   56.4180 C.3       4 GLC5        0.0000 
     72 CA         34.6180    3.2640   54.6110 C.3      12 GLL5        0.0000 
     73 CA         33.1585    1.0920   56.3545 C.3       4 GLC5        0.0000 
     74 CA         32.2425    4.0060   58.8257 C.3       4 GLC5        0.0000 
     75 CA         31.8190    4.8570   60.6240 C.3       8 GLP5        0.0000 
     76 CA         32.4262    1.8357   58.6460 C.3       4 GLC5        0.0000 
     77 CA         32.0770    3.0090   57.3600 C.3      12 GLL5        0.0000 
     78 CA         33.2980    0.9720   60.2600 C.3       8 GLP5        0.0000 
     79 CA         32.2752    0.8727   56.8565 C.3       4 GLC5        0.0000 
     80 CA         30.7087    1.4053   58.2235 C.3       4 GLC5        0.0000 
     81 CA         31.0320    2.3900   56.7040 C.3      12 GLL5        0.0000 
     82 CA         29.8630    0.1110   59.4150 C.3       8 GLP5        0.0000 
     83 CA         29.3253    2.5820   55.4363 C.3       4 GLC5        0.0000 
     84 CA         27.5540    2.9400   54.8320 C.3       8 GLP5        0.0000 
     85 CA         32.3718    0.6250   55.8645 C.3       4 GLC5        0.0000 
     86 CA         37.3106    6.0949   54.3067 C.3       4 GLC5        0.0000 
     87 CA         35.7840    4.5650   52.8340 C.3      12 GLL5        0.0000 
     88 CA         38.0250    6.4460   56.2250 C.3       8 GLP5        0.0000 
     89 CA         36.9818    6.0180   49.6940 C.3       4 GLC5        0.0000 
     90 CA         36.3990    6.2590   47.7570 C.3       8 GLP5        0.0000 
     91 CA         36.4533    3.7895   49.7335 C.3       4 GLC5        0.0000 
     92 CA         35.9050    3.7890   47.7370 C.3       8 GLP5        0.0000 
     93 CA         33.4123    6.5825   51.9172 C.3       4 GLC5        0.0000 
     94 CA         32.8300    4.8420   52.1510 C.3      12 GLL5        0.0000 
     95 CA         31.5740    3.6785   51.3905 C.3       4 GLC5        0.0000 
     96 CA         33.1750    5.3100   50.1625 C.3       4 GLC5        0.0000 
     97 CA         34.1040    5.4420   48.3050 C.3       8 GLP5        0.0000 
     98 CA         32.5427    7.0875   51.7248 C.3       4 GLC5        0.0000 
     99 CA         31.6620    5.5140   51.8890 C.3      12 GLL5        0.0000 
    100 CA         32.4292    8.0130   54.6213 C.3       4 GLC5        0.0000 
    101 CA         31.6920    6.3670   54.1250 C.3      12 GLL5        0.0000 
    102 CA         32.5850    9.9950   54.9870 C.3       8 GLP5        0.0000 
    103 CA         32.9887    7.1545   52.6587 C.3       4 GLC5        0.0000 
@<TRIPOS>BOND
@<TRIPOS>SUBSTRUCTURE
     1 ALC1       38 GROUP        1 X    ALC  0     ROOT ALC X 1
     2 SEC2       35 GROUP        1 X    SEC  0     **** SEC X 2
     3 ASC3       53 GROUP        1 X    ASC  0     **** ASC X 3
     4 GLC5        1 GROUP        1 X    GLC  0     **** GLC X 6
     5 ALP1       40 GROUP        1 Y    ALP  0     ROOT ALP Y 8
     6 SEP2       37 GROUP        1 Y    SEP  0     **** SEP Y 9
     7 ASP3       55 GROUP        1 Y    ASP  0     **** ASP Y 10
     8 GLP5        3 GROUP        1 Y    GLP  0     **** GLP Y 13
     9 ALL1       39 GROUP        1 Z    ALL  0     ROOT ALL Z 15
    10 SEL2       36 GROUP        1 Z    SEL  0     **** SEL Z 16
    11 ASL3       54 GROUP        1 Z    ASL  0     **** ASL Z 17
    12 GLL5        2 GROUP        1 Z    GLL  0     **** GLL Z 20
@<TRIPOS>SET

