#    Name: 2gpv_OHT_1_ligand
#    Modification time : Tue Mar 25 14:53:20 2014

@<TRIPOS>MOLECULE
2gpv_OHT_1_ligand
   59    61     1     0     0
SMALL
NO_CHARGES


@<TRIPOS>ATOM
      1 C10        35.3600    0.9870   55.1960 C.3       1 OHT500      0.0000 
      2 C9         35.7810    2.4260   55.0170 C.3       1 OHT500      0.0000 
      3 C8         34.6180    3.2640   54.6110 C.2       1 OHT500      0.0000 
      4 C11        33.3870    2.9750   55.3610 C.ar      1 OHT500      0.0000 
      5 C16        33.2550    3.3010   56.6950 C.ar      1 OHT500      0.0000 
      6 C15        32.0770    3.0090   57.3600 C.ar      1 OHT500      0.0000 
      7 C14        31.0320    2.3900   56.7040 C.ar      1 OHT500      0.0000 
      8 C13        31.1610    2.0580   55.3770 C.ar      1 OHT500      0.0000 
      9 C12        32.3340    2.3500   54.7190 C.ar      1 OHT500      0.0000 
     10 C7         34.6330    4.2180   53.6550 C.2       1 OHT500      0.0000 
     11 C1         35.7840    4.5650   52.8340 C.ar      1 OHT500      0.0000 
     12 C2         36.1550    5.8900   52.7560 C.ar      1 OHT500      0.0000 
     13 C3         37.2230    6.2600   51.9820 C.ar      1 OHT500      0.0000 
     14 C4         37.9060    5.2940   51.2800 C.ar      1 OHT500      0.0000 
     15 O4         38.9830    5.6560   50.4940 O.3       1 OHT500      0.0000 
     16 C5         37.5370    3.9730   51.3410 C.ar      1 OHT500      0.0000 
     17 C6         36.4660    3.6070   52.1190 C.ar      1 OHT500      0.0000 
     18 C17        33.4110    4.9320   53.3940 C.ar      1 OHT500      0.0000 
     19 C18        32.8300    4.8420   52.1510 C.ar      1 OHT500      0.0000 
     20 C19        31.6620    5.5140   51.8890 C.ar      1 OHT500      0.0000 
     21 C20        31.1010    6.2800   52.8860 C.ar      1 OHT500      0.0000 
     22 O20        29.9190    6.9930   52.7460 O.3       1 OHT500      0.0000 
     23 C23        29.8230    7.6140   51.4830 C.3       1 OHT500      0.0000 
     24 C24        28.5170    8.3570   51.5600 C.3       1 OHT500      0.0000 
     25 N24        28.6540    9.5590   50.7310 N.4       1 OHT500      0.0000 
     26 C25        27.4340   10.3900   50.8560 C.3       1 OHT500      0.0000 
     27 C26        28.9340    9.1620   49.3260 C.3       1 OHT500      0.0000 
     28 C21        31.6920    6.3670   54.1250 C.ar      1 OHT500      0.0000 
     29 C22        32.8550    5.6950   54.3860 C.ar      1 OHT500      0.0000 
     30 H          36.5624    2.4782   54.2535 H         1 OHT500      0.0000 
     31 H          36.1972    2.7970   55.9579 H         1 OHT500      0.0000 
     32 H          34.0288    3.7598   57.1956 H         1 OHT500      0.0000 
     33 H          31.9799    3.2583   58.3609 H         1 OHT500      0.0000 
     34 H          30.1591    2.1788   57.2105 H         1 OHT500      0.0000 
     35 H          30.3885    1.5953   54.8788 H         1 OHT500      0.0000 
     36 H          32.4335    2.0950   53.7129 H         1 OHT500      0.0000 
     37 H          35.6238    6.6035   53.2842 H         1 OHT500      0.0000 
     38 H          37.5120    7.2446   51.9248 H         1 OHT500      0.0000 
     39 H          38.0586    3.2625   50.8081 H         1 OHT500      0.0000 
     40 H          36.1732    2.6193   52.1680 H         1 OHT500      0.0000 
     41 H          33.2736    4.2680   51.4144 H         1 OHT500      0.0000 
     42 H          31.2146    5.4480   50.9693 H         1 OHT500      0.0000 
     43 H          29.7661    6.9028   50.6783 H         1 OHT500      0.0000 
     44 H          30.6123    8.3244   51.3130 H         1 OHT500      0.0000 
     45 H          28.3187    8.6228   52.5911 H         1 OHT500      0.0000 
     46 H          27.7233    7.7218   51.1863 H         1 OHT500      0.0000 
     47 H          29.5093   10.1362   51.1039 H         1 OHT500      0.0000 
     48 H          31.2509    6.9463   54.8637 H         1 OHT500      0.0000 
     49 H          33.3026    5.7612   55.3077 H         1 OHT500      0.0000 
     50 H          36.1268    0.4072   55.4716 H         1 OHT500      0.0000 
     51 H          34.6534    0.8912   55.8971 H         1 OHT500      0.0000 
     52 H          34.9892    0.6007   54.3514 H         1 OHT500      0.0000 
     53 H          27.2737   10.6746   51.8012 H         1 OHT500      0.0000 
     54 H          27.4937   11.2226   50.3053 H         1 OHT500      0.0000 
     55 H          26.6170    9.8978   50.5555 H         1 OHT500      0.0000 
     56 H          29.0313    9.9573   48.7277 H         1 OHT500      0.0000 
     57 H          29.7796    8.6335   49.2509 H         1 OHT500      0.0000 
     58 H          28.2009    8.5976   48.9464 H         1 OHT500      0.0000 
     59 H          38.9036    6.6471   50.3869 H         1 OHT500      0.0000 
@<TRIPOS>BOND
     1    2    1 1    
     2   50    1 1    
     3   51    1 1    
     4   52    1 1    
     5    3    2 1    
     6   30    2 1    
     7   31    2 1    
     8    4    3 1    
     9   10    3 2    
    10    5    4 ar   
    11    9    4 ar   
    12    6    5 ar   
    13   32    5 1    
    14    7    6 ar   
    15   33    6 1    
    16    8    7 ar   
    17   34    7 1    
    18    9    8 ar   
    19   35    8 1    
    20   36    9 1    
    21   11   10 1    
    22   18   10 1    
    23   12   11 ar   
    24   17   11 ar   
    25   13   12 ar   
    26   37   12 1    
    27   14   13 ar   
    28   38   13 1    
    29   15   14 1    
    30   16   14 ar   
    31   59   15 1    
    32   17   16 ar   
    33   39   16 1    
    34   40   17 1    
    35   19   18 ar   
    36   29   18 ar   
    37   20   19 ar   
    38   41   19 1    
    39   21   20 ar   
    40   42   20 1    
    41   22   21 1    
    42   28   21 ar   
    43   23   22 1    
    44   24   23 1    
    45   43   23 1    
    46   44   23 1    
    47   25   24 1    
    48   45   24 1    
    49   46   24 1    
    50   26   25 1    
    51   27   25 1    
    52   47   25 1    
    53   53   26 1    
    54   54   26 1    
    55   55   26 1    
    56   56   27 1    
    57   57   27 1    
    58   58   27 1    
    59   29   28 ar   
    60   48   28 1    
    61   49   29 1    
@<TRIPOS>SUBSTRUCTURE
     1 OHT500      1 GROUP   
@<TRIPOS>SET

