#    Name: 3nux_3NV_1_INTS_M
#    Modification time : Tue Mar 25 02:41:08 2014

@<TRIPOS>MOLECULE
3nux_3NV_1_INTS_M
   53     0     9     0     0
SMALL
NO_CHARGES


@<TRIPOS>ATOM
      1 CA         16.3785   22.7260    6.0195 C.3       3 GLC5        0.0000 
      2 CA         16.1400   23.6480    4.1730 C.3       9 GLL5        0.0000 
      3 CA         16.6170   21.8040    7.8660 C.3       6 GLP5        0.0000 
      4 CA         16.9280   22.3290    3.5775 C.3       3 GLC5        0.0000 
      5 CA         17.7160   21.0100    2.9820 C.3       6 GLP5        0.0000 
      6 O          17.6950   27.0125   11.4465 O.2       1 ALC1        0.0000 
      7 O          16.6830   26.9260   10.3040 O.2       7 ALL1        0.0000 
      8 O          18.7070   27.0990   12.5890 O.2       4 ALP1        0.0000 
      9 CA         15.1330   31.3805   10.2865 C.3       3 GLC5        0.0000 
     10 CA         14.0010   29.4760   10.5580 C.3       9 GLL5        0.0000 
     11 CA         16.2650   33.2850   10.0150 C.3       6 GLP5        0.0000 
     12 N          19.2415   25.4880   10.2175 N.am      2 SEC2        0.0000 
     13 N          18.1600   25.6600    9.1310 N.am      8 SEL2        0.0000 
     14 N          20.3230   25.3160   11.3040 N.am      5 SEP2        0.0000 
     15 CA         14.0195   24.3960    6.2315 C.3       3 GLC5        0.0000 
     16 CA         15.4970   25.8790    5.7620 C.3       9 GLL5        0.0000 
     17 CA         12.5420   22.9130    6.7010 C.3       6 GLP5        0.0000 
     18 CA         15.3390   30.9690    5.1615 C.3       3 GLC5        0.0000 
     19 CA         14.7080   29.3950    5.7840 C.3       9 GLL5        0.0000 
     20 CA         15.9700   32.5430    4.5390 C.3       6 GLP5        0.0000 
     21 CA         16.3230   29.7025    6.9575 C.3       3 GLC5        0.0000 
     22 CA         17.9380   30.0100    8.1310 C.3       6 GLP5        0.0000 
     23 CA         19.3375   23.9855    9.3670 C.3       3 GLC5        0.0000 
     24 CA         18.5040   25.0230    7.9870 C.3       9 GLL5        0.0000 
     25 CA         20.1710   22.9480   10.7470 C.3       6 GLP5        0.0000 
     26 CA         20.2575   26.0710    8.8675 C.3       3 GLC5        0.0000 
     27 CA         22.0110   27.1190    9.7480 C.3       6 GLP5        0.0000 
     28 CA         15.4740   25.0710    9.8965 C.3       3 GLC5        0.0000 
     29 CA         17.0000   26.2910    9.1360 C.3       9 GLL5        0.0000 
     30 CA         13.9480   23.8510   10.6570 C.3       6 GLP5        0.0000 
     31 CA         18.2840   27.3125    8.2070 C.3       3 GLC5        0.0000 
     32 CA         19.5680   28.3340    7.2780 C.3       6 GLP5        0.0000 
     33 CA         14.1405   23.6378    5.5580 C.3       3 GLC5        0.0000 
     34 CA         15.3380   25.0770    4.6570 C.3       9 GLL5        0.0000 
     35 CA         14.6960   23.6662    2.7545 C.3       3 GLC5        0.0000 
     36 CA         13.6530   22.9700    1.0940 C.3       6 GLP5        0.0000 
     37 CA         12.9855   27.3313   11.0085 C.3       3 GLC5        0.0000 
     38 CA         14.0230   27.9170   12.4170 C.3       9 GLL5        0.0000 
     39 CA         12.2630   26.1790    9.9150 C.3       6 GLP5        0.0000 
     40 CA         16.6595   29.1140    9.2485 C.3       3 GLC5        0.0000 
     41 CA         15.1160   28.7760   10.0130 C.3       9 GLL5        0.0000 
     42 CA         13.6826   27.2860   10.2086 C.3       3 GLC5        0.0000 
     43 CA         15.6460   27.6600   10.7190 C.3       9 GLL5        0.0000 
     44 CA         12.7767   27.1785    8.1258 C.3       3 GLC5        0.0000 
     45 CA         14.0550   28.1160    6.3340 C.3       9 GLL5        0.0000 
     46 CA         19.8957   25.7205    6.3780 C.3       3 GLC5        0.0000 
     47 CA         17.7130   25.0430    6.8210 C.3       9 GLL5        0.0000 
     48 CA         21.6830   26.4080    5.3520 C.3       6 GLP5        0.0000 
     49 CA         17.7196   26.7659    5.1353 C.3       3 GLC5        0.0000 
     50 CA         18.5870   28.1020    3.6940 C.3       6 GLP5        0.0000 
     51 CA         17.2094   23.5074    7.6451 C.3       3 GLC5        0.0000 
     52 CA         16.4860   25.7540    6.9020 C.3       9 GLL5        0.0000 
     53 CA         18.6849   26.7724    7.3511 C.3       3 GLC5        0.0000 
@<TRIPOS>BOND
@<TRIPOS>SUBSTRUCTURE
     1 ALC1        6 GROUP        1 X    ALC  0     ROOT ALC X 1
     2 SEC2       12 GROUP        1 X    SEC  0     **** SEC X 2
     3 GLC5        1 GROUP        1 X    GLC  0     **** GLC X 6
     4 ALP1        8 GROUP        1 Y    ALP  0     ROOT ALP Y 8
     5 SEP2       14 GROUP        1 Y    SEP  0     **** SEP Y 9
     6 GLP5        3 GROUP        1 Y    GLP  0     **** GLP Y 13
     7 ALL1        7 GROUP        1 Z    ALL  0     ROOT ALL Z 15
     8 SEL2       13 GROUP        1 Z    SEL  0     **** SEL Z 16
     9 GLL5        2 GROUP        1 Z    GLL  0     **** GLL Z 20
@<TRIPOS>SET

