#    Name: 3nux_3NV_1_ligand
#    Modification time : Tue Mar 25 02:41:08 2014

@<TRIPOS>MOLECULE
3nux_3NV_1_ligand
   50    53     1     0     0
SMALL
NO_CHARGES


@<TRIPOS>ATOM
      1 C1         11.6350   30.8920   11.7220 C.3       1 3NV900      0.0000 
      2 N1         12.3040   29.7070   12.3440 N.3       1 3NV900      0.0000 
      3 CL1        16.1400   23.6480    4.1730 Cl        1 3NV900      0.0000 
      4 C2         11.3670   32.0480   12.7480 C.3       1 3NV900      0.0000 
      5 N2         10.5070   31.5580   13.8410 N.4       1 3NV900      0.0000 
      6 C3         11.2390   30.4880   14.5670 C.3       1 3NV900      0.0000 
      7 N3         15.0970   27.2410   11.8920 N.ar      1 3NV900      0.0000 
      8 C4         11.6380   29.3010   13.6230 C.3       1 3NV900      0.0000 
      9 N4         16.6830   26.9260   10.3040 N.pl3     1 3NV900      0.0000 
     10 C5         14.0230   27.9170   12.4170 C.ar      1 3NV900      0.0000 
     11 N5         14.3340   25.5600    3.8800 N.pl3     1 3NV900      0.0000 
     12 C6         13.3930   29.0500   11.7870 C.ar      1 3NV900      0.0000 
     13 N6         13.8010   26.6690    4.3980 N.2       1 3NV900      0.0000 
     14 C7         14.0010   29.4760   10.5580 C.ar      1 3NV900      0.0000 
     15 N7         18.1600   25.6600    9.1310 N.ar      1 3NV900      0.0000 
     16 C8         15.1160   28.7760   10.0130 C.ar      1 3NV900      0.0000 
     17 N8         16.1650   26.3860    8.0770 N.ar      1 3NV900      0.0000 
     18 C9         15.6460   27.6600   10.7190 C.ar      1 3NV900      0.0000 
     19 C10        15.4970   25.8790    5.7620 C.2       1 3NV900      0.0000 
     20 C11        15.3380   25.0770    4.6570 C.2       1 3NV900      0.0000 
     21 C12        14.4780   26.8960    5.5240 C.2       1 3NV900      0.0000 
     22 C13        14.0550   28.1160    6.3340 C.3       1 3NV900      0.0000 
     23 C14        14.7080   29.3950    5.7840 C.3       1 3NV900      0.0000 
     24 C15        12.5260   28.2400    6.3390 C.3       1 3NV900      0.0000 
     25 C16        16.4860   25.7540    6.9020 C.ar      1 3NV900      0.0000 
     26 C17        17.7130   25.0430    6.8210 C.ar      1 3NV900      0.0000 
     27 C18        18.5040   25.0230    7.9870 C.ar      1 3NV900      0.0000 
     28 C19        17.0000   26.2910    9.1360 C.ar      1 3NV900      0.0000 
     29 H          10.6696   30.6034   11.2887 H         1 3NV900      0.0000 
     30 H          12.2546   31.3022   10.9153 H         1 3NV900      0.0000 
     31 H          10.8920   32.8620   12.2069 H         1 3NV900      0.0000 
     32 H          12.3306   32.3819   13.1235 H         1 3NV900      0.0000 
     33 H          10.6239   30.0750   15.3731 H         1 3NV900      0.0000 
     34 H          12.1602   30.8799   15.0104 H         1 3NV900      0.0000 
     35 H          12.2996   28.6281   14.1999 H         1 3NV900      0.0000 
     36 H          10.7177   28.7266   13.4074 H         1 3NV900      0.0000 
     37 H          17.4933   26.7941   11.0995 H         1 3NV900      0.0000 
     38 H          13.6138   27.6092   13.3371 H         1 3NV900      0.0000 
     39 H          14.0436   25.1340    3.0379 H         1 3NV900      0.0000 
     40 H          13.6259   30.2920   10.0717 H         1 3NV900      0.0000 
     41 H          15.5247   29.0691    9.1359 H         1 3NV900      0.0000 
     42 H          14.3861   27.9789    7.3595 H         1 3NV900      0.0000 
     43 H          17.9940   24.5855    5.9835 H         1 3NV900      0.0000 
     44 H          19.4061   24.4775    7.9431 H         1 3NV900      0.0000 
     45 H          15.7063   29.3457    5.8161 H         1 3NV900      0.0000 
     46 H          14.4533   29.5620    4.8315 H         1 3NV900      0.0000 
     47 H          14.4376   30.2040    6.3059 H         1 3NV900      0.0000 
     48 H          12.2194   29.0332    6.8652 H         1 3NV900      0.0000 
     49 H          12.1586   28.3418    5.4145 H         1 3NV900      0.0000 
     50 H          12.0894   27.4351    6.7409 H         1 3NV900      0.0000 
@<TRIPOS>BOND
     1    2    1 1    
     2    4    1 1    
     3   29    1 1    
     4   30    1 1    
     5    8    2 1    
     6   12    2 1    
     7   20    3 1    
     8    5    4 1    
     9   31    4 1    
    10   32    4 1    
    11    6    5 1    
    12    8    6 1    
    13   33    6 1    
    14   34    6 1    
    15   10    7 ar   
    16   18    7 ar   
    17   35    8 1    
    18   36    8 1    
    19   18    9 1    
    20   28    9 1    
    21   37    9 1    
    22   12   10 ar   
    23   38   10 1    
    24   13   11 1    
    25   20   11 1    
    26   39   11 1    
    27   14   12 ar   
    28   21   13 2    
    29   16   14 ar   
    30   40   14 1    
    31   27   15 ar   
    32   28   15 ar   
    33   18   16 ar   
    34   41   16 1    
    35   25   17 ar   
    36   28   17 ar   
    37   20   19 2    
    38   21   19 1    
    39   25   19 1    
    40   22   21 1    
    41   23   22 1    
    42   24   22 1    
    43   42   22 1    
    44   45   23 1    
    45   46   23 1    
    46   47   23 1    
    47   48   24 1    
    48   49   24 1    
    49   50   24 1    
    50   26   25 ar   
    51   27   26 ar   
    52   43   26 1    
    53   44   27 1    
@<TRIPOS>SUBSTRUCTURE
     1 3NV900      1 GROUP   
@<TRIPOS>SET

