#    Name: 2yab_AMP_2_INTS_M
#    Modification time : Tue Mar 25 08:00:22 2014

@<TRIPOS>MOLECULE
2yab_AMP_2_INTS_M
   52     0    12     0     0
SMALL
NO_CHARGES


@<TRIPOS>ATOM
      1 NZ        -41.0475   -6.6420  -50.6845 N.4       3 LYC4        0.0000 
      2 NZ        -39.2770   -7.1340  -50.7330 N.4      11 LYL4        0.0000 
      3 NZ        -42.8180   -6.1500  -50.6360 N.4       7 LYP4        0.0000 
      4 NZ        -41.9195   -6.3675  -51.5920 N.4       3 LYC4        0.0000 
      5 NZ        -41.0210   -6.5850  -52.5480 N.4      11 LYL4        0.0000 
      6 N         -41.9195   -6.3675  -51.5920 N.am      2 SEC2        0.0000 
      7 N         -41.0210   -6.5850  -52.5480 N.am     10 SEL2        0.0000 
      8 N         -42.8180   -6.1500  -50.6360 N.am      6 SEP2        0.0000 
      9 CA        -37.5765  -10.6205  -51.1145 C.3       4 GLC5        0.0000 
     10 CA        -38.1330   -9.1280  -52.6230 C.3      12 GLL5        0.0000 
     11 CA        -37.0200  -12.1130  -49.6060 C.3       8 GLP5        0.0000 
     12 CA        -39.9430  -10.3870  -52.2005 C.3       4 GLC5        0.0000 
     13 CA        -41.7530  -11.6460  -51.7780 C.3       8 GLP5        0.0000 
     14 CA        -37.4855  -12.0415  -53.2915 C.3       4 GLC5        0.0000 
     15 CA        -37.8480  -10.1540  -53.6860 C.3      12 GLL5        0.0000 
     16 CA        -37.1230  -13.9290  -52.8970 C.3       8 GLP5        0.0000 
     17 CA        -38.8365   -7.8850  -55.7625 C.3       4 GLC5        0.0000 
     18 CA        -37.6710   -9.6100  -55.0940 C.3      12 GLL5        0.0000 
     19 CA        -40.0020   -6.1600  -56.4310 C.3       8 GLP5        0.0000 
     20 CA        -38.5195  -10.3090  -57.9135 C.3       4 GLC5        0.0000 
     21 CA        -38.0770  -10.7850  -55.9680 C.3      12 GLL5        0.0000 
     22 CA        -38.9620   -9.8330  -59.8590 C.3       8 GLP5        0.0000 
     23 CA        -40.4930  -12.2295  -53.7255 C.3       4 GLC5        0.0000 
     24 CA        -39.2100  -11.3890  -55.1420 C.3      12 GLL5        0.0000 
     25 CA        -41.7760  -13.0700  -52.3090 C.3       8 GLP5        0.0000 
     26 CA        -43.1600  -10.2325  -59.5485 C.3       4 GLC5        0.0000 
     27 CA        -43.4860  -10.6650  -57.5050 C.3      12 GLL5        0.0000 
     28 CA        -42.8340   -9.8000  -61.5920 C.3       8 GLP5        0.0000 
     29 O         -45.7405  -10.1565  -58.3620 O.2       1 ALC1        0.0000 
     30 O         -44.5920   -9.8890  -57.5450 O.2       9 ALL1        0.0000 
     31 O         -46.8890  -10.4240  -59.1790 O.2       5 ALP1        0.0000 
     32 N         -43.7775  -11.7155  -59.7465 N.am      2 SEC2        0.0000 
     33 N         -43.2730  -11.6810  -58.3640 N.am     10 SEL2        0.0000 
     34 N         -44.2820  -11.7500  -61.1290 N.am      6 SEP2        0.0000 
     35 CA        -42.2085  -14.2915  -57.6175 C.3       4 GLC5        0.0000 
     36 CA        -42.1630  -12.4450  -58.3280 C.3      12 GLL5        0.0000 
     37 CA        -42.2540  -16.1380  -56.9070 C.3       8 GLP5        0.0000 
     38 CA        -43.7965  -12.8625  -57.2655 C.3       4 GLC5        0.0000 
     39 CA        -45.4300  -13.2800  -56.2030 C.3       8 GLP5        0.0000 
     40 CA        -43.3985  -13.8320  -58.9720 C.3       4 GLC5        0.0000 
     41 CA        -44.6340  -15.2190  -59.6160 C.3       8 GLP5        0.0000 
     42 CA        -42.7435  -11.8150  -60.2000 C.3       4 GLC5        0.0000 
     43 CA        -43.3240  -11.1850  -62.0720 C.3       8 GLP5        0.0000 
     44 CA        -40.5625  -11.1390  -59.0935 C.3       4 GLC5        0.0000 
     45 CA        -37.8832  -12.5080  -54.2260 C.3       4 GLC5        0.0000 
     46 CA        -42.2883  -12.0025  -55.0080 C.3       4 GLC5        0.0000 
     47 CA        -41.2780  -11.2660  -56.5090 C.3      12 GLL5        0.0000 
     48 CA        -42.7110  -13.1730  -53.5120 C.3       8 GLP5        0.0000 
     49 CA        -44.1998  -11.9057  -56.6025 C.3       4 GLC5        0.0000 
     50 CA        -42.4530  -10.3980  -56.4990 C.3      12 GLL5        0.0000 
     51 CA        -40.7507   -9.6300  -57.7395 C.3       4 GLC5        0.0000 
     52 CA        -39.6360   -8.4280  -58.9750 C.3       8 GLP5        0.0000 
@<TRIPOS>BOND
@<TRIPOS>SUBSTRUCTURE
     1 ALC1       29 GROUP        1 X    ALC  0     ROOT ALC X 1
     2 SEC2        6 GROUP        1 X    SEC  0     **** SEC X 2
     3 LYC4        1 GROUP        1 X    LYC  0     **** LYC X 4
     4 GLC5        9 GROUP        1 X    GLC  0     **** GLC X 6
     5 ALP1       31 GROUP        1 Y    ALP  0     ROOT ALP Y 8
     6 SEP2        8 GROUP        1 Y    SEP  0     **** SEP Y 9
     7 LYP4        3 GROUP        1 Y    LYP  0     **** LYP Y 11
     8 GLP5       11 GROUP        1 Y    GLP  0     **** GLP Y 13
     9 ALL1       30 GROUP        1 Z    ALL  0     ROOT ALL Z 15
    10 SEL2        7 GROUP        1 Z    SEL  0     **** SEL Z 16
    11 LYL4        2 GROUP        1 Z    LYL  0     **** LYL Z 18
    12 GLL5       10 GROUP        1 Z    GLL  0     **** GLL Z 20
@<TRIPOS>SET

