#    Name: 2yab_AMP_2_ligand
#    Modification time : Tue Mar 25 08:00:22 2014

@<TRIPOS>MOLECULE
2yab_AMP_2_ligand
   35    37     1     0     0
SMALL
NO_CHARGES


@<TRIPOS>ATOM
      1 P         -39.6260   -7.0100  -52.1970 P.3       1 AMP1302     0.0000 
      2 O1P       -38.6240   -6.0770  -52.8450 O.co2     1 AMP1302     0.0000 
      3 O2P       -39.2770   -7.1340  -50.7330 O.co2     1 AMP1302     0.0000 
      4 O3P       -41.0210   -6.5850  -52.5480 O.co2     1 AMP1302     0.0000 
      5 O5'       -39.2960   -8.3820  -52.9360 O.3       1 AMP1302     0.0000 
      6 C5'       -38.1330   -9.1280  -52.6230 C.3       1 AMP1302     0.0000 
      7 C4'       -37.8480  -10.1540  -53.6860 C.3       1 AMP1302     0.0000 
      8 O4'       -38.9750  -11.0630  -53.7930 O.3       1 AMP1302     0.0000 
      9 C3'       -37.6710   -9.6100  -55.0940 C.3       1 AMP1302     0.0000 
     10 O3'       -36.3610   -9.1420  -55.3460 O.3       1 AMP1302     0.0000 
     11 C2'       -38.0770  -10.7850  -55.9680 C.3       1 AMP1302     0.0000 
     12 O2'       -37.0240  -11.7350  -56.0590 O.3       1 AMP1302     0.0000 
     13 C1'       -39.2100  -11.3890  -55.1420 C.3       1 AMP1302     0.0000 
     14 N9        -40.5120  -10.8270  -55.5230 N.pl3     1 AMP1302     0.0000 
     15 C8        -41.1080   -9.7800  -54.9230 C.2       1 AMP1302     0.0000 
     16 N7        -42.2950   -9.5090  -55.5060 N.2       1 AMP1302     0.0000 
     17 C5        -42.4530  -10.3980  -56.4990 C.ar      1 AMP1302     0.0000 
     18 C6        -43.4860  -10.6650  -57.5050 C.ar      1 AMP1302     0.0000 
     19 N6        -44.5920   -9.8890  -57.5450 N.pl3     1 AMP1302     0.0000 
     20 N1        -43.2730  -11.6810  -58.3640 N.ar      1 AMP1302     0.0000 
     21 C2        -42.1630  -12.4450  -58.3280 C.ar      1 AMP1302     0.0000 
     22 N3        -41.1790  -12.2560  -57.4270 N.ar      1 AMP1302     0.0000 
     23 C4        -41.2780  -11.2660  -56.5090 C.ar      1 AMP1302     0.0000 
     24 H         -38.2376   -9.6563  -51.6580 H         1 AMP1302     0.0000 
     25 H         -37.2455   -8.4760  -52.5313 H         1 AMP1302     0.0000 
     26 H         -36.9667  -10.7227  -53.4288 H         1 AMP1302     0.0000 
     27 H         -38.4300   -8.8433  -55.2281 H         1 AMP1302     0.0000 
     28 H         -38.4566  -10.4429  -56.8652 H         1 AMP1302     0.0000 
     29 H         -39.2058  -12.4505  -55.2910 H         1 AMP1302     0.0000 
     30 H         -40.7334   -9.2811  -54.1663 H         1 AMP1302     0.0000 
     31 H         -45.2471  -10.0937  -58.2723 H         1 AMP1302     0.0000 
     32 H         -44.6570   -9.1790  -56.8438 H         1 AMP1302     0.0000 
     33 H         -42.0601  -13.2266  -59.0377 H         1 AMP1302     0.0000 
     34 H         -36.0265   -8.8199  -54.4604 H         1 AMP1302     0.0000 
     35 H         -36.1850  -11.2028  -55.9460 H         1 AMP1302     0.0000 
@<TRIPOS>BOND
     1    2    1 ar   
     2    3    1 ar   
     3    4    1 ar   
     4    5    1 1    
     5    6    5 1    
     6    7    6 1    
     7   24    6 1    
     8   25    6 1    
     9    8    7 1    
    10    9    7 1    
    11   26    7 1    
    12   13    8 1    
    13   10    9 1    
    14   11    9 1    
    15   27    9 1    
    16   34   10 1    
    17   12   11 1    
    18   13   11 1    
    19   28   11 1    
    20   35   12 1    
    21   14   13 1    
    22   29   13 1    
    23   15   14 1    
    24   23   14 1    
    25   16   15 2    
    26   30   15 1    
    27   17   16 1    
    28   18   17 ar   
    29   23   17 ar   
    30   19   18 1    
    31   20   18 ar   
    32   31   19 1    
    33   32   19 1    
    34   21   20 ar   
    35   22   21 ar   
    36   33   21 1    
    37   23   22 ar   
@<TRIPOS>SUBSTRUCTURE
     1 AMP1302     1 GROUP   
@<TRIPOS>SET

