#    Name: 1t4u_81A_1_INTS_M
#    Modification time : Tue Mar 25 04:22:21 2014

@<TRIPOS>MOLECULE
1t4u_81A_1_INTS_M
   55     0     9     0     0
SMALL
NO_CHARGES


@<TRIPOS>ATOM
      1 CA         18.9835  -13.0220   25.5380 C.3       3 GLC5        0.0000 
      2 CA         20.3860  -14.6730   25.9680 C.3       9 GLL5        0.0000 
      3 CA         17.5810  -11.3710   25.1080 C.3       6 GLP5        0.0000 
      4 CA         21.9385  -12.6510   25.0020 C.3       3 GLC5        0.0000 
      5 CA         21.7020  -14.3640   26.2970 C.3       9 GLL5        0.0000 
      6 CA         22.1750  -10.9380   23.7070 C.3       6 GLP5        0.0000 
      7 CA         21.6310  -14.3360   28.4120 C.3       3 GLC5        0.0000 
      8 CA         21.5600  -14.3080   30.5270 C.3       6 GLP5        0.0000 
      9 CA         21.5310  -13.9225   20.2265 C.3       3 GLC5        0.0000 
     10 CA         19.6710  -12.7410   20.4140 C.3       9 GLL5        0.0000 
     11 CA         23.3910  -15.1040   20.0390 C.3       6 GLP5        0.0000 
     12 CA         19.3450  -14.4795   19.3435 C.3       3 GLC5        0.0000 
     13 CA         19.0190  -16.2180   18.2730 C.3       6 GLP5        0.0000 
     14 CA         17.4290  -12.1210   23.1580 C.3       3 GLC5        0.0000 
     15 CA         17.2770  -12.8710   21.2080 C.3       9 GLL5        0.0000 
     16 CA         17.0740  -13.0220   23.8890 C.3       3 GLC5        0.0000 
     17 CA         16.5670  -14.6730   22.6700 C.3       9 GLL5        0.0000 
     18 CA         16.2305  -12.1500   23.3695 C.3       3 GLC5        0.0000 
     19 CA         16.2600  -13.5000   21.9690 C.3       9 GLL5        0.0000 
     20 CA         16.2010  -10.8000   24.7700 C.3       6 GLP5        0.0000 
     21 CA         13.8380   -9.5805   18.9865 C.3       3 GLC5        0.0000 
     22 CA         12.4070  -11.0270   19.8410 C.3       9 GLL5        0.0000 
     23 CA         15.2690   -8.1340   18.1320 C.3       6 GLP5        0.0000 
     24 CA         12.8010   -8.7580   22.0085 C.3       3 GLC5        0.0000 
     25 CA         13.1300  -10.6710   22.2580 C.3       9 GLL5        0.0000 
     26 CA         12.4720   -6.8450   21.7590 C.3       6 GLP5        0.0000 
     27 CA         14.6655  -10.7355   23.5140 C.3       3 GLC5        0.0000 
     28 OD1         9.3320  -11.7860   25.1090 O.co2     2 ASC3        0.0000 
     29 OD1        11.2800  -12.0160   24.4180 O.co2     8 ASL3        0.0000 
     30 OD1         8.2870  -10.6280   25.6940 O.co2     5 ASP3        0.0000 
     31 OD1         9.1705  -12.8525   25.0115 O.co2     2 ASC3        0.0000 
     32 OD1         7.9640  -12.7610   25.4990 O.co2     5 ASP3        0.0000 
     33 O           9.3320  -11.7860   25.1090 O.2       1 ALC1        0.0000 
     34 O          10.3770  -12.9440   24.5240 O.2       7 ALL1        0.0000 
     35 O           8.2870  -10.6280   25.6940 O.2       4 ALP1        0.0000 
     36 O           9.1705  -12.8525   25.0115 O.2       1 ALC1        0.0000 
     37 O           7.9640  -12.7610   25.4990 O.2       4 ALP1        0.0000 
     38 O          10.3325  -14.3855   24.2675 O.2       1 ALC1        0.0000 
     39 O          10.2880  -15.8270   24.0110 O.2       4 ALP1        0.0000 
     40 O           9.7005  -10.7380   25.3780 O.2       1 ALC1        0.0000 
     41 O          11.1140  -10.8480   25.0620 O.2       7 ALL1        0.0000 
     42 CA         23.3047  -13.5367   27.1795 C.3       3 GLC5        0.0000 
     43 CA         24.4050  -12.2460   28.1990 C.3       6 GLP5        0.0000 
     44 CA         20.0837  -16.2716   27.3120 C.3       3 GLC5        0.0000 
     45 CA         19.4990  -16.4900   29.2330 C.3       6 GLP5        0.0000 
     46 CA         20.0038  -11.7975   21.8852 C.3       3 GLC5        0.0000 
     47 CA         20.8790  -10.5170   22.9710 C.3       6 GLP5        0.0000 
     48 CA         18.8374  -11.5727   19.8209 C.3       3 GLC5        0.0000 
     49 CA         18.5860  -13.4150   21.1850 C.3       9 GLL5        0.0000 
     50 CA         19.4720  -10.1710   18.6380 C.3       6 GLP5        0.0000 
     51 CA         10.3290  -11.8877   20.1035 C.3       3 GLC5        0.0000 
     52 CA          8.5700  -12.2000   19.9250 C.3       6 GLP5        0.0000 
     53 CA         11.4585  -12.3022   18.6440 C.3       3 GLC5        0.0000 
     54 CA         11.7690  -12.1240   20.7230 C.3       9 GLL5        0.0000 
     55 CA         10.8290  -13.0290   17.0060 C.3       6 GLP5        0.0000 
@<TRIPOS>BOND
@<TRIPOS>SUBSTRUCTURE
     1 ALC1       33 GROUP        1 X    ALC  0     ROOT ALC X 1
     2 ASC3       28 GROUP        1 X    ASC  0     **** ASC X 3
     3 GLC5        1 GROUP        1 X    GLC  0     **** GLC X 6
     4 ALP1       35 GROUP        1 Y    ALP  0     ROOT ALP Y 8
     5 ASP3       30 GROUP        1 Y    ASP  0     **** ASP Y 10
     6 GLP5        3 GROUP        1 Y    GLP  0     **** GLP Y 13
     7 ALL1       34 GROUP        1 Z    ALL  0     ROOT ALL Z 15
     8 ASL3       29 GROUP        1 Z    ASL  0     **** ASL Z 17
     9 GLL5        2 GROUP        1 Z    GLL  0     **** GLL Z 20
@<TRIPOS>SET

