#    Name: 1t4u_81A_1_ligand
#    Modification time : Tue Mar 25 04:22:21 2014

@<TRIPOS>MOLECULE
1t4u_81A_1_ligand
   58    60     1     0     0
SMALL
NO_CHARGES


@<TRIPOS>ATOM
      1 S          20.8060  -18.3690   24.3070 S.o2      1 81A4815     0.0000 
      2 O4         22.0930  -18.9010   24.0020 O.2       1 81A4815     0.0000 
      3 O5         19.8800  -18.3490   23.2190 O.2       1 81A4815     0.0000 
      4 C16        20.1190  -19.3050   25.6580 C.3       1 81A4815     0.0000 
      5 C26        20.0620  -15.8980   25.3860 C.ar      1 81A4815     0.0000 
      6 C25        20.3860  -14.6730   25.9680 C.ar      1 81A4815     0.0000 
      7 C24        21.7020  -14.3640   26.2970 C.ar      1 81A4815     0.0000 
      8 C23        22.7070  -15.2910   26.0230 C.ar      1 81A4815     0.0000 
      9 C28        22.4180  -16.5200   25.4340 C.ar      1 81A4815     0.0000 
     10 C27        21.1130  -16.8210   25.1050 C.ar      1 81A4815     0.0000 
     11 C2         18.5860  -13.4150   21.1850 C.ar      1 81A4815     0.0000 
     12 C2A        19.6710  -12.7410   20.4140 C.3       1 81A4815     0.0000 
     13 C6         17.8740  -15.2080   22.6450 C.ar      1 81A4815     0.0000 
     14 C1         18.8760  -14.5710   21.8950 C.ar      1 81A4815     0.0000 
     15 C3         17.2770  -12.8710   21.2080 C.ar      1 81A4815     0.0000 
     16 C5         16.5670  -14.6730   22.6700 C.ar      1 81A4815     0.0000 
     17 C4         16.2600  -13.5000   21.9690 C.ar      1 81A4815     0.0000 
     18 O8         18.1620  -16.3570   23.3680 O.3       1 81A4815     0.0000 
     19 S20        18.2960  -16.2850   24.9500 S.o2      1 81A4815     0.0000 
     20 O21        17.7260  -17.4820   25.5210 O.2       1 81A4815     0.0000 
     21 O22        17.5650  -15.1600   25.4690 O.2       1 81A4815     0.0000 
     22 O7         14.9620  -12.9920   22.0450 O.3       1 81A4815     0.0000 
     23 C10        14.4540  -12.4310   20.8020 C.3       1 81A4815     0.0000 
     24 C14        13.1900  -11.5830   21.0440 C.3       1 81A4815     0.0000 
     25 CEA        11.7690  -12.1240   20.7230 C.3       1 81A4815     0.0000 
     26 CEB        12.4070  -11.0270   19.8410 C.3       1 81A4815     0.0000 
     27 C15        13.1300  -10.6710   22.2580 C.3       1 81A4815     0.0000 
     28 O16        13.2200  -11.2710   23.5400 O.3       1 81A4815     0.0000 
     29 N10        12.3740  -12.2200   23.7040 N.pl3     1 81A4815     0.0000 
     30 C17        11.2800  -12.0160   24.4180 C.cat     1 81A4815     0.0000 
     31 N11        10.3770  -12.9440   24.5240 N.pl3     1 81A4815     0.0000 
     32 N12        11.1140  -10.8480   25.0620 N.pl3     1 81A4815     0.0000 
     33 H          19.6370  -13.9858   26.1571 H         1 81A4815     0.0000 
     34 H          21.9308  -13.4692   26.7341 H         1 81A4815     0.0000 
     35 H          23.6888  -15.0605   26.2626 H         1 81A4815     0.0000 
     36 H          23.1721  -17.1894   25.2497 H         1 81A4815     0.0000 
     37 H          19.8236  -14.9680   21.8770 H         1 81A4815     0.0000 
     38 H          17.0671  -12.0264   20.6765 H         1 81A4815     0.0000 
     39 H          15.8363  -15.1540   23.2105 H         1 81A4815     0.0000 
     40 H          14.1933  -13.2229   20.0873 H         1 81A4815     0.0000 
     41 H          15.2026  -11.7857   20.3234 H         1 81A4815     0.0000 
     42 H          11.1765  -11.6934   21.3123 H         1 81A4815     0.0000 
     43 H          11.8862  -12.9413   20.2735 H         1 81A4815     0.0000 
     44 H          12.7406  -11.4522   19.0683 H         1 81A4815     0.0000 
     45 H          12.0309  -10.2043   20.1070 H         1 81A4815     0.0000 
     46 H          12.1777  -10.0644   22.1651 H         1 81A4815     0.0000 
     47 H          13.9407   -9.8914   22.1223 H         1 81A4815     0.0000 
     48 H          12.5345  -13.1742   23.2751 H         1 81A4815     0.0000 
     49 H           9.5826  -12.7224   25.0895 H         1 81A4815     0.0000 
     50 H          10.5598  -13.7942   24.0303 H         1 81A4815     0.0000 
     51 H          11.8699  -10.1969   24.9943 H         1 81A4815     0.0000 
     52 H          10.2494  -10.7344   25.5514 H         1 81A4815     0.0000 
     53 H          20.0271  -20.2742   25.4295 H         1 81A4815     0.0000 
     54 H          20.6906  -19.2498   26.4766 H         1 81A4815     0.0000 
     55 H          19.2095  -18.9765   25.9128 H         1 81A4815     0.0000 
     56 H          20.4241  -12.4539   21.0060 H         1 81A4815     0.0000 
     57 H          20.0597  -13.3427   19.7163 H         1 81A4815     0.0000 
     58 H          19.3395  -11.9230   19.9439 H         1 81A4815     0.0000 
@<TRIPOS>BOND
     1    2    1 2    
     2    3    1 2    
     3    4    1 1    
     4   10    1 1    
     5   53    4 1    
     6   54    4 1    
     7   55    4 1    
     8    6    5 ar   
     9   10    5 ar   
    10   19    5 1    
    11    7    6 ar   
    12   33    6 1    
    13    8    7 ar   
    14   34    7 1    
    15    9    8 ar   
    16   35    8 1    
    17   10    9 ar   
    18   36    9 1    
    19   12   11 1    
    20   14   11 ar   
    21   15   11 ar   
    22   56   12 1    
    23   57   12 1    
    24   58   12 1    
    25   14   13 ar   
    26   16   13 ar   
    27   18   13 1    
    28   37   14 1    
    29   17   15 ar   
    30   38   15 1    
    31   17   16 ar   
    32   39   16 1    
    33   22   17 1    
    34   19   18 1    
    35   20   19 2    
    36   21   19 2    
    37   23   22 1    
    38   24   23 1    
    39   40   23 1    
    40   41   23 1    
    41   25   24 1    
    42   26   24 1    
    43   27   24 1    
    44   26   25 1    
    45   42   25 1    
    46   43   25 1    
    47   44   26 1    
    48   45   26 1    
    49   28   27 1    
    50   46   27 1    
    51   47   27 1    
    52   29   28 1    
    53   30   29 ar   
    54   48   29 1    
    55   31   30 ar   
    56   32   30 ar   
    57   49   31 1    
    58   50   31 1    
    59   51   32 1    
    60   52   32 1    
@<TRIPOS>SUBSTRUCTURE
     1 81A4815     1 GROUP   
@<TRIPOS>SET

