#    Name: 2fn4_GDP_1_INTS_M
#    Modification time : Tue Mar 25 12:58:25 2014

@<TRIPOS>MOLECULE
2fn4_GDP_1_INTS_M
   67     0    15     0     0
SMALL
NO_CHARGES


@<TRIPOS>ATOM
      1 NZ         -2.7250   31.6345   18.4035 N.4       3 LYC4        0.0000 
      2 NZ         -3.0440   30.4860   17.8690 N.4      13 LYL4        0.0000 
      3 NZ         -2.4060   32.7830   18.9380 N.4       8 LYP4        0.0000 
      4 N          -4.4335   30.8345   16.8900 N.am      2 SEC2        0.0000 
      5 N          -3.0440   30.4860   17.8690 N.am     12 SEL2        0.0000 
      6 N          -5.8230   31.1830   15.9110 N.am      7 SEP2        0.0000 
      7 N          -3.4370   30.0305   16.3880 N.am      2 SEC2        0.0000 
      8 N          -3.8300   29.5750   14.9070 N.am      7 SEP2        0.0000 
      9 N          -2.0870   30.0685   16.8180 N.am      2 SEC2        0.0000 
     10 N          -1.1300   29.6510   15.7670 N.am      7 SEP2        0.0000 
     11 N          -2.7250   31.6345   18.4035 N.am      2 SEC2        0.0000 
     12 N          -2.4060   32.7830   18.9380 N.am      7 SEP2        0.0000 
     13 Zn         -1.6360   28.4680   20.1820 Zn        4 ZIC7        0.0000 
     14 Zn         -2.0290   28.6100   19.2320 Zn       14 ZIL7        0.0000 
     15 Zn         -1.2430   28.3260   21.1320 Zn        9 ZIP7        0.0000 
     16 N          -0.8475   28.2340   18.4230 N.am      2 SEC2        0.0000 
     17 N          -2.0290   28.6100   19.2320 N.am     12 SEL2        0.0000 
     18 N           0.3340   27.8580   17.6140 N.am      7 SEP2        0.0000 
     19 NZ         -3.3575   31.1570   19.3370 N.4       3 LYC4        0.0000 
     20 NZ         -4.3090   29.5310   19.7360 N.4      13 LYL4        0.0000 
     21 N          -5.3925   30.3615   19.1675 N.am      2 SEC2        0.0000 
     22 N          -4.3090   29.5310   19.7360 N.am     12 SEL2        0.0000 
     23 N          -6.4760   31.1920   18.5990 N.am      7 SEP2        0.0000 
     24 N          -3.8985   28.8680   16.2850 N.am      2 SEC2        0.0000 
     25 N          -3.9670   28.1610   17.6630 N.am     12 SEL2        0.0000 
     26 N          -1.3170   25.7045   16.7090 N.am      2 SEC2        0.0000 
     27 N          -2.6090   26.0170   17.1960 N.am     12 SEL2        0.0000 
     28 N          -0.0250   25.3920   16.2220 N.am      7 SEP2        0.0000 
     29 CA         -6.8150   28.5210   17.3760 C.3       5 GLC5        0.0000 
     30 CA         -6.4530   26.7630   17.0430 C.3      15 GLL5        0.0000 
     31 CA         -7.1770   30.2790   17.7090 C.3      10 GLP5        0.0000 
     32 N          -7.9655   27.2135   14.1030 N.am      2 SEC2        0.0000 
     33 N          -7.3400   26.0930   14.9370 N.am     12 SEL2        0.0000 
     34 N          -8.5910   28.3340   13.2690 N.am      7 SEP2        0.0000 
     35 CA         -5.6690   22.5275   14.0610 C.3       5 GLC5        0.0000 
     36 CA         -6.7340   23.8760   15.4560 C.3      15 GLL5        0.0000 
     37 CA         -4.6040   21.1790   12.6660 C.3      10 GLP5        0.0000 
     38 CA         -5.9155   21.9810   15.9150 C.3       5 GLC5        0.0000 
     39 CA         -5.0970   20.0860   16.3740 C.3      10 GLP5        0.0000 
     40 O          -6.8870   22.0085   16.3250 O.2       1 ALC1        0.0000 
     41 O          -7.1030   22.5290   15.1480 O.2      11 ALL1        0.0000 
     42 O          -6.6710   21.4880   17.5020 O.2       6 ALP1        0.0000 
     43 CA         -7.3560   26.6025   13.2955 C.3       5 GLC5        0.0000 
     44 CA         -7.1840   24.8250   14.3480 C.3      15 GLL5        0.0000 
     45 CA         -7.5280   28.3800   12.2430 C.3      10 GLP5        0.0000 
     46 N          -3.7755   26.7800   11.5935 N.am      2 SEC2        0.0000 
     47 N          -4.2930   25.4110   12.1910 N.am     12 SEL2        0.0000 
     48 N          -3.2580   28.1490   10.9960 N.am      7 SEP2        0.0000 
     49 CA         -6.0100   26.6665   10.5760 C.3       5 GLC5        0.0000 
     50 CA         -5.2180   25.0750   11.2770 C.3      15 GLL5        0.0000 
     51 CA         -6.8020   28.2580    9.8750 C.3      10 GLP5        0.0000 
     52 CA         -3.0045   24.8930   11.1040 C.3       5 GLC5        0.0000 
     53 CA         -0.7910   24.7110   10.9310 C.3      10 GLP5        0.0000 
     54 CA         -4.9545   23.2925   10.0485 C.3       5 GLC5        0.0000 
     55 CA         -4.6910   21.5100    8.8200 C.3      10 GLP5        0.0000 
     56 N          -3.3475   23.8650    9.1770 N.am      2 SEC2        0.0000 
     57 N          -4.1970   25.1310    9.1990 N.am     12 SEL2        0.0000 
     58 N          -2.4980   22.5990    9.1550 N.am      7 SEP2        0.0000 
     59 O          -6.3120   24.4940    7.8570 O.2       1 ALC1        0.0000 
     60 O          -6.3770   24.5250    9.2330 O.2      11 ALL1        0.0000 
     61 O          -6.2470   24.4630    6.4810 O.2       6 ALP1        0.0000 
     62 O          -7.2310   23.8925    7.9410 O.2       1 ALC1        0.0000 
     63 O          -8.0850   23.2600    6.6490 O.2       6 ALP1        0.0000 
     64 O          -8.3435   23.5865    7.9710 O.2       1 ALC1        0.0000 
     65 O          -8.6020   23.9130    9.2930 O.2      11 ALL1        0.0000 
     66 CA         -6.9970   26.5760   12.1130 C.3       5 GLC5        0.0000 
     67 CA         -6.4660   24.7720   11.9830 C.3      15 GLL5        0.0000 
@<TRIPOS>BOND
@<TRIPOS>SUBSTRUCTURE
     1 ALC1       40 GROUP        1 X    ALC  0     ROOT ALC X 1
     2 SEC2        4 GROUP        1 X    SEC  0     **** SEC X 2
     3 LYC4        1 GROUP        1 X    LYC  0     **** LYC X 4
     4 ZIC7       13 GROUP        1 X    ZIC  0     **** ZIC X 5
     5 GLC5       29 GROUP        1 X    GLC  0     **** GLC X 6
     6 ALP1       42 GROUP        1 Y    ALP  0     ROOT ALP Y 8
     7 SEP2        6 GROUP        1 Y    SEP  0     **** SEP Y 9
     8 LYP4        3 GROUP        1 Y    LYP  0     **** LYP Y 11
     9 ZIP7       15 GROUP        1 Y    ZIP  0     **** ZIP Y 12
    10 GLP5       31 GROUP        1 Y    GLP  0     **** GLP Y 13
    11 ALL1       41 GROUP        1 Z    ALL  0     ROOT ALL Z 15
    12 SEL2        5 GROUP        1 Z    SEL  0     **** SEL Z 16
    13 LYL4        2 GROUP        1 Z    LYL  0     **** LYL Z 18
    14 ZIL7       14 GROUP        1 Z    ZIL  0     **** ZIL Z 19
    15 GLL5       30 GROUP        1 Z    GLL  0     **** GLL Z 20
@<TRIPOS>SET

