#    Name: 2fn4_GDP_1_ligand
#    Modification time : Tue Mar 25 12:58:25 2014

@<TRIPOS>MOLECULE
2fn4_GDP_1_ligand
   40    42     1     0     0
SMALL
NO_CHARGES


@<TRIPOS>ATOM
      1 PB         -3.2650   29.2090   18.6380 P.3       1 GDP1        0.0000 
      2 O1B        -3.0440   30.4860   17.8690 O.co2     1 GDP1        0.0000 
      3 O2B        -2.0290   28.6100   19.2320 O.co2     1 GDP1        0.0000 
      4 O3B        -4.3090   29.5310   19.7360 O.co2     1 GDP1        0.0000 
      5 O3A        -3.9670   28.1610   17.6630 O.3       1 GDP1        0.0000 
      6 PA         -3.9290   26.5940   17.6750 P.3       1 GDP1        0.0000 
      7 O1A        -4.2510   26.1040   19.0820 O.co2     1 GDP1        0.0000 
      8 O2A        -2.6090   26.0170   17.1960 O.co2     1 GDP1        0.0000 
      9 O5'        -5.1280   26.3250   16.6770 O.3       1 GDP1        0.0000 
     10 C5'        -6.4530   26.7630   17.0430 C.3       1 GDP1        0.0000 
     11 C4'        -7.5110   25.9460   16.3530 C.3       1 GDP1        0.0000 
     12 O4'        -7.3400   26.0930   14.9370 O.3       1 GDP1        0.0000 
     13 C3'        -7.4620   24.4570   16.6510 C.3       1 GDP1        0.0000 
     14 O3'        -8.8080   23.9550   16.6980 O.3       1 GDP1        0.0000 
     15 C2'        -6.7340   23.8760   15.4560 C.3       1 GDP1        0.0000 
     16 O2'        -7.1030   22.5290   15.1480 O.3       1 GDP1        0.0000 
     17 C1'        -7.1840   24.8250   14.3480 C.3       1 GDP1        0.0000 
     18 N9         -6.1910   24.9780   13.2490 N.pl3     1 GDP1        0.0000 
     19 C8         -4.9110   25.3710   13.4000 C.2       1 GDP1        0.0000 
     20 N7         -4.2930   25.4110   12.1910 N.2       1 GDP1        0.0000 
     21 C5         -5.2180   25.0750   11.2770 C.2       1 GDP1        0.0000 
     22 C6         -5.2400   24.8870    9.8370 C.2       1 GDP1        0.0000 
     23 O6         -4.1970   25.1310    9.1990 O.2       1 GDP1        0.0000 
     24 N1         -6.3770   24.5250    9.2330 N.am      1 GDP1        0.0000 
     25 C2         -7.5020   24.2700    9.9500 C.2       1 GDP1        0.0000 
     26 N2         -8.6020   23.9130    9.2930 N.pl3     1 GDP1        0.0000 
     27 N3         -7.5630   24.4250   11.2820 N.2       1 GDP1        0.0000 
     28 C4         -6.4660   24.7720   11.9830 C.2       1 GDP1        0.0000 
     29 H          -6.6036   27.8233   16.7772 H         1 GDP1        0.0000 
     30 H          -6.6064   26.6821   18.1328 H         1 GDP1        0.0000 
     31 H          -8.4901   26.3186   16.6356 H         1 GDP1        0.0000 
     32 H          -6.9126   24.2934   17.5179 H         1 GDP1        0.0000 
     33 H          -5.6908   24.0232   15.5931 H         1 GDP1        0.0000 
     34 H          -8.1168   24.4733   13.9521 H         1 GDP1        0.0000 
     35 H          -4.4861   25.5946   14.2475 H         1 GDP1        0.0000 
     36 H          -6.4099   24.4338    8.1874 H         1 GDP1        0.0000 
     37 H          -9.4177   23.7603    9.8509 H         1 GDP1        0.0000 
     38 H          -8.5141   23.8295    8.3004 H         1 GDP1        0.0000 
     39 H          -8.8128   23.1693   16.0793 H         1 GDP1        0.0000 
     40 H          -6.9465   22.0182   15.9933 H         1 GDP1        0.0000 
@<TRIPOS>BOND
     1    2    1 ar   
     2    3    1 ar   
     3    4    1 ar   
     4    5    1 1    
     5    6    5 1    
     6    7    6 ar   
     7    8    6 ar   
     8    9    6 1    
     9   10    9 1    
    10   11   10 1    
    11   29   10 1    
    12   30   10 1    
    13   12   11 1    
    14   13   11 1    
    15   31   11 1    
    16   17   12 1    
    17   14   13 1    
    18   15   13 1    
    19   32   13 1    
    20   39   14 1    
    21   16   15 1    
    22   17   15 1    
    23   33   15 1    
    24   40   16 1    
    25   18   17 1    
    26   34   17 1    
    27   19   18 1    
    28   28   18 1    
    29   20   19 2    
    30   35   19 1    
    31   21   20 1    
    32   22   21 1    
    33   28   21 2    
    34   23   22 2    
    35   24   22 am   
    36   25   24 1    
    37   36   24 1    
    38   26   25 1    
    39   27   25 2    
    40   37   26 1    
    41   38   26 1    
    42   28   27 1    
@<TRIPOS>SUBSTRUCTURE
     1 GDP1        1 GROUP   
@<TRIPOS>SET

