#    Name: 3rvg_17P_1_INTS_M
#    Modification time : Tue Mar 25 12:03:16 2014

@<TRIPOS>MOLECULE
3rvg_17P_1_INTS_M
   54     0     9     0     0
SMALL
NO_CHARGES


@<TRIPOS>ATOM
      1 O         -23.7055  -37.5700    3.3090 O.2       1 ALC1        0.0000 
      2 O         -24.4230  -37.1670    4.4920 O.2       7 ALL1        0.0000 
      3 O         -22.9880  -37.9730    2.1260 O.2       4 ALP1        0.0000 
      4 CA        -25.8120  -38.3220    6.3105 C.3       3 GLC5        0.0000 
      5 CA        -27.0070  -37.9130    4.6810 C.3       9 GLL5        0.0000 
      6 CA        -24.6170  -38.7310    7.9400 C.3       6 GLP5        0.0000 
      7 CA        -28.4600  -37.9050    7.1235 C.3       3 GLC5        0.0000 
      8 CA        -28.3410  -37.3360    5.0990 C.3       9 GLL5        0.0000 
      9 CA        -28.5790  -38.4740    9.1480 C.3       6 GLP5        0.0000 
     10 CA        -25.9600  -36.2135    8.0580 C.3       3 GLC5        0.0000 
     11 CA        -27.2180  -35.4650    6.4420 C.3       9 GLL5        0.0000 
     12 CA        -24.7020  -36.9620    9.6740 C.3       6 GLP5        0.0000 
     13 CA        -27.8985  -36.9695    7.7950 C.3       3 GLC5        0.0000 
     14 CA        -24.2180  -35.6410    8.3085 C.3       3 GLC5        0.0000 
     15 CA        -23.7340  -34.3200    6.9430 C.3       9 GLL5        0.0000 
     16 CA        -27.6510  -33.4585   10.6375 C.3       3 GLC5        0.0000 
     17 CA        -28.6390  -33.1410    9.0100 C.3       9 GLL5        0.0000 
     18 CA        -26.6630  -33.7760   12.2650 C.3       6 GLP5        0.0000 
     19 CA        -30.0070  -32.7630   11.6170 C.3       3 GLC5        0.0000 
     20 CA        -29.9740  -32.5320    9.4230 C.3       9 GLL5        0.0000 
     21 CA        -30.0400  -32.9940   13.8110 C.3       6 GLP5        0.0000 
     22 CA        -32.6160  -33.1355    6.0495 C.3       3 GLC5        0.0000 
     23 CA        -30.7310  -32.4080    7.0390 C.3       9 GLL5        0.0000 
     24 CA        -34.5010  -33.8630    5.0600 C.3       6 GLP5        0.0000 
     25 CA        -28.3980  -33.4525    4.7015 C.3       3 GLC5        0.0000 
     26 CA        -29.3840  -32.9410    6.5560 C.3       9 GLL5        0.0000 
     27 CA        -27.4120  -33.9640    2.8470 C.3       6 GLP5        0.0000 
     28 O         -27.9020  -40.7615    2.4695 O.2       1 ALC1        0.0000 
     29 O         -28.1240  -39.5700    3.1560 O.2       7 ALL1        0.0000 
     30 O         -27.6800  -41.9530    1.7830 O.2       4 ALP1        0.0000 
     31 N         -25.0745  -39.9080    2.4700 N.am      2 SEC2        0.0000 
     32 N         -25.6040  -39.7080    3.7240 N.am      8 SEL2        0.0000 
     33 N         -24.5450  -40.1080    1.2160 N.am      5 SEP2        0.0000 
     34 CA        -21.4480  -34.2385    4.7905 C.3       3 GLC5        0.0000 
     35 CA        -19.8690  -34.9520    6.1170 C.3       9 GLL5        0.0000 
     36 CA        -23.0270  -33.5250    3.4640 C.3       6 GLP5        0.0000 
     37 CA        -23.9700  -34.7099    4.6551 C.3       3 GLC5        0.0000 
     38 CA        -25.8510  -35.9380    5.9920 C.3       9 GLL5        0.0000 
     39 CA        -27.5485  -39.6093    5.3680 C.3       3 GLC5        0.0000 
     40 CA        -27.4230  -41.5940    5.8460 C.3       6 GLP5        0.0000 
     41 CA        -28.1915  -36.7722    3.4415 C.3       3 GLC5        0.0000 
     42 CA        -28.7090  -35.9200    1.9930 C.3       6 GLP5        0.0000 
     43 CA        -26.9709  -34.9634    4.3948 C.3       3 GLC5        0.0000 
     44 CA        -23.0078  -33.9733    5.2565 C.3       3 GLC5        0.0000 
     45 CA        -22.3625  -34.5592    4.5250 C.3       3 GLC5        0.0000 
     46 CA        -21.3900  -35.0230    5.9880 C.3       9 GLL5        0.0000 
     47 CA        -22.2046  -36.7458    7.4634 C.3       3 GLC5        0.0000 
     48 CA        -22.0060  -36.1640    5.1840 C.3       9 GLL5        0.0000 
     49 CA        -22.4980  -38.0230    9.0490 C.3       6 GLP5        0.0000 
     50 CA        -31.7188  -32.0345   10.3935 C.3       3 GLC5        0.0000 
     51 CA        -33.1820  -31.9950   11.9130 C.3       6 GLP5        0.0000 
     52 CA        -29.8169  -34.9871    9.4569 C.3       3 GLC5        0.0000 
     53 CA        -30.3060  -36.9720   10.0430 C.3       6 GLP5        0.0000 
     54 CA        -24.7626  -37.4435    6.7559 C.3       3 GLC5        0.0000 
@<TRIPOS>BOND
@<TRIPOS>SUBSTRUCTURE
     1 ALC1        1 GROUP        1 X    ALC  0     ROOT ALC X 1
     2 SEC2       31 GROUP        1 X    SEC  0     **** SEC X 2
     3 GLC5        4 GROUP        1 X    GLC  0     **** GLC X 6
     4 ALP1        3 GROUP        1 Y    ALP  0     ROOT ALP Y 8
     5 SEP2       33 GROUP        1 Y    SEP  0     **** SEP Y 9
     6 GLP5        6 GROUP        1 Y    GLP  0     **** GLP Y 13
     7 ALL1        2 GROUP        1 Z    ALL  0     ROOT ALL Z 15
     8 SEL2       32 GROUP        1 Z    SEL  0     **** SEL Z 16
     9 GLL5        5 GROUP        1 Z    GLL  0     **** GLL Z 20
@<TRIPOS>SET

