#    Name: 3rvg_17P_1_ligand
#    Modification time : Tue Mar 25 12:03:16 2014

@<TRIPOS>MOLECULE
3rvg_17P_1_ligand
   53    57     1     0     0
SMALL
NO_CHARGES


@<TRIPOS>ATOM
      1 C         -24.4330  -35.3630    6.0770 C.ar      1 17P2000     0.0000 
      2 C1        -23.5170  -36.3400    5.3240 C.ar      1 17P2000     0.0000 
      3 N         -24.4230  -37.1670    4.4920 N.pl3     1 17P2000     0.0000 
      4 C2        -25.8320  -36.9830    4.8940 C.ar      1 17P2000     0.0000 
      5 C3        -25.8510  -35.9380    5.9920 C.ar      1 17P2000     0.0000 
      6 C4        -27.0070  -37.9130    4.6810 C.ar      1 17P2000     0.0000 
      7 C5        -28.3410  -37.3360    5.0990 C.ar      1 17P2000     0.0000 
      8 N6        -28.4080  -36.0320    5.7660 N.ar      1 17P2000     0.0000 
      9 C7        -27.2180  -35.4650    6.4420 C.ar      1 17P2000     0.0000 
     10 C8        -23.7340  -34.3200    6.9430 C.ar      1 17P2000     0.0000 
     11 C9        -22.2430  -34.5230    7.1550 C.ar      1 17P2000     0.0000 
     12 C10       -21.3900  -35.0230    5.9880 C.ar      1 17P2000     0.0000 
     13 C11       -22.0060  -36.1640    5.1840 C.ar      1 17P2000     0.0000 
     14 C12       -26.8500  -39.0210    3.6830 C.2       1 17P2000     0.0000 
     15 N13       -27.3790  -34.1900    7.1680 N.pl3     1 17P2000     0.0000 
     16 C14       -28.7240  -33.8040    7.6270 C.3       1 17P2000     0.0000 
     17 C15       -28.6390  -33.1410    9.0100 C.3       1 17P2000     0.0000 
     18 C16       -29.9740  -32.5320    9.4230 C.3       1 17P2000     0.0000 
     19 C17       -30.5370  -31.6160    8.3250 C.3       1 17P2000     0.0000 
     20 C18       -30.7310  -32.4080    7.0390 C.3       1 17P2000     0.0000 
     21 C19       -29.3840  -32.9410    6.5560 C.3       1 17P2000     0.0000 
     22 N20       -28.1240  -39.5700    3.1560 N.am      1 17P2000     0.0000 
     23 O         -25.6040  -39.7080    3.7240 O.2       1 17P2000     0.0000 
     24 C21       -19.8690  -34.9520    6.1170 C.2       1 17P2000     0.0000 
     25 C22       -19.1570  -35.0700    7.4540 C.2       1 17P2000     0.0000 
     26 N23       -17.7280  -35.3710    7.1850 N.pl3     1 17P2000     0.0000 
     27 N24       -17.4370  -35.3820    5.7760 N.2       1 17P2000     0.0000 
     28 C25       -18.7470  -35.1400    5.1170 C.2       1 17P2000     0.0000 
     29 C26       -16.6080  -35.2690    8.1940 C.3       1 17P2000     0.0000 
     30 H         -24.1371  -37.7303    3.8037 H         1 17P2000     0.0000 
     31 H         -29.1689  -37.8611    4.9109 H         1 17P2000     0.0000 
     32 H         -24.2063  -33.5860    7.3269 H         1 17P2000     0.0000 
     33 H         -21.8320  -34.3385    8.0205 H         1 17P2000     0.0000 
     34 H         -21.4815  -36.7321    4.6287 H         1 17P2000     0.0000 
     35 H         -26.5976  -33.6071    7.3421 H         1 17P2000     0.0000 
     36 H         -29.3243  -34.7203    7.7333 H         1 17P2000     0.0000 
     37 H         -27.8773  -32.3597    8.9820 H         1 17P2000     0.0000 
     38 H         -28.3399  -33.8909    9.7445 H         1 17P2000     0.0000 
     39 H         -29.8403  -31.9497   10.3355 H         1 17P2000     0.0000 
     40 H         -30.6911  -33.3298    9.6204 H         1 17P2000     0.0000 
     41 H         -29.8408  -30.8032    8.1505 H         1 17P2000     0.0000 
     42 H         -31.4896  -31.2147    8.6527 H         1 17P2000     0.0000 
     43 H         -31.1555  -31.7631    6.2775 H         1 17P2000     0.0000 
     44 H         -31.4006  -33.2406    7.2244 H         1 17P2000     0.0000 
     45 H         -29.5354  -33.5367    5.6565 H         1 17P2000     0.0000 
     46 H         -28.7311  -32.1024    6.3166 H         1 17P2000     0.0000 
     47 H         -28.9619  -39.1536    3.5089 H         1 17P2000     0.0000 
     48 H         -28.0416  -40.3119    2.4906 H         1 17P2000     0.0000 
     49 H         -19.5508  -34.9711    8.2601 H         1 17P2000     0.0000 
     50 H         -18.8786  -35.1051    4.1919 H         1 17P2000     0.0000 
     51 H         -15.7260  -35.5226    7.7968 H         1 17P2000     0.0000 
     52 H         -16.5126  -34.3395    8.5503 H         1 17P2000     0.0000 
     53 H         -16.7595  -35.8697    8.9790 H         1 17P2000     0.0000 
@<TRIPOS>BOND
     1    2    1 ar   
     2    5    1 1    
     3   10    1 ar   
     4    3    2 1    
     5   13    2 ar   
     6    4    3 1    
     7   30    3 1    
     8    5    4 ar   
     9    6    4 ar   
    10    9    5 ar   
    11    7    6 ar   
    12   14    6 1    
    13    8    7 ar   
    14   31    7 1    
    15    9    8 ar   
    16   15    9 1    
    17   11   10 ar   
    18   32   10 1    
    19   12   11 ar   
    20   33   11 1    
    21   13   12 ar   
    22   24   12 1    
    23   34   13 1    
    24   22   14 am   
    25   23   14 2    
    26   16   15 1    
    27   35   15 1    
    28   17   16 1    
    29   21   16 1    
    30   36   16 1    
    31   18   17 1    
    32   37   17 1    
    33   38   17 1    
    34   19   18 1    
    35   39   18 1    
    36   40   18 1    
    37   20   19 1    
    38   41   19 1    
    39   42   19 1    
    40   21   20 1    
    41   43   20 1    
    42   44   20 1    
    43   45   21 1    
    44   46   21 1    
    45   47   22 1    
    46   48   22 1    
    47   25   24 2    
    48   28   24 1    
    49   26   25 1    
    50   49   25 1    
    51   27   26 1    
    52   29   26 1    
    53   28   27 2    
    54   50   28 1    
    55   51   29 1    
    56   52   29 1    
    57   53   29 1    
@<TRIPOS>SUBSTRUCTURE
     1 17P2000     1 GROUP   
@<TRIPOS>SET

