#    Name: 3huc_G97_1_INTS_M
#    Modification time : Tue Mar 25 15:05:24 2014

@<TRIPOS>MOLECULE
3huc_G97_1_INTS_M
   50     0     6     0     0
SMALL
NO_CHARGES


@<TRIPOS>ATOM
      1 CA         25.4450   -0.0155  -19.9185 C.3       2 GLC5        0.0000 
      2 CA         24.7520   -1.9090  -20.8760 C.3       6 GLL5        0.0000 
      3 CA         26.1380    1.8780  -18.9610 C.3       4 GLP5        0.0000 
      4 CA         23.4230   -6.2055  -19.4995 C.3       2 GLC5        0.0000 
      5 CA         23.8760   -4.4740  -20.2690 C.3       6 GLL5        0.0000 
      6 CA         22.9700   -7.9370  -18.7300 C.3       4 GLP5        0.0000 
      7 CA         24.6455    0.4425  -19.1335 C.3       2 GLC5        0.0000 
      8 CA         23.1530   -0.9930  -19.3060 C.3       6 GLL5        0.0000 
      9 CA         24.5685   -1.2550  -18.0750 C.3       2 GLC5        0.0000 
     10 CA         25.9840   -1.5170  -16.8440 C.3       4 GLP5        0.0000 
     11 N          23.4420   -2.0910  -17.1640 N.am      1 SEC2        0.0000 
     12 N          22.7970   -1.1460  -18.0150 N.am      5 SEL2        0.0000 
     13 N          24.0870   -3.0360  -16.3130 N.am      3 SEP2        0.0000 
     14 CA         22.7840    0.5275  -13.7180 C.3       2 GLC5        0.0000 
     15 CA         21.3380    0.7140  -15.2550 C.3       6 GLL5        0.0000 
     16 CA         24.2300    0.3410  -12.1810 C.3       4 GLP5        0.0000 
     17 CA         21.7895    1.6785  -12.3990 C.3       2 GLC5        0.0000 
     18 CA         20.0260    0.6750  -11.8710 C.3       6 GLL5        0.0000 
     19 CA         23.5530    2.6820  -12.9270 C.3       4 GLP5        0.0000 
     20 CA         24.5995    2.9575  -21.6835 C.3       2 GLC5        0.0000 
     21 CA         22.5710    3.7560  -21.9050 C.3       6 GLL5        0.0000 
     22 CA         26.6280    2.1590  -21.4620 C.3       4 GLP5        0.0000 
     23 CA         25.2802   -1.2092  -22.8545 C.3       2 GLC5        0.0000 
     24 CA         25.5090    0.0350  -24.5170 C.3       4 GLP5        0.0000 
     25 CA         26.3498   -2.0823  -19.9390 C.3       2 GLC5        0.0000 
     26 CA         27.6480   -1.7110  -18.6860 C.3       4 GLP5        0.0000 
     27 CA         24.1468   -2.9188  -22.7565 C.3       2 GLC5        0.0000 
     28 CA         23.2420   -3.3840  -24.3210 C.3       4 GLP5        0.0000 
     29 CA         26.5385   -4.6237  -22.6513 C.3       2 GLC5        0.0000 
     30 CA         24.8970   -4.2750  -21.2010 C.3       6 GLL5        0.0000 
     31 CA         27.9530   -5.6110  -23.9480 C.3       4 GLP5        0.0000 
     32 CA         23.8143   -3.8793  -22.5280 C.3       2 GLC5        0.0000 
     33 CA         21.7955   -4.3535  -20.9158 C.3       2 GLC5        0.0000 
     34 CA         23.2760   -3.3800  -19.6380 C.3       6 GLL5        0.0000 
     35 CA         20.0150   -4.7800  -21.8780 C.3       4 GLP5        0.0000 
     36 CA         25.9605   -5.2391  -20.1594 C.3       2 GLC5        0.0000 
     37 CA         27.4210   -6.4230  -19.5070 C.3       4 GLP5        0.0000 
     38 CA         24.5957   -2.9885  -18.3239 C.3       2 GLC5        0.0000 
     39 CA         25.5460   -2.9680  -16.6960 C.3       4 GLP5        0.0000 
     40 CA         24.0348   -0.8707  -16.7520 C.3       2 GLC5        0.0000 
     41 CA         22.2710   -0.1250  -17.3250 C.3       6 GLL5        0.0000 
     42 CA         20.2073   -0.2198  -16.7060 C.3       2 GLC5        0.0000 
     43 CA         18.3290   -0.2150  -16.7520 C.3       4 GLP5        0.0000 
     44 CA         19.7885    0.5627  -16.1570 C.3       2 GLC5        0.0000 
     45 CA         20.0720    0.7132  -17.1635 C.3       2 GLC5        0.0000 
     46 CA         21.5350    2.1660  -17.2050 C.3       6 GLL5        0.0000 
     47 CA         24.2123    1.5340  -18.7890 C.3       2 GLC5        0.0000 
     48 CA         22.0950    1.1170  -17.9450 C.3       6 GLL5        0.0000 
     49 CA         24.4400    4.5883  -22.6640 C.3       2 GLC5        0.0000 
     50 CA         26.2610    5.5710  -22.7740 C.3       4 GLP5        0.0000 
@<TRIPOS>BOND
@<TRIPOS>SUBSTRUCTURE
     1 SEC2       11 GROUP        1 X    SEC  0     ROOT SEC X 2
     2 GLC5        1 GROUP        1 X    GLC  0     **** GLC X 6
     3 SEP2       13 GROUP        1 Y    SEP  0     ROOT SEP Y 9
     4 GLP5        3 GROUP        1 Y    GLP  0     **** GLP Y 13
     5 SEL2       12 GROUP        1 Z    SEL  0     ROOT SEL Z 16
     6 GLL5        2 GROUP        1 Z    GLL  0     **** GLL Z 20
@<TRIPOS>SET

