#    Name: 3huc_G97_1_ligand
#    Modification time : Tue Mar 25 15:05:24 2014

@<TRIPOS>MOLECULE
3huc_G97_1_ligand
   41    44     1     0     0
SMALL
NO_CHARGES


@<TRIPOS>ATOM
      1 CAH        24.7520   -1.9090  -20.8760 C.ar      1 G97362      0.0000 
      2 CAE        25.3510   -2.9980  -21.5080 C.ar      1 G97362      0.0000 
      3 CAD        24.8970   -4.2750  -21.2010 C.ar      1 G97362      0.0000 
      4 CAF        23.8760   -4.4740  -20.2690 C.ar      1 G97362      0.0000 
      5 CAI        23.2760   -3.3800  -19.6380 C.ar      1 G97362      0.0000 
      6 CAW        23.7150   -2.0910  -19.9500 C.ar      1 G97362      0.0000 
      7 C2         23.1530   -0.9930  -19.3060 C.ar      1 G97362      0.0000 
      8 N1         23.0020    0.1980  -19.9310 N.ar      1 G97362      0.0000 
      9 N3         22.7970   -1.1460  -18.0150 N.ar      1 G97362      0.0000 
     10 C4         22.2710   -0.1250  -17.3250 C.ar      1 G97362      0.0000 
     11 CAM        21.9000   -0.3240  -15.9950 C.ar      1 G97362      0.0000 
     12 CAU        21.3380    0.7140  -15.2550 C.ar      1 G97362      0.0000 
     13 NAQ        21.0190    0.4530  -13.9710 N.am      1 G97362      0.0000 
     14 CAT        20.1930    1.1450  -13.1760 C.2       1 G97362      0.0000 
     15 OAB        19.5700    2.1540  -13.5240 O.2       1 G97362      0.0000 
     16 CAC        20.0260    0.6750  -11.8710 C.2       1 G97362      0.0000 
     17 CAA        19.1830    1.3240  -10.9700 C.2       1 G97362      0.0000 
     18 CAK        21.1580    1.9670  -15.8690 C.ar      1 G97362      0.0000 
     19 CAL        21.5350    2.1660  -17.2050 C.ar      1 G97362      0.0000 
     20 C5         22.0950    1.1170  -17.9450 C.ar      1 G97362      0.0000 
     21 C6         22.4780    1.2630  -19.2890 C.ar      1 G97362      0.0000 
     22 NAR        22.3330    2.4370  -19.9390 N.pl3     1 G97362      0.0000 
     23 CAV        22.4610    2.5860  -21.2810 C.2       1 G97362      0.0000 
     24 CAJ        22.5710    3.7560  -21.9050 C.2       1 G97362      0.0000 
     25 CAG        22.6670    3.4550  -23.2030 C.2       1 G97362      0.0000 
     26 NAS        22.6040    2.1190  -23.3250 N.pl3     1 G97362      0.0000 
     27 NAN        22.4840    1.6090  -22.2000 N.2       1 G97362      0.0000 
     28 H          25.0749   -0.9515  -21.0911 H         1 G97362      0.0000 
     29 H          26.1034   -2.8586  -22.1785 H         1 G97362      0.0000 
     30 H          25.3210   -5.0952  -21.6697 H         1 G97362      0.0000 
     31 H          23.5642   -5.4273  -20.0458 H         1 G97362      0.0000 
     32 H          22.5283   -3.5217  -18.9595 H         1 G97362      0.0000 
     33 H          22.0431   -1.2460  -15.5574 H         1 G97362      0.0000 
     34 H          21.4940   -0.4312  -13.5288 H         1 G97362      0.0000 
     35 H          20.5390   -0.1722  -11.5682 H         1 G97362      0.0000 
     36 H          20.7471    2.7409  -15.3328 H         1 G97362      0.0000 
     37 H          21.3996    3.0852  -17.6420 H         1 G97362      0.0000 
     38 H          22.1024    3.3071  -19.3612 H         1 G97362      0.0000 
     39 H          22.5798    4.6241  -21.5132 H         1 G97362      0.0000 
     40 H          22.7647    4.0850  -23.9300 H         1 G97362      0.0000 
     41 H          22.6515    1.6646  -24.2088 H         1 G97362      0.0000 
@<TRIPOS>BOND
     1    2    1 ar   
     2    6    1 ar   
     3   28    1 1    
     4    3    2 ar   
     5   29    2 1    
     6    4    3 ar   
     7   30    3 1    
     8    5    4 ar   
     9   31    4 1    
    10    6    5 ar   
    11   32    5 1    
    12    7    6 1    
    13    8    7 ar   
    14    9    7 ar   
    15   21    8 ar   
    16   10    9 ar   
    17   11   10 ar   
    18   20   10 ar   
    19   12   11 ar   
    20   33   11 1    
    21   13   12 1    
    22   18   12 ar   
    23   14   13 am   
    24   34   13 1    
    25   15   14 2    
    26   16   14 1    
    27   17   16 2    
    28   35   16 1    
    29   19   18 ar   
    30   36   18 1    
    31   20   19 ar   
    32   37   19 1    
    33   21   20 ar   
    34   22   21 1    
    35   23   22 1    
    36   38   22 1    
    37   24   23 1    
    38   27   23 2    
    39   25   24 2    
    40   39   24 1    
    41   26   25 1    
    42   40   25 1    
    43   27   26 1    
    44   41   26 1    
@<TRIPOS>SUBSTRUCTURE
     1 G97362      1 GROUP   
@<TRIPOS>SET

