#    Name: 4nbw_NAD_4_INTS_M
#    Modification time : Tue Mar 25 12:59:36 2014

@<TRIPOS>MOLECULE
4nbw_NAD_4_INTS_M
   91     0     9     0     0
SMALL
NO_CHARGES


@<TRIPOS>ATOM
      1 CA          1.7875   41.7855   44.7585 C.3       3 GLC5        0.0000 
      2 CA          1.9550   43.5260   44.1750 C.3       9 GLL5        0.0000 
      3 CA          1.6200   40.0450   45.3420 C.3       6 GLP5        0.0000 
      4 CA          3.0940   43.7255   41.3730 C.3       3 GLC5        0.0000 
      5 CA          1.4430   43.8690   42.7850 C.3       9 GLL5        0.0000 
      6 CA          4.7450   43.5820   39.9610 C.3       6 GLP5        0.0000 
      7 O           1.1550   41.7685   42.0125 O.2       1 ALC1        0.0000 
      8 O           1.7660   42.8910   41.8320 O.2       7 ALL1        0.0000 
      9 O           0.5440   40.6460   42.1930 O.2       4 ALP1        0.0000 
     10 O          -1.0970   42.5880   41.6620 O.2       1 ALC1        0.0000 
     11 O          -0.7820   43.8890   41.9110 O.2       7 ALL1        0.0000 
     12 O          -1.4120   41.2870   41.4130 O.2       4 ALP1        0.0000 
     13 CA          0.6415   41.5865   44.7655 C.3       3 GLC5        0.0000 
     14 CA         -0.3370   43.1280   44.1890 C.3       9 GLL5        0.0000 
     15 CA         -3.0790   44.0950   48.0190 C.3       3 GLC5        0.0000 
     16 CA         -3.4650   43.2380   46.0590 C.3       9 GLL5        0.0000 
     17 CA         -2.6930   44.9520   49.9790 C.3       6 GLP5        0.0000 
     18 CA         -6.0605   41.0300   46.6125 C.3       3 GLC5        0.0000 
     19 CA         -4.6010   42.5100   46.6310 C.3       9 GLL5        0.0000 
     20 CA         -7.5200   39.5500   46.5940 C.3       6 GLP5        0.0000 
     21 CA         -4.3795   41.7215   48.4615 C.3       3 GLC5        0.0000 
     22 CA         -4.1580   40.9330   50.2920 C.3       6 GLP5        0.0000 
     23 O          -6.7745   42.5975   47.6135 O.2       1 ALC1        0.0000 
     24 O          -5.5180   43.1930   47.2550 O.2       7 ALL1        0.0000 
     25 O          -8.0310   42.0020   47.9720 O.2       4 ALP1        0.0000 
     26 N          -5.3545   40.3050   47.5405 N.am      2 SEC2        0.0000 
     27 N          -4.6290   41.1900   46.5370 N.am      8 SEL2        0.0000 
     28 N          -6.0800   39.4200   48.5440 N.am      5 SEP2        0.0000 
     29 CA         -2.9405   39.5850   44.2945 C.3       3 GLC5        0.0000 
     30 CA         -3.6860   40.5640   45.9040 C.3       9 GLL5        0.0000 
     31 CA         -2.1950   38.6060   42.6850 C.3       6 GLP5        0.0000 
     32 CA         -4.7855   41.4010   44.5620 C.3       3 GLC5        0.0000 
     33 CA         -5.8850   42.2380   43.2200 C.3       6 GLP5        0.0000 
     34 CA         -5.6030   40.0570   46.2490 C.3       3 GLC5        0.0000 
     35 CA         -3.5440   39.6240   47.6375 C.3       3 GLC5        0.0000 
     36 CA         -3.4020   38.6840   49.3710 C.3       6 GLP5        0.0000 
     37 CA         -1.8965   40.9515   47.1930 C.3       3 GLC5        0.0000 
     38 CA         -0.1070   41.3390   48.4820 C.3       6 GLP5        0.0000 
     39 CA         -1.2890   41.9035   46.9195 C.3       3 GLC5        0.0000 
     40 CA         -2.4710   42.4680   45.3570 C.3       9 GLL5        0.0000 
     41 N           8.3800   47.9305   44.5515 N.am      2 SEC2        0.0000 
     42 N           7.5400   47.1490   45.6260 N.am      8 SEL2        0.0000 
     43 N           9.2200   48.7120   43.4770 N.am      5 SEP2        0.0000 
     44 N           8.2395   43.7660   44.7095 N.am      2 SEC2        0.0000 
     45 N           7.4810   44.7980   45.3370 N.am      8 SEL2        0.0000 
     46 N           8.9980   42.7340   44.0820 N.am      5 SEP2        0.0000 
     47 CA          3.0575   45.4440   49.4300 C.3       3 GLC5        0.0000 
     48 CA          5.1470   45.2800   49.6860 C.3       9 GLL5        0.0000 
     49 CA          0.9680   45.6080   49.1740 C.3       6 GLP5        0.0000 
     50 N           4.0805   45.2030   51.8200 N.am      2 SEC2        0.0000 
     51 N           4.1230   44.6710   50.4760 N.am      8 SEL2        0.0000 
     52 N           4.0380   45.7350   53.1640 N.am      5 SEP2        0.0000 
     53 O           3.9525   43.5430   49.7815 O.2       1 ALC1        0.0000 
     54 O           4.1230   44.6710   50.4760 O.2       7 ALL1        0.0000 
     55 O           3.7820   42.4150   49.0870 O.2       4 ALP1        0.0000 
     56 CA          5.4940   48.2310   51.2420 C.3       3 GLC5        0.0000 
     57 CA          5.9260   46.3680   50.4060 C.3       9 GLL5        0.0000 
     58 CA          5.0620   50.0940   52.0780 C.3       6 GLP5        0.0000 
     59 CA          4.9155   46.6845   52.1430 C.3       3 GLC5        0.0000 
     60 CA          3.9050   47.0010   53.8800 C.3       6 GLP5        0.0000 
     61 O           5.5830   47.8000   51.5775 O.2       1 ALC1        0.0000 
     62 O           5.3160   46.4860   51.6760 O.2       7 ALL1        0.0000 
     63 O           5.8500   49.1140   51.4790 O.2       4 ALP1        0.0000 
     64 CA          8.8320   45.1535   49.2740 C.3       3 GLC5        0.0000 
     65 CA          7.4050   45.9730   50.6230 C.3       9 GLL5        0.0000 
     66 CA         10.2590   44.3340   47.9250 C.3       6 GLP5        0.0000 
     67 CA          6.8155   44.1100   51.7130 C.3       3 GLC5        0.0000 
     68 CA          6.2260   42.2470   52.8030 C.3       6 GLP5        0.0000 
     69 CA          9.4370   45.3490   51.3220 C.3       3 GLC5        0.0000 
     70 CA         11.4690   44.7250   52.0210 C.3       6 GLP5        0.0000 
     71 N          12.5705   49.7940   47.3325 N.am      2 SEC2        0.0000 
     72 N          11.0220   49.8810   47.3450 N.am      8 SEL2        0.0000 
     73 N          14.1190   49.7070   47.3200 N.am      5 SEP2        0.0000 
     74 CA         10.2915   46.1285   51.6965 C.3       3 GLC5        0.0000 
     75 CA          9.1140   47.5320   51.3720 C.3       9 GLL5        0.0000 
     76 CA         -4.5200   43.1680   44.7805 C.3       3 GLC5        0.0000 
     77 CA         -5.7880   43.6650   43.7100 C.3       6 GLP5        0.0000 
     78 CA          8.3195   44.3570   48.2587 C.3       3 GLC5        0.0000 
     79 CA          6.4930   44.4180   47.8390 C.3       9 GLL5        0.0000 
     80 CA          5.9665   43.5290   51.1595 C.3       3 GLC5        0.0000 
     81 CA          6.2670   44.3420   49.3460 C.3       9 GLL5        0.0000 
     82 CA          9.8885   46.1077   48.4753 C.3       3 GLC5        0.0000 
     83 CA          9.0090   47.4030   49.1100 C.3       9 GLL5        0.0000 
     84 CA         12.0575   47.7957   48.8780 C.3       3 GLC5        0.0000 
     85 CA         10.6190   48.8830   50.0690 C.3       9 GLL5        0.0000 
     86 CA         13.7920   46.9700   48.2510 C.3       6 GLP5        0.0000 
     87 CA          9.1495   48.4565   53.1000 C.3       3 GLC5        0.0000 
     88 CA         10.1380   48.4800   51.3020 C.3       9 GLL5        0.0000 
     89 CA          8.6730   48.9070   54.8630 C.3       6 GLP5        0.0000 
     90 CA         11.3362   47.1434   51.0098 C.3       3 GLC5        0.0000 
     91 CA         12.4420   45.7360   51.6160 C.3       6 GLP5        0.0000 
@<TRIPOS>BOND
@<TRIPOS>SUBSTRUCTURE
     1 ALC1        7 GROUP        1 X    ALC  0     ROOT ALC X 1
     2 SEC2       26 GROUP        1 X    SEC  0     **** SEC X 2
     3 GLC5        1 GROUP        1 X    GLC  0     **** GLC X 6
     4 ALP1        9 GROUP        1 Y    ALP  0     ROOT ALP Y 8
     5 SEP2       28 GROUP        1 Y    SEP  0     **** SEP Y 9
     6 GLP5        3 GROUP        1 Y    GLP  0     **** GLP Y 13
     7 ALL1        8 GROUP        1 Z    ALL  0     ROOT ALL Z 15
     8 SEL2       27 GROUP        1 Z    SEL  0     **** SEL Z 16
     9 GLL5        2 GROUP        1 Z    GLL  0     **** GLL Z 20
@<TRIPOS>SET

