#    Name: 4nbw_NAD_4_ligand
#    Modification time : Tue Mar 25 12:59:36 2014

@<TRIPOS>MOLECULE
4nbw_NAD_4_ligand
   70    74     1     0     0
SMALL
NO_CHARGES


@<TRIPOS>ATOM
      1 PA          4.6950   46.2540   43.7570 P.3       1 NAD301      0.0000 
      2 O1A         3.7480   47.2710   43.6490 O.co2     1 NAD301      0.0000 
      3 O2A         5.8330   46.0380   42.8830 O.co2     1 NAD301      0.0000 
      4 O5B         3.9100   44.8840   43.8130 O.3       1 NAD301      0.0000 
      5 C5B         2.8300   44.6820   44.6540 C.3       1 NAD301      0.0000 
      6 C4B         1.9550   43.5260   44.1750 C.3       1 NAD301      0.0000 
      7 O4B         0.8210   43.2690   44.9670 O.3       1 NAD301      0.0000 
      8 C3B         1.4430   43.8690   42.7850 C.3       1 NAD301      0.0000 
      9 O3B         1.7660   42.8910   41.8320 O.3       1 NAD301      0.0000 
     10 C2B        -0.0200   44.0680   43.0420 C.3       1 NAD301      0.0000 
     11 O2B        -0.7820   43.8890   41.9110 O.3       1 NAD301      0.0000 
     12 C1B        -0.3370   43.1280   44.1890 C.3       1 NAD301      0.0000 
     13 N9A        -1.5790   43.3660   44.9500 N.pl3     1 NAD301      0.0000 
     14 C8A        -2.0140   44.5380   45.3410 C.2       1 NAD301      0.0000 
     15 N7A        -3.1230   44.4850   45.9990 N.2       1 NAD301      0.0000 
     16 C5A        -3.4650   43.2380   46.0590 C.ar      1 NAD301      0.0000 
     17 C6A        -4.6010   42.5100   46.6310 C.ar      1 NAD301      0.0000 
     18 N6A        -5.5180   43.1930   47.2550 N.pl3     1 NAD301      0.0000 
     19 N1A        -4.6290   41.1900   46.5370 N.ar      1 NAD301      0.0000 
     20 C2A        -3.6860   40.5640   45.9040 C.ar      1 NAD301      0.0000 
     21 N3A        -2.6430   41.1230   45.3400 N.ar      1 NAD301      0.0000 
     22 C4A        -2.4710   42.4680   45.3570 C.ar      1 NAD301      0.0000 
     23 O3          5.3540   46.2920   45.1890 O.3       1 NAD301      0.0000 
     24 PN          6.8020   45.9650   45.7240 P.3       1 NAD301      0.0000 
     25 O1N         7.5400   47.1490   45.6260 O.co2     1 NAD301      0.0000 
     26 O2N         7.4810   44.7980   45.3370 O.co2     1 NAD301      0.0000 
     27 O5D         6.6630   45.7400   47.2820 O.3       1 NAD301      0.0000 
     28 C5D         6.4930   44.4180   47.8390 C.3       1 NAD301      0.0000 
     29 C4D         6.2670   44.3420   49.3460 C.3       1 NAD301      0.0000 
     30 O4D         7.4820   44.6540   50.0270 O.3       1 NAD301      0.0000 
     31 C3D         5.1470   45.2800   49.6860 C.3       1 NAD301      0.0000 
     32 O3D         4.1230   44.6710   50.4760 O.3       1 NAD301      0.0000 
     33 C2D         5.9260   46.3680   50.4060 C.3       1 NAD301      0.0000 
     34 O2D         5.3160   46.4860   51.6760 O.3       1 NAD301      0.0000 
     35 C1D         7.4050   45.9730   50.6230 C.3       1 NAD301      0.0000 
     36 N1N         8.5230   46.9970   50.3150 N.pl3     1 NAD301      0.0000 
     37 C2N         9.0090   47.4030   49.1100 C.ar      1 NAD301      0.0000 
     38 C3N        10.0270   48.3600   48.9410 C.ar      1 NAD301      0.0000 
     39 C7N        10.5250   48.7770   47.5780 C.2       1 NAD301      0.0000 
     40 O7N        11.0220   49.8810   47.3450 O.2       1 NAD301      0.0000 
     41 N7N        10.3910   47.8190   46.6820 N.am      1 NAD301      0.0000 
     42 C4N        10.6190   48.8830   50.0690 C.ar      1 NAD301      0.0000 
     43 C5N        10.1380   48.4800   51.3020 C.ar      1 NAD301      0.0000 
     44 C6N         9.1140   47.5320   51.3720 C.ar      1 NAD301      0.0000 
     45 H           2.1736   45.5736   44.7267 H         1 NAD301      0.0000 
     46 H           3.1375   44.4436   45.6931 H         1 NAD301      0.0000 
     47 H           2.5802   42.6464   44.0640 H         1 NAD301      0.0000 
     48 H           1.8614   44.8518   42.5524 H         1 NAD301      0.0000 
     49 H          -0.1141   45.0914   43.4567 H         1 NAD301      0.0000 
     50 H          -0.3384   42.1131   43.7574 H         1 NAD301      0.0000 
     51 H          -1.5170   45.4027   45.1398 H         1 NAD301      0.0000 
     52 H          -6.2777   42.6652   47.6348 H         1 NAD301      0.0000 
     53 H          -5.3778   44.1822   47.2968 H         1 NAD301      0.0000 
     54 H          -3.7625   39.4743   45.8313 H         1 NAD301      0.0000 
     55 H           7.3822   43.7748   47.6020 H         1 NAD301      0.0000 
     56 H           5.6327   43.8917   47.3455 H         1 NAD301      0.0000 
     57 H           5.9422   43.3269   49.5631 H         1 NAD301      0.0000 
     58 H           4.7922   45.7036   48.7647 H         1 NAD301      0.0000 
     59 H           5.8766   47.2661   49.8556 H         1 NAD301      0.0000 
     60 H           7.4472   45.7800   51.7681 H         1 NAD301      0.0000 
     61 H           8.6035   46.9787   48.2240 H         1 NAD301      0.0000 
     62 H          10.0329   46.9483   47.0190 H         1 NAD301      0.0000 
     63 H          10.6597   48.0503   45.7470 H         1 NAD301      0.0000 
     64 H          11.3880   49.5467   50.0008 H         1 NAD301      0.0000 
     65 H          10.5284   48.8728   52.1669 H         1 NAD301      0.0000 
     66 H           8.8103   47.2402   52.3529 H         1 NAD301      0.0000 
     67 H           0.9557   42.3077   41.7750 H         1 NAD301      0.0000 
     68 H          -0.9579   42.9054   41.8705 H         1 NAD301      0.0000 
     69 H           3.6007   44.1095   49.8342 H         1 NAD301      0.0000 
     70 H           5.3274   47.4652   51.8785 H         1 NAD301      0.0000 
@<TRIPOS>BOND
     1    2    1 ar   
     2    3    1 ar   
     3    4    1 1    
     4   23    1 1    
     5    5    4 1    
     6    6    5 1    
     7   45    5 1    
     8   46    5 1    
     9    7    6 1    
    10    8    6 1    
    11   47    6 1    
    12   12    7 1    
    13    9    8 1    
    14   10    8 1    
    15   48    8 1    
    16   67    9 1    
    17   11   10 1    
    18   12   10 1    
    19   49   10 1    
    20   68   11 1    
    21   13   12 1    
    22   50   12 1    
    23   14   13 1    
    24   22   13 1    
    25   15   14 2    
    26   51   14 1    
    27   16   15 1    
    28   17   16 ar   
    29   22   16 ar   
    30   18   17 1    
    31   19   17 ar   
    32   52   18 1    
    33   53   18 1    
    34   20   19 ar   
    35   21   20 ar   
    36   54   20 1    
    37   22   21 ar   
    38   24   23 1    
    39   25   24 ar   
    40   26   24 ar   
    41   27   24 1    
    42   28   27 1    
    43   29   28 1    
    44   55   28 1    
    45   56   28 1    
    46   30   29 1    
    47   31   29 1    
    48   57   29 1    
    49   35   30 1    
    50   32   31 1    
    51   33   31 1    
    52   58   31 1    
    53   69   32 1    
    54   34   33 1    
    55   35   33 1    
    56   59   33 1    
    57   70   34 1    
    58   36   35 1    
    59   60   35 1    
    60   37   36 ar   
    61   44   36 ar   
    62   38   37 ar   
    63   61   37 1    
    64   39   38 1    
    65   42   38 ar   
    66   40   39 2    
    67   41   39 am   
    68   62   41 1    
    69   63   41 1    
    70   43   42 ar   
    71   64   42 1    
    72   44   43 ar   
    73   65   43 1    
    74   66   44 1    
@<TRIPOS>SUBSTRUCTURE
     1 NAD301      1 GROUP   
@<TRIPOS>SET

