#    Name: 1qiq_ACC_1_INTS_M
#    Modification time : Mon Mar 24 23:33:22 2014

@<TRIPOS>MOLECULE
1qiq_ACC_1_INTS_M
   55     0     9     0     0
SMALL
NO_CHARGES


@<TRIPOS>ATOM
      1 CA         10.6780   38.2505    3.4445 C.3       3 GLC5        0.0000 
      2 CA          9.6940   39.6900    4.8570 C.3       9 GLL5        0.0000 
      3 CA         11.6620   36.8110    2.0320 C.3       6 GLP5        0.0000 
      4 CA          7.1150   36.1695    5.4020 C.3       3 GLC5        0.0000 
      5 CA          6.7140   37.5380    4.1910 C.3       9 GLL5        0.0000 
      6 CA          7.5160   34.8010    6.6130 C.3       6 GLP5        0.0000 
      7 CA         15.3565   40.0575    4.6205 C.3       3 GLC5        0.0000 
      8 CA         13.4400   39.3180    5.1710 C.3       9 GLL5        0.0000 
      9 CA         17.2730   40.7970    4.0700 C.3       6 GLP5        0.0000 
     10 CA         13.0535   41.1990    4.7945 C.3       3 GLC5        0.0000 
     11 CA         12.6670   43.0800    4.4180 C.3       6 GLP5        0.0000 
     12 CA         16.3185   39.2605    4.7395 C.3       3 GLC5        0.0000 
     13 CA         15.3640   37.7240    5.4090 C.3       9 GLL5        0.0000 
     14 CA         16.3280   34.6415    6.7460 C.3       3 GLC5        0.0000 
     15 CA         15.9140   36.4480    6.0420 C.3       9 GLL5        0.0000 
     16 CA         16.7420   32.8350    7.4500 C.3       6 GLP5        0.0000 
     17 CA         14.4640   35.0105    5.8775 C.3       3 GLC5        0.0000 
     18 CA         13.0140   33.5730    5.7130 C.3       6 GLP5        0.0000 
     19 NZ         19.6045   36.1495    5.9215 N.4       2 LYC4        0.0000 
     20 NZ         18.3010   36.2560    6.3980 N.4       8 LYL4        0.0000 
     21 NZ         21.1650   35.5140    4.2590 N.4       5 LYP4        0.0000 
     22 N          19.6045   36.1495    5.9215 N.am      1 SEC2        0.0000 
     23 N          18.3010   36.2560    6.3980 N.am      7 SEL2        0.0000 
     24 N          20.9080   36.0430    5.4450 N.am      4 SEP2        0.0000 
     25 NZ         18.8190   35.5935    3.9075 N.4       2 LYC4        0.0000 
     26 NZ         17.4930   35.9010    4.3660 N.4       8 LYL4        0.0000 
     27 N          18.8190   35.5935    3.9075 N.am      1 SEC2        0.0000 
     28 N          17.4930   35.9010    4.3660 N.am      7 SEL2        0.0000 
     29 N          20.1450   35.2860    3.4490 N.am      4 SEP2        0.0000 
     30 N          17.0085   34.8630    3.6575 N.am      1 SEC2        0.0000 
     31 N          16.5240   33.8250    2.9490 N.am      4 SEP2        0.0000 
     32 N           4.4190   38.2790    6.9575 N.am      1 SEC2        0.0000 
     33 N           5.2030   38.2760    5.8970 N.am      7 SEL2        0.0000 
     34 N           3.6350   38.2820    8.0180 N.am      4 SEP2        0.0000 
     35 N           4.5165   35.5090    4.1045 N.am      1 SEC2        0.0000 
     36 N           4.4000   36.8520    4.4020 N.am      7 SEL2        0.0000 
     37 N           4.6330   34.1660    3.8070 N.am      4 SEP2        0.0000 
     38 CA         10.9595   41.8535    4.0785 C.3       3 GLC5        0.0000 
     39 CA          9.2520   40.6270    3.7390 C.3       9 GLL5        0.0000 
     40 CA         10.5940   38.3820    2.0480 C.3       3 GLC5        0.0000 
     41 CA          9.5260   39.9530    2.0640 C.3       9 GLL5        0.0000 
     42 CA          2.7810   38.8065    1.3060 C.3       3 GLC5        0.0000 
     43 CA          4.4070   38.9510    1.5290 C.3       9 GLL5        0.0000 
     44 CA          1.1550   38.6620    1.0830 C.3       6 GLP5        0.0000 
     45 CA          8.5205   41.6342    4.9760 C.3       3 GLC5        0.0000 
     46 CA          7.5680   43.1100    5.6540 C.3       6 GLP5        0.0000 
     47 CA         13.5527   37.0790    4.0194 C.3       3 GLC5        0.0000 
     48 CA         12.5850   35.9620    2.5850 C.3       6 GLP5        0.0000 
     49 CA          8.9045   41.9020    2.2257 C.3       3 GLC5        0.0000 
     50 CA          8.4200   43.5140    1.5500 C.3       6 GLP5        0.0000 
     51 CA          5.1035   40.4645    0.5128 C.3       3 GLC5        0.0000 
     52 CA          5.9850   39.4050    2.2500 C.3       9 GLL5        0.0000 
     53 CA          5.0110   41.7510   -0.8640 C.3       6 GLP5        0.0000 
     54 CA          3.8540   39.7650    3.1368 C.3       3 GLC5        0.0000 
     55 CA          2.5120   40.3520    4.3840 C.3       6 GLP5        0.0000 
@<TRIPOS>BOND
@<TRIPOS>SUBSTRUCTURE
     1 SEC2       22 GROUP        1 X    SEC  0     ROOT SEC X 2
     2 LYC4       19 GROUP        1 X    LYC  0     **** LYC X 4
     3 GLC5        1 GROUP        1 X    GLC  0     **** GLC X 6
     4 SEP2       24 GROUP        1 Y    SEP  0     ROOT SEP Y 9
     5 LYP4       21 GROUP        1 Y    LYP  0     **** LYP Y 11
     6 GLP5        3 GROUP        1 Y    GLP  0     **** GLP Y 13
     7 SEL2       23 GROUP        1 Z    SEL  0     ROOT SEL Z 16
     8 LYL4       20 GROUP        1 Z    LYL  0     **** LYL Z 18
     9 GLL5        2 GROUP        1 Z    GLL  0     **** GLL Z 20
@<TRIPOS>SET

