#    Name: 1qiq_ACC_1_ligand
#    Modification time : Mon Mar 24 23:33:22 2014

@<TRIPOS>MOLECULE
1qiq_ACC_1_ligand
   45    44     1     0     0
SMALL
NO_CHARGES


@<TRIPOS>ATOM
      1 C1          8.9170   38.3830    4.7590 C.2       1 ACC332      0.0000 
      2 N2          7.5820   38.5260    4.7700 N.am      1 ACC332      0.0000 
      3 C3          9.6940   39.6900    4.8570 C.3       1 ACC332      0.0000 
      4 C4          6.7140   37.5380    4.1910 C.3       1 ACC332      0.0000 
      5 C5          6.5550   37.7620    2.6850 C.3       1 ACC332      0.0000 
      6 O6          9.4500   37.3250    4.4980 O.2       1 ACC332      0.0000 
      7 N7         11.1080   39.4660    4.6580 N.am      1 ACC332      0.0000 
      8 C8         12.0170   39.6410    5.5920 C.2       1 ACC332      0.0000 
      9 C9         13.4400   39.3180    5.1710 C.3       1 ACC332      0.0000 
     10 C10        13.9140   38.0180    5.8260 C.3       1 ACC332      0.0000 
     11 C13        15.3640   37.7240    5.4090 C.3       1 ACC332      0.0000 
     12 C16        15.9140   36.4480    6.0420 C.3       1 ACC332      0.0000 
     13 N19        15.9410   36.6370    7.5240 N.4       1 ACC332      0.0000 
     14 C20        17.3680   36.2200    5.6480 C.2       1 ACC332      0.0000 
     15 O21        18.3010   36.2560    6.3980 O.co2     1 ACC332      0.0000 
     16 O22        17.4930   35.9010    4.3660 O.co2     1 ACC332      0.0000 
     17 C23         5.3350   37.4820    4.8240 C.2       1 ACC332      0.0000 
     18 O25         5.2030   38.2760    5.8970 O.co2     1 ACC332      0.0000 
     19 O26         4.4000   36.8520    4.4020 O.co2     1 ACC332      0.0000 
     20 O27        11.7420   40.0220    6.7300 O.2       1 ACC332      0.0000 
     21 C35         9.2520   40.6270    3.7390 C.3       1 ACC332      0.0000 
     22 S37         9.5260   39.9530    2.0640 S.3       1 ACC332      0.0000 
     23 S41         5.9850   39.4050    2.2500 S.3       1 ACC332      0.0000 
     24 C42         4.4070   38.9510    1.5290 C.3       1 ACC332      0.0000 
     25 H           7.1257   39.3575    5.1982 H         1 ACC332      0.0000 
     26 H           9.4990   40.1582    5.7887 H         1 ACC332      0.0000 
     27 H           7.1600   36.5300    4.3009 H         1 ACC332      0.0000 
     28 H           5.8071   37.1237    2.2401 H         1 ACC332      0.0000 
     29 H           7.4864   37.6813    2.1458 H         1 ACC332      0.0000 
     30 H          11.3744   39.1424    3.6836 H         1 ACC332      0.0000 
     31 H          14.1015   40.1288    5.4707 H         1 ACC332      0.0000 
     32 H          13.4836   39.2074    4.0890 H         1 ACC332      0.0000 
     33 H          13.2791   37.2010    5.5063 H         1 ACC332      0.0000 
     34 H          13.8670   38.1192    6.9032 H         1 ACC332      0.0000 
     35 H          15.9946   38.5722    5.7000 H         1 ACC332      0.0000 
     36 H          15.4065   37.6328    4.3174 H         1 ACC332      0.0000 
     37 H          15.3334   35.6189    5.7889 H         1 ACC332      0.0000 
     38 H           9.8078   41.5490    3.7018 H         1 ACC332      0.0000 
     39 H           8.1925   40.8212    3.7304 H         1 ACC332      0.0000 
     40 H          15.6034   37.5401    7.7895 H         1 ACC332      0.0000 
     41 H          15.3733   35.9618    7.9949 H         1 ACC332      0.0000 
     42 H          16.8665   36.5500    7.8927 H         1 ACC332      0.0000 
     43 H           4.5199   38.4865    0.6507 H         1 ACC332      0.0000 
     44 H           3.8912   38.3336    2.1229 H         1 ACC332      0.0000 
     45 H           3.8295   39.7509    1.3655 H         1 ACC332      0.0000 
@<TRIPOS>BOND
     1    2    1 am   
     2    3    1 1    
     3    6    1 2    
     4    4    2 1    
     5   25    2 1    
     6    7    3 1    
     7   21    3 1    
     8   26    3 1    
     9    5    4 1    
    10   17    4 1    
    11   27    4 1    
    12   23    5 1    
    13   28    5 1    
    14   29    5 1    
    15    8    7 am   
    16   30    7 1    
    17    9    8 1    
    18   20    8 2    
    19   10    9 1    
    20   31    9 1    
    21   32    9 1    
    22   11   10 1    
    23   33   10 1    
    24   34   10 1    
    25   12   11 1    
    26   35   11 1    
    27   36   11 1    
    28   13   12 1    
    29   14   12 1    
    30   37   12 1    
    31   40   13 1    
    32   41   13 1    
    33   42   13 1    
    34   15   14 ar   
    35   16   14 ar   
    36   18   17 ar   
    37   19   17 ar   
    38   22   21 1    
    39   38   21 1    
    40   39   21 1    
    41   24   23 1    
    42   43   24 1    
    43   44   24 1    
    44   45   24 1    
@<TRIPOS>SUBSTRUCTURE
     1 ACC332      1 GROUP   
@<TRIPOS>SET

