#    Name: 2pin_4HY_1_INTS_M
#    Modification time : Mon Mar 24 19:01:21 2014

@<TRIPOS>MOLECULE
2pin_4HY_1_INTS_M
   82     0     9     0     0
SMALL
NO_CHARGES


@<TRIPOS>ATOM
      1 CA         47.0110   -3.3125   36.2525 C.3       3 GLC5        0.0000 
      2 CA         46.9420   -1.2520   35.8460 C.3       9 GLL5        0.0000 
      3 CA         47.0800   -5.3730   36.6590 C.3       6 GLP5        0.0000 
      4 CA         43.8170   -1.9705   41.2725 C.3       3 GLC5        0.0000 
      5 CA         44.9460   -0.0990   41.0780 C.3       9 GLL5        0.0000 
      6 CA         42.6880   -3.8420   41.4670 C.3       6 GLP5        0.0000 
      7 CA         42.9250   -0.0985   41.7425 C.3       3 GLC5        0.0000 
      8 CA         40.9040   -0.0980   42.4070 C.3       6 GLP5        0.0000 
      9 CA         47.2655    0.6705   38.0245 C.3       3 GLC5        0.0000 
     10 CA         46.6000   -1.2040   37.2090 C.3       9 GLL5        0.0000 
     11 CA         47.9310    2.5450   38.8400 C.3       6 GLP5        0.0000 
     12 CA         44.3235    0.4040   34.3185 C.3       3 GLC5        0.0000 
     13 CA         44.5860   -1.4930   35.2340 C.3       9 GLL5        0.0000 
     14 CA         44.0610    2.3010   33.4030 C.3       6 GLP5        0.0000 
     15 CA         48.7965   -1.7175   40.6555 C.3       3 GLC5        0.0000 
     16 CA         48.1330   -1.1700   38.6690 C.3       9 GLL5        0.0000 
     17 CA         49.4600   -2.2650   42.6420 C.3       6 GLP5        0.0000 
     18 CA         49.8480   -2.0910   38.7380 C.3       3 GLC5        0.0000 
     19 CA         51.5630   -3.0120   38.8070 C.3       6 GLP5        0.0000 
     20 CA         48.0320    0.6875   38.7545 C.3       3 GLC5        0.0000 
     21 CA         47.1145   -2.9715   38.7660 C.3       3 GLC5        0.0000 
     22 CA         46.0960   -4.7730   38.8630 C.3       6 GLP5        0.0000 
     23 CA         45.9360    1.7355   45.3830 C.3       3 GLC5        0.0000 
     24 CA         45.2010    0.8170   43.9080 C.3       9 GLL5        0.0000 
     25 CA         46.6710    2.6540   46.8580 C.3       6 GLP5        0.0000 
     26 CA         46.6145   -0.5360   43.4735 C.3       3 GLC5        0.0000 
     27 CA         48.0280   -1.8890   43.0390 C.3       6 GLP5        0.0000 
     28 CA         44.5425    2.6405   44.8820 C.3       3 GLC5        0.0000 
     29 CA         43.8840    4.4640   45.8560 C.3       6 GLP5        0.0000 
     30 CA         42.2860   -2.7005   35.5825 C.3       3 GLC5        0.0000 
     31 CA         42.2160   -1.5150   37.2470 C.3       9 GLL5        0.0000 
     32 CA         42.3560   -3.8860   33.9180 C.3       6 GLP5        0.0000 
     33 CA         43.4050   -3.3495   37.0795 C.3       3 GLC5        0.0000 
     34 CA         44.5940   -5.1840   36.9120 C.3       6 GLP5        0.0000 
     35 CA         41.4850   -1.1980   39.1800 C.3       3 GLC5        0.0000 
     36 CA         40.7540   -0.8810   41.1130 C.3       6 GLP5        0.0000 
     37 CA         40.4410   -1.2480   37.5170 C.3       3 GLC5        0.0000 
     38 CA         38.6660   -0.9810   37.7870 C.3       6 GLP5        0.0000 
     39 NZ         45.6640   -4.6530   32.1420 N.4       2 LYC4        0.0000 
     40 NZ         45.6830   -3.7850   33.2700 N.4       8 LYL4        0.0000 
     41 NZ         46.4540   -5.7710   29.9950 N.4       5 LYP4        0.0000 
     42 N          45.6640   -4.6530   32.1420 N.am      1 SEC2        0.0000 
     43 N          45.6830   -3.7850   33.2700 N.am      7 SEL2        0.0000 
     44 N          45.6450   -5.5210   31.0140 N.am      4 SEP2        0.0000 
     45 N          47.0335   -4.3745   33.4360 N.am      1 SEC2        0.0000 
     46 N          48.3840   -4.9640   33.6020 N.am      4 SEP2        0.0000 
     47 N          43.2805    4.1850   41.5215 N.am      1 SEC2        0.0000 
     48 N          44.1550    3.3360   42.2030 N.am      7 SEL2        0.0000 
     49 N          42.4060    5.0340   40.8400 N.am      4 SEP2        0.0000 
     50 NZ         46.3115   -4.2210   31.3360 N.4       2 LYC4        0.0000 
     51 NZ         46.9780   -2.9210   31.6580 N.4       8 LYL4        0.0000 
     52 N          46.3115   -4.2210   31.3360 N.am      1 SEC2        0.0000 
     53 N          46.9780   -2.9210   31.6580 N.am      7 SEL2        0.0000 
     54 N          47.1070   -3.8660   30.5905 N.am      1 SEC2        0.0000 
     55 N          47.2360   -4.8110   29.5230 N.am      4 SEP2        0.0000 
     56 N          47.6810   -3.9425   32.6300 N.am      1 SEC2        0.0000 
     57 CA         45.8102    0.5940   33.7007 C.3       3 GLC5        0.0000 
     58 CA         45.8940   -1.3960   34.8530 C.3       9 GLL5        0.0000 
     59 CA         45.5510    2.5960   33.2760 C.3       6 GLP5        0.0000 
     60 CA         46.1900    1.5608   39.1373 C.3       3 GLC5        0.0000 
     61 CA         44.6800   -0.0320   39.7260 C.3       9 GLL5        0.0000 
     62 CA         42.6015   -0.1522   40.2737 C.3       3 GLC5        0.0000 
     63 CA         44.2180    1.1850   39.1430 C.3       9 GLL5        0.0000 
     64 CA         46.4465   -0.7212   42.2648 C.3       3 GLC5        0.0000 
     65 CA         46.0132   -3.0120   38.1437 C.3       3 GLC5        0.0000 
     66 CA         45.2610   -1.2980   37.6400 C.3       9 GLL5        0.0000 
     67 CA         46.0015    0.7815   36.5459 C.3       3 GLC5        0.0000 
     68 CA         45.9870    2.8260   36.0080 C.3       6 GLP5        0.0000 
     69 CA         46.0553    2.4115   39.7490 C.3       3 GLC5        0.0000 
     70 CA         44.0390    2.3250   39.9630 C.3       9 GLL5        0.0000 
     71 CA         42.6368    3.4575   40.7930 C.3       3 GLC5        0.0000 
     72 CA         41.0940    4.6370   40.9280 C.3       6 GLP5        0.0000 
     73 CA         43.5490   -2.6659   34.8799 C.3       3 GLC5        0.0000 
     74 CA         44.2440   -1.4470   36.6400 C.3       9 GLL5        0.0000 
     75 CA         44.5045   -3.3270   36.4245 C.3       3 GLC5        0.0000 
     76 CA         42.3198    2.1885   38.8710 C.3       3 GLC5        0.0000 
     77 CA         40.5110    2.6220   38.1890 C.3       6 GLP5        0.0000 
     78 CA         45.0578    2.2905   37.7805 C.3       3 GLC5        0.0000 
     79 CA         42.5352    1.6796   41.4657 C.3       3 GLC5        0.0000 
     80 CA         40.7750    1.3910   42.1360 C.3       6 GLP5        0.0000 
     81 CA         47.8402   -0.1725   34.1494 C.3       3 GLC5        0.0000 
     82 CA         49.3490    1.0270   33.9250 C.3       6 GLP5        0.0000 
@<TRIPOS>BOND
@<TRIPOS>SUBSTRUCTURE
     1 SEC2       42 GROUP        1 X    SEC  0     ROOT SEC X 2
     2 LYC4       39 GROUP        1 X    LYC  0     **** LYC X 4
     3 GLC5        1 GROUP        1 X    GLC  0     **** GLC X 6
     4 SEP2       44 GROUP        1 Y    SEP  0     ROOT SEP Y 9
     5 LYP4       41 GROUP        1 Y    LYP  0     **** LYP Y 11
     6 GLP5        3 GROUP        1 Y    GLP  0     **** GLP Y 13
     7 SEL2       43 GROUP        1 Z    SEL  0     ROOT SEL Z 16
     8 LYL4       40 GROUP        1 Z    LYL  0     **** LYL Z 18
     9 GLL5        2 GROUP        1 Z    GLL  0     **** GLL Z 20
@<TRIPOS>SET

