#    Name: 2pin_4HY_1_ligand
#    Modification time : Mon Mar 24 19:01:21 2014

@<TRIPOS>MOLECULE
2pin_4HY_1_ligand
   29    30     1     0     0
SMALL
NO_CHARGES


@<TRIPOS>ATOM
      1 C1         45.8940   -1.3960   34.8530 C.ar      1 4HY500      0.0000 
      2 C2         44.6800   -0.0320   39.7260 C.ar      1 4HY500      0.0000 
      3 C3         46.9420   -1.2520   35.8460 C.ar      1 4HY500      0.0000 
      4 C4         44.9460   -0.0990   41.0780 C.ar      1 4HY500      0.0000 
      5 C5         46.6000   -1.2040   37.2090 C.ar      1 4HY500      0.0000 
      6 C6         44.7840    0.9920   41.9030 C.ar      1 4HY500      0.0000 
      7 C7         45.2610   -1.2980   37.6400 C.ar      1 4HY500      0.0000 
      8 C8         44.3200    2.2310   41.3530 C.ar      1 4HY500      0.0000 
      9 C9         44.2440   -1.4470   36.6400 C.ar      1 4HY500      0.0000 
     10 C10        44.0390    2.3250   39.9630 C.ar      1 4HY500      0.0000 
     11 C11        44.5860   -1.4930   35.2340 C.ar      1 4HY500      0.0000 
     12 C12        44.2180    1.1850   39.1430 C.ar      1 4HY500      0.0000 
     13 C13        46.2450   -1.4200   33.3980 C.3       1 4HY500      0.0000 
     14 C14        46.3060   -2.8400   32.7160 C.2       1 4HY500      0.0000 
     15 I1         48.1330   -1.1700   38.6690 I         1 4HY500      0.0000 
     16 I2         45.2010    0.8170   43.9080 I         1 4HY500      0.0000 
     17 I3         42.2160   -1.5150   37.2470 I         1 4HY500      0.0000 
     18 O3         45.6830   -3.7850   33.2700 O.co2     1 4HY500      0.0000 
     19 O2         44.8790   -1.2320   38.9940 O.3       1 4HY500      0.0000 
     20 O1         44.1550    3.3360   42.2030 O.3       1 4HY500      0.0000 
     21 O4         46.9780   -2.9210   31.6580 O.co2     1 4HY500      0.0000 
     22 H          47.9042   -1.1884   35.5401 H         1 4HY500      0.0000 
     23 H          45.2789   -1.0010   41.4858 H         1 4HY500      0.0000 
     24 H          43.7144    3.1991   39.5659 H         1 4HY500      0.0000 
     25 H          43.8268   -1.5982   34.5593 H         1 4HY500      0.0000 
     26 H          44.0208    1.2284   38.1493 H         1 4HY500      0.0000 
     27 H          47.2338   -0.9385   33.2354 H         1 4HY500      0.0000 
     28 H          45.5161   -0.8123   32.8190 H         1 4HY500      0.0000 
     29 H          45.0489    3.4688   42.6311 H         1 4HY500      0.0000 
@<TRIPOS>BOND
     1    3    1 ar   
     2   11    1 ar   
     3   13    1 1    
     4    4    2 ar   
     5   12    2 ar   
     6   19    2 1    
     7    5    3 ar   
     8   22    3 1    
     9    6    4 ar   
    10   23    4 1    
    11    7    5 ar   
    12   15    5 1    
    13    8    6 ar   
    14   16    6 1    
    15    9    7 ar   
    16   19    7 1    
    17   10    8 ar   
    18   20    8 1    
    19   11    9 ar   
    20   17    9 1    
    21   12   10 ar   
    22   24   10 1    
    23   25   11 1    
    24   26   12 1    
    25   14   13 1    
    26   27   13 1    
    27   28   13 1    
    28   18   14 ar   
    29   21   14 ar   
    30   29   20 1    
@<TRIPOS>SUBSTRUCTURE
     1 4HY500      1 GROUP   
@<TRIPOS>SET

