#    Name: 2vcm_M11_1_INTS_M
#    Modification time : Tue Mar 25 01:30:26 2014

@<TRIPOS>MOLECULE
2vcm_M11_1_INTS_M
   61     0     9     0     0
SMALL
NO_CHARGES


@<TRIPOS>ATOM
      1 N          12.9455   -7.1125   10.1050 N.am      1 SEC2        0.0000 
      2 N          12.3860   -6.4250    9.0180 N.am      7 SEL2        0.0000 
      3 N          13.5050   -7.8000   11.1920 N.am      4 SEP2        0.0000 
      4 N          15.0995   -5.2940    7.1590 N.am      1 SEC2        0.0000 
      5 N          14.1460   -6.1450    7.6630 N.am      7 SEL2        0.0000 
      6 N          16.0530   -4.4430    6.6550 N.am      4 SEP2        0.0000 
      7 CA         12.8050   -3.9670    8.2550 C.3       3 GLC5        0.0000 
      8 CA         11.9010   -5.3560    6.9620 C.3       9 GLL5        0.0000 
      9 CA         13.7090   -2.5780    9.5480 C.3       6 GLP5        0.0000 
     10 CA          8.8550   -2.7315    5.2130 C.3       3 GLC5        0.0000 
     11 CA          8.3240   -4.4770    5.2370 C.3       9 GLL5        0.0000 
     12 CA          9.3860   -0.9860    5.1890 C.3       6 GLP5        0.0000 
     13 CA          6.5000   -6.7275    6.0925 C.3       3 GLC5        0.0000 
     14 CA          6.8650   -5.8790    7.3850 C.3       9 GLL5        0.0000 
     15 CA          6.1350   -7.5760    4.8000 C.3       6 GLP5        0.0000 
     16 CA          4.4495    0.0500    7.8920 C.3       3 GLC5        0.0000 
     17 CA          6.3150   -1.0110    8.2760 C.3       9 GLL5        0.0000 
     18 CA          2.5840    1.1110    7.5080 C.3       6 GLP5        0.0000 
     19 CA          4.8860   -2.2775    7.7910 C.3       3 GLC5        0.0000 
     20 CA          3.4570   -3.5440    7.3060 C.3       6 GLP5        0.0000 
     21 CA          9.0240    1.1820    8.8605 C.3       3 GLC5        0.0000 
     22 CA          7.0460    0.1380    8.9380 C.3       9 GLL5        0.0000 
     23 CA         11.0020    2.2260    8.7830 C.3       6 GLP5        0.0000 
     24 CA          4.4730    1.2665    8.0100 C.3       3 GLC5        0.0000 
     25 CA          6.3620    1.4220    8.5120 C.3       9 GLL5        0.0000 
     26 CA          8.0550    4.0780    9.8380 C.3       3 GLC5        0.0000 
     27 CA          6.9310    2.6500    9.1870 C.3       9 GLL5        0.0000 
     28 CA          9.1790    5.5060   10.4890 C.3       6 GLP5        0.0000 
     29 CA          8.9665    2.4380    8.9850 C.3       3 GLC5        0.0000 
     30 NZ          5.5105    5.2875    7.0155 N.4       2 LYC4        0.0000 
     31 NZ          6.1410    4.0610    7.4260 N.4       8 LYL4        0.0000 
     32 NZ          4.0710    7.1200    7.4720 N.4       5 LYP4        0.0000 
     33 N           5.5105    5.2875    7.0155 N.am      1 SEC2        0.0000 
     34 N           6.1410    4.0610    7.4260 N.am      7 SEL2        0.0000 
     35 N           4.8800    6.5140    6.6050 N.am      4 SEP2        0.0000 
     36 N           7.2215    4.3560    6.6990 N.am      1 SEC2        0.0000 
     37 N           8.3020    4.6510    5.9720 N.am      4 SEP2        0.0000 
     38 NZ          4.5800    5.4770    9.0910 N.4       2 LYC4        0.0000 
     39 NZ          5.2770    4.3470    9.4730 N.4       8 LYL4        0.0000 
     40 N           4.5800    5.4770    9.0910 N.am      1 SEC2        0.0000 
     41 N           5.2770    4.3470    9.4730 N.am      7 SEL2        0.0000 
     42 N           3.8830    6.6070    8.7090 N.am      4 SEP2        0.0000 
     43 CA         12.3475   -8.4420    4.5950 C.3       3 GLC5        0.0000 
     44 CA         10.6890   -7.0830    5.1480 C.3       9 GLL5        0.0000 
     45 CA         14.0060   -9.8010    4.0420 C.3       6 GLP5        0.0000 
     46 CA         10.1460   -8.0460    3.7735 C.3       3 GLC5        0.0000 
     47 CA          9.6030   -9.0090    2.3990 C.3       6 GLP5        0.0000 
     48 CA         11.6110   -8.4930    6.2890 C.3       3 GLC5        0.0000 
     49 CA         12.5330   -9.9030    7.4300 C.3       6 GLP5        0.0000 
     50 CA         14.2305   -5.5820    3.4845 C.3       3 GLC5        0.0000 
     51 CA         13.0440   -6.1960    4.7770 C.3       9 GLL5        0.0000 
     52 CA         15.4170   -4.9680    2.1920 C.3       6 GLP5        0.0000 
     53 CA         13.5250   -7.9985    4.4095 C.3       3 GLC5        0.0000 
     54 CA          8.6843   -2.6585    6.3082 C.3       3 GLC5        0.0000 
     55 CA          7.5250   -4.6050    6.8850 C.3       9 GLL5        0.0000 
     56 CA          7.0297   -6.0585    5.4305 C.3       3 GLC5        0.0000 
     57 CA          7.2329   -6.5955    8.2781 C.3       3 GLC5        0.0000 
     58 CA          7.0420   -8.0860    9.1500 C.3       6 GLP5        0.0000 
     59 CA          5.3260   -4.3930    7.2205 C.3       3 GLC5        0.0000 
     60 CA          7.9901    0.3999    7.1572 C.3       3 GLC5        0.0000 
     61 CA          9.4590    0.3070    5.7550 C.3       6 GLP5        0.0000 
@<TRIPOS>BOND
@<TRIPOS>SUBSTRUCTURE
     1 SEC2        1 GROUP        1 X    SEC  0     ROOT SEC X 2
     2 LYC4       30 GROUP        1 X    LYC  0     **** LYC X 4
     3 GLC5        7 GROUP        1 X    GLC  0     **** GLC X 6
     4 SEP2        3 GROUP        1 Y    SEP  0     ROOT SEP Y 9
     5 LYP4       32 GROUP        1 Y    LYP  0     **** LYP Y 11
     6 GLP5        9 GROUP        1 Y    GLP  0     **** GLP Y 13
     7 SEL2        2 GROUP        1 Z    SEL  0     ROOT SEL Z 16
     8 LYL4       31 GROUP        1 Z    LYL  0     **** LYL Z 18
     9 GLL5        8 GROUP        1 Z    GLL  0     **** GLL Z 20
@<TRIPOS>SET

