#    Name: 2vcm_M11_1_ligand
#    Modification time : Tue Mar 25 01:30:26 2014

@<TRIPOS>MOLECULE
2vcm_M11_1_ligand
   49    48     1     0     0
SMALL
NO_CHARGES


@<TRIPOS>ATOM
      1 O43        12.3860   -6.4250    9.0180 O.co2     1 M111333     0.0000 
      2 C31        12.8960   -6.0300    7.9240 C.2       1 M111333     0.0000 
      3 O42        14.1460   -6.1450    7.6630 O.co2     1 M111333     0.0000 
      4 C30        11.9010   -5.3560    6.9620 C.3       1 M111333     0.0000 
      5 O29        10.6000   -5.2970    7.6360 O.3       1 M111333     0.0000 
      6 C13         9.9260   -4.0210    7.7250 C.2       1 M111333     0.0000 
      7 O18        10.5590   -2.9320    7.6290 O.2       1 M111333     0.0000 
      8 C12         8.4400   -4.0570    7.9700 C.3       1 M111333     0.0000 
      9 S17         8.3240   -4.4770    5.2370 S.3       1 M111333     0.0000 
     10 C25         6.8650   -5.8790    7.3850 C.3       1 M111333     0.0000 
     11 N11         7.7230   -2.8100    7.7600 N.am      1 M111333     0.0000 
     12 C10         7.0330   -2.2500    8.7250 C.2       1 M111333     0.0000 
     13 O15         7.0330   -2.6920    9.8820 O.2       1 M111333     0.0000 
     14 C7          6.3150   -1.0110    8.2760 C.3       1 M111333     0.0000 
     15 C4          7.0460    0.1380    8.9380 C.3       1 M111333     0.0000 
     16 C3          6.3620    1.4220    8.5120 C.3       1 M111333     0.0000 
     17 C2          6.9310    2.6500    9.1870 C.3       1 M111333     0.0000 
     18 N14         6.8740    2.5760   10.6480 N.4       1 M111333     0.0000 
     19 C1          6.0780    3.7720    8.6780 C.2       1 M111333     0.0000 
     20 O20         6.1410    4.0610    7.4260 O.co2     1 M111333     0.0000 
     21 O19         5.2770    4.3470    9.4730 O.co2     1 M111333     0.0000 
     22 C32        11.7070   -5.9270    5.4850 C.3       1 M111333     0.0000 
     23 C37        10.6890   -7.0830    5.1480 C.3       1 M111333     0.0000 
     24 C33        13.0440   -6.1960    4.7770 C.3       1 M111333     0.0000 
     25 CAV         7.5250   -4.6050    6.8850 C.3       1 M111333     0.0000 
     26 H          12.2366   -4.2914    6.8364 H         1 M111333     0.0000 
     27 H           8.1210   -4.4687    8.8725 H         1 M111333     0.0000 
     28 H           7.7967   -2.4022    6.8042 H         1 M111333     0.0000 
     29 H           5.2980   -1.0313    8.6110 H         1 M111333     0.0000 
     30 H           6.3784   -0.9123    7.2115 H         1 M111333     0.0000 
     31 H           8.0739    0.1502    8.6132 H         1 M111333     0.0000 
     32 H           6.9892    0.0357   10.0097 H         1 M111333     0.0000 
     33 H           5.2867    1.3492    8.7398 H         1 M111333     0.0000 
     34 H           6.4546    1.5335    7.4200 H         1 M111333     0.0000 
     35 H           7.9302    2.7993    8.8318 H         1 M111333     0.0000 
     36 H          11.2895   -5.0067    4.8798 H         1 M111333     0.0000 
     37 H           6.7050   -3.8012    6.7726 H         1 M111333     0.0000 
     38 H           7.5389   -6.5826    7.6105 H         1 M111333     0.0000 
     39 H           6.3228   -5.7174    8.2096 H         1 M111333     0.0000 
     40 H           6.2493   -6.2712    6.7016 H         1 M111333     0.0000 
     41 H           7.3910    1.7961   11.0008 H         1 M111333     0.0000 
     42 H           7.2524    3.3965   11.0765 H         1 M111333     0.0000 
     43 H           5.9352    2.4790   10.9786 H         1 M111333     0.0000 
     44 H          10.6990   -7.3148    4.1753 H         1 M111333     0.0000 
     45 H          10.8990   -7.9212    5.6513 H         1 M111333     0.0000 
     46 H           9.7497   -6.8298    5.3793 H         1 M111333     0.0000 
     47 H          13.5945   -5.3652    4.6949 H         1 M111333     0.0000 
     48 H          13.5974   -6.8668    5.2708 H         1 M111333     0.0000 
     49 H          12.9095   -6.5511    3.8519 H         1 M111333     0.0000 
@<TRIPOS>BOND
     1    2    1 ar   
     2    3    2 ar   
     3    4    2 1    
     4    5    4 1    
     5   22    4 1    
     6   26    4 1    
     7    6    5 1    
     8    7    6 2    
     9    8    6 1    
    10   11    8 1    
    11   25    8 1    
    12   27    8 1    
    13   25    9 1    
    14   25   10 1    
    15   38   10 1    
    16   39   10 1    
    17   40   10 1    
    18   12   11 am   
    19   28   11 1    
    20   13   12 2    
    21   14   12 1    
    22   15   14 1    
    23   29   14 1    
    24   30   14 1    
    25   16   15 1    
    26   31   15 1    
    27   32   15 1    
    28   17   16 1    
    29   33   16 1    
    30   34   16 1    
    31   18   17 1    
    32   19   17 1    
    33   35   17 1    
    34   41   18 1    
    35   42   18 1    
    36   43   18 1    
    37   20   19 ar   
    38   21   19 ar   
    39   23   22 1    
    40   24   22 1    
    41   36   22 1    
    42   44   23 1    
    43   45   23 1    
    44   46   23 1    
    45   47   24 1    
    46   48   24 1    
    47   49   24 1    
    48   37   25 1    
@<TRIPOS>SUBSTRUCTURE
     1 M111333     1 GROUP   
@<TRIPOS>SET

