#    Name: 1yxu_AMP_5_INTS_M
#    Modification time : Tue Mar 25 11:19:41 2014

@<TRIPOS>MOLECULE
1yxu_AMP_5_INTS_M
   44     0     6     0     0
SMALL
NO_CHARGES


@<TRIPOS>ATOM
      1 N          14.3120   90.8515   23.2695 N.am      1 SEC2        0.0000 
      2 N          13.3700   90.6090   22.0640 N.am      5 SEL2        0.0000 
      3 N          15.2540   91.0940   24.4750 N.am      3 SEP2        0.0000 
      4 CA         12.9605   87.8325   23.5665 C.3       2 GLC5        0.0000 
      5 CA         11.2130   88.4060   24.3620 C.3       6 GLL5        0.0000 
      6 CA         14.7080   87.2590   22.7710 C.3       4 GLP5        0.0000 
      7 CA         11.2715   86.2665   24.2805 C.3       2 GLC5        0.0000 
      8 CA         11.3300   84.1270   24.1990 C.3       4 GLP5        0.0000 
      9 CA         13.1280   86.9100   26.9555 C.3       2 GLC5        0.0000 
     10 CA         11.5930   87.5770   26.6710 C.3       6 GLL5        0.0000 
     11 CA         14.6630   86.2430   27.2400 C.3       4 GLP5        0.0000 
     12 CA         12.2365   89.6970   26.9700 C.3       2 GLC5        0.0000 
     13 CA         12.8800   91.8170   27.2690 C.3       4 GLP5        0.0000 
     14 N          13.3800   87.9460   27.6360 N.am      1 SEC2        0.0000 
     15 N          12.1610   88.1850   27.8010 N.am      5 SEL2        0.0000 
     16 N          14.5990   87.7070   27.4710 N.am      3 SEP2        0.0000 
     17 CA         12.0770   86.0735   27.5590 C.3       2 GLC5        0.0000 
     18 CA         10.3550   86.7300   26.9530 C.3       6 GLL5        0.0000 
     19 CA         13.7990   85.4170   28.1650 C.3       4 GLP5        0.0000 
     20 CA          8.2210   89.4670   27.1715 C.3       2 GLC5        0.0000 
     21 CA          9.2220   87.7350   27.0890 C.3       6 GLL5        0.0000 
     22 CA          7.2200   91.1990   27.2540 C.3       4 GLP5        0.0000 
     23 CA          6.2925   84.9040   26.4960 C.3       2 GLC5        0.0000 
     24 CA          6.3230   86.5180   25.1690 C.3       6 GLL5        0.0000 
     25 CA          6.2620   83.2900   27.8230 C.3       4 GLP5        0.0000 
     26 CA          5.7750   84.3050   23.5910 C.3       2 GLC5        0.0000 
     27 CA          5.8220   86.1260   23.9290 C.3       6 GLL5        0.0000 
     28 CA          5.7280   82.4840   23.2530 C.3       4 GLP5        0.0000 
     29 CA          8.5985   84.9500   24.0940 C.3       2 GLC5        0.0000 
     30 CA          7.9780   86.5690   22.8850 C.3       6 GLL5        0.0000 
     31 CA          9.2190   83.3310   25.3030 C.3       4 GLP5        0.0000 
     32 CA          8.0610   88.8770   24.7705 C.3       2 GLC5        0.0000 
     33 CA          7.6660   86.9270   25.2460 C.3       6 GLL5        0.0000 
     34 CA          8.4560   90.8270   24.2950 C.3       4 GLP5        0.0000 
     35 CA          9.7920   89.6893   24.7033 C.3       2 GLC5        0.0000 
     36 CA         11.0430   88.6970   25.8610 C.3       6 GLL5        0.0000 
     37 CA         12.1910   90.1282   25.4453 C.3       2 GLC5        0.0000 
     38 CA         13.2540   91.7050   25.7790 C.3       4 GLP5        0.0000 
     39 CA         11.1520   85.6403   25.5055 C.3       2 GLC5        0.0000 
     40 CA          9.8168   86.5898   28.7760 C.3       2 GLC5        0.0000 
     41 CA          9.8450   85.9470   30.5310 C.3       4 GLP5        0.0000 
     42 CA          8.1067   85.0267   25.2553 C.3       2 GLC5        0.0000 
     43 CA          5.5606   88.2007   25.0778 C.3       2 GLC5        0.0000 
     44 CA          4.2520   89.7770   25.2580 C.3       4 GLP5        0.0000 
@<TRIPOS>BOND
@<TRIPOS>SUBSTRUCTURE
     1 SEC2        1 GROUP        1 X    SEC  0     ROOT SEC X 2
     2 GLC5        4 GROUP        1 X    GLC  0     **** GLC X 6
     3 SEP2        3 GROUP        1 Y    SEP  0     ROOT SEP Y 9
     4 GLP5        6 GROUP        1 Y    GLP  0     **** GLP Y 13
     5 SEL2        2 GROUP        1 Z    SEL  0     ROOT SEL Z 16
     6 GLL5        5 GROUP        1 Z    GLL  0     **** GLL Z 20
@<TRIPOS>SET

