#    Name: 1yxu_AMP_5_ligand
#    Modification time : Tue Mar 25 11:19:41 2014

@<TRIPOS>MOLECULE
1yxu_AMP_5_ligand
   35    37     1     0     0
SMALL
NO_CHARGES


@<TRIPOS>ATOM
      1 P          12.0270   90.0790   22.4690 P.3       1 AMP550      0.0000 
      2 O1P        13.3700   90.6090   22.0640 O.co2     1 AMP550      0.0000 
      3 O2P        11.3540   89.1530   21.4090 O.co2     1 AMP550      0.0000 
      4 O3P        11.0840   91.2940   22.6890 O.co2     1 AMP550      0.0000 
      5 O5'        12.2410   89.2310   23.8400 O.3       1 AMP550      0.0000 
      6 C5'        11.2130   88.4060   24.3620 C.3       1 AMP550      0.0000 
      7 C4'        11.0430   88.6970   25.8610 C.3       1 AMP550      0.0000 
      8 O4'         9.6910   88.8200   26.3050 O.3       1 AMP550      0.0000 
      9 C3'        11.5930   87.5770   26.6710 C.3       1 AMP550      0.0000 
     10 O3'        12.1610   88.1850   27.8010 O.3       1 AMP550      0.0000 
     11 C2'        10.3550   86.7300   26.9530 C.3       1 AMP550      0.0000 
     12 O2'        10.5120   85.9250   28.1000 O.3       1 AMP550      0.0000 
     13 C1'         9.2220   87.7350   27.0890 C.3       1 AMP550      0.0000 
     14 N9          7.9150   87.2450   26.5710 N.pl3     1 AMP550      0.0000 
     15 C8          6.7310   87.0480   27.2720 C.2       1 AMP550      0.0000 
     16 N7          5.7670   86.6050   26.4090 N.2       1 AMP550      0.0000 
     17 C5          6.3230   86.5180   25.1690 C.ar      1 AMP550      0.0000 
     18 C6          5.8220   86.1260   23.9290 C.ar      1 AMP550      0.0000 
     19 N6          4.5500   85.7450   23.8300 N.pl3     1 AMP550      0.0000 
     20 N1          6.6480   86.1580   22.8020 N.ar      1 AMP550      0.0000 
     21 C2          7.9780   86.5690   22.8850 C.ar      1 AMP550      0.0000 
     22 N3          8.4750   86.9460   24.1270 N.ar      1 AMP550      0.0000 
     23 C4          7.6660   86.9270   25.2460 C.ar      1 AMP550      0.0000 
     24 H          11.4443   87.3412   24.2589 H         1 AMP550      0.0000 
     25 H          10.2480   88.5923   23.8804 H         1 AMP550      0.0000 
     26 H          11.6092   89.5880   26.1101 H         1 AMP550      0.0000 
     27 H          12.2645   87.0345   26.0754 H         1 AMP550      0.0000 
     28 H          10.1613   86.1505   26.0555 H         1 AMP550      0.0000 
     29 H           9.1527   88.0197   28.1157 H         1 AMP550      0.0000 
     30 H           6.6205   87.2020   28.2122 H         1 AMP550      0.0000 
     31 H           4.2569   85.4192   22.9311 H         1 AMP550      0.0000 
     32 H           4.0024   85.8190   24.6634 H         1 AMP550      0.0000 
     33 H           8.5669   86.5915   22.0575 H         1 AMP550      0.0000 
     34 H          11.6468   89.0338   27.9240 H         1 AMP550      0.0000 
     35 H          11.2257   86.3754   28.6365 H         1 AMP550      0.0000 
@<TRIPOS>BOND
     1    2    1 ar   
     2    3    1 ar   
     3    4    1 ar   
     4    5    1 1    
     5    6    5 1    
     6    7    6 1    
     7   24    6 1    
     8   25    6 1    
     9    8    7 1    
    10    9    7 1    
    11   26    7 1    
    12   13    8 1    
    13   10    9 1    
    14   11    9 1    
    15   27    9 1    
    16   34   10 1    
    17   12   11 1    
    18   13   11 1    
    19   28   11 1    
    20   35   12 1    
    21   14   13 1    
    22   29   13 1    
    23   15   14 1    
    24   23   14 1    
    25   16   15 2    
    26   30   15 1    
    27   17   16 1    
    28   18   17 ar   
    29   23   17 ar   
    30   19   18 1    
    31   20   18 ar   
    32   31   19 1    
    33   32   19 1    
    34   21   20 ar   
    35   22   21 ar   
    36   33   21 1    
    37   23   22 ar   
@<TRIPOS>SUBSTRUCTURE
     1 AMP550      1 GROUP   
@<TRIPOS>SET

