#    Name: 3gc0_AMP_1_INTS_M
#    Modification time : Tue Mar 25 07:26:52 2014

@<TRIPOS>MOLECULE
3gc0_AMP_1_INTS_M
   42     0     9     0     0
SMALL
NO_CHARGES


@<TRIPOS>ATOM
      1 CA          1.2050    4.1235   -1.8465 C.3       3 GLC5        0.0000 
      2 CA          1.6020    5.6890   -3.0710 C.3       9 GLL5        0.0000 
      3 CA          0.8080    2.5580   -0.6220 C.3       6 GLP5        0.0000 
      4 CA          2.5170    3.9030   -3.3980 C.3       3 GLC5        0.0000 
      5 CA          3.4320    2.1170   -3.7250 C.3       6 GLP5        0.0000 
      6 CA          4.6180    7.0820   -4.3240 C.3       3 GLC5        0.0000 
      7 CA          2.5070    6.6570   -3.8270 C.3       9 GLL5        0.0000 
      8 CA          6.7290    7.5070   -4.8210 C.3       6 GLP5        0.0000 
      9 CA          3.5570    4.8320   -4.0075 C.3       3 GLC5        0.0000 
     10 CA          4.6070    3.0070   -4.1880 C.3       6 GLP5        0.0000 
     11 CA          4.3835    7.0620   -6.7120 C.3       3 GLC5        0.0000 
     12 CA          2.3780    6.9320   -6.1700 C.3       9 GLL5        0.0000 
     13 CA          6.3890    7.1920   -7.2540 C.3       6 GLP5        0.0000 
     14 CA          3.4850    5.0570   -5.9420 C.3       3 GLC5        0.0000 
     15 CA          4.5920    3.1820   -5.7140 C.3       6 GLP5        0.0000 
     16 N           0.5630    2.8040   -7.8230 N.am      2 SEC2        0.0000 
     17 N           1.0690    4.1950   -8.2720 N.am      8 SEL2        0.0000 
     18 N           0.0570    1.4130   -7.3740 N.am      5 SEP2        0.0000 
     19 CA          1.6645    2.9320   -8.3660 C.3       3 GLC5        0.0000 
     20 CA          1.8540    4.8580   -9.1610 C.3       9 GLL5        0.0000 
     21 CA          1.4750    1.0060   -7.5710 C.3       6 GLP5        0.0000 
     22 CA          3.3325    4.8365  -12.4865 C.3       3 GLC5        0.0000 
     23 CA          2.2260    4.7190  -10.5850 C.3       9 GLL5        0.0000 
     24 CA          4.4390    4.9540  -14.3880 C.3       6 GLP5        0.0000 
     25 O           2.2620    3.2320  -12.5970 O.2       1 ALC1        0.0000 
     26 O           1.7600    3.6890  -11.3250 O.2       7 ALL1        0.0000 
     27 O           2.7640    2.7750  -13.8690 O.2       4 ALP1        0.0000 
     28 N           2.9395    6.2025  -12.5910 N.am      2 SEC2        0.0000 
     29 N           3.0520    5.6400  -11.1300 N.am      8 SEL2        0.0000 
     30 N           2.8270    6.7650  -14.0520 N.am      5 SEP2        0.0000 
     31 CA          4.9535    6.9335   -8.8320 C.3       3 GLC5        0.0000 
     32 CA          3.5180    6.6750  -10.4100 C.3       9 GLL5        0.0000 
     33 CA          4.3290    4.6495  -10.4590 C.3       3 GLC5        0.0000 
     34 CA          5.1400    2.6240  -10.5080 C.3       6 GLP5        0.0000 
     35 CA          3.9785    5.8145  -12.3990 C.3       3 GLC5        0.0000 
     36 CA          2.7610    7.2945  -12.4130 C.3       3 GLC5        0.0000 
     37 CA          2.0040    7.9140  -14.4160 C.3       6 GLP5        0.0000 
     38 CA          4.4055    6.6030   -7.8570 C.3       3 GLC5        0.0000 
     39 CA          2.4220    6.0140   -8.4600 C.3       9 GLL5        0.0000 
     40 CA          3.5900    3.7062  -10.1905 C.3       3 GLC5        0.0000 
     41 CA          0.4945    5.0643  -10.5755 C.3       3 GLC5        0.0000 
     42 CA         -1.0510    5.3400  -11.2780 C.3       6 GLP5        0.0000 
@<TRIPOS>BOND
@<TRIPOS>SUBSTRUCTURE
     1 ALC1       25 GROUP        1 X    ALC  0     ROOT ALC X 1
     2 SEC2       16 GROUP        1 X    SEC  0     **** SEC X 2
     3 GLC5        1 GROUP        1 X    GLC  0     **** GLC X 6
     4 ALP1       27 GROUP        1 Y    ALP  0     ROOT ALP Y 8
     5 SEP2       18 GROUP        1 Y    SEP  0     **** SEP Y 9
     6 GLP5        3 GROUP        1 Y    GLP  0     **** GLP Y 13
     7 ALL1       26 GROUP        1 Z    ALL  0     ROOT ALL Z 15
     8 SEL2       17 GROUP        1 Z    SEL  0     **** SEL Z 16
     9 GLL5        2 GROUP        1 Z    GLL  0     **** GLL Z 20
@<TRIPOS>SET

