#    Name: 3gc0_AMP_1_ligand
#    Modification time : Tue Mar 25 07:26:52 2014

@<TRIPOS>MOLECULE
3gc0_AMP_1_ligand
   35    37     1     0     0
SMALL
NO_CHARGES


@<TRIPOS>ATOM
      1 P          -0.9740    5.0280   -3.3090 P.3       1 AMP309      0.0000 
      2 O1P        -1.1470    3.5530   -3.5830 O.co2     1 AMP309      0.0000 
      3 O2P        -1.8150    6.0000   -4.0940 O.co2     1 AMP309      0.0000 
      4 O3P        -0.9660    5.3550   -1.8200 O.co2     1 AMP309      0.0000 
      5 O5'         0.4840    5.3810   -3.8900 O.3       1 AMP309      0.0000 
      6 C5'         1.6020    5.6890   -3.0710 C.3       1 AMP309      0.0000 
      7 C4'         2.5070    6.6570   -3.8270 C.3       1 AMP309      0.0000 
      8 O4'         2.9120    6.1410   -5.1060 O.3       1 AMP309      0.0000 
      9 C3'         1.8060    7.9630   -4.1430 C.3       1 AMP309      0.0000 
     10 O3'         2.7810    9.0020   -4.1120 O.3       1 AMP309      0.0000 
     11 C2'         1.3200    7.8470   -5.5720 C.3       1 AMP309      0.0000 
     12 O2'         1.3740    9.1270   -6.2290 O.3       1 AMP309      0.0000 
     13 C1'         2.3780    6.9320   -6.1700 C.3       1 AMP309      0.0000 
     14 N9          1.9570    5.9540   -7.2190 N.pl3     1 AMP309      0.0000 
     15 C8          1.1430    4.8680   -7.0920 C.2       1 AMP309      0.0000 
     16 N7          1.0690    4.1950   -8.2720 N.2       1 AMP309      0.0000 
     17 C5          1.8540    4.8580   -9.1610 C.ar      1 AMP309      0.0000 
     18 C6          2.2260    4.7190  -10.5850 C.ar      1 AMP309      0.0000 
     19 N6          1.7600    3.6890  -11.3250 N.pl3     1 AMP309      0.0000 
     20 N1          3.0520    5.6400  -11.1300 N.ar      1 AMP309      0.0000 
     21 C2          3.5180    6.6750  -10.4100 C.ar      1 AMP309      0.0000 
     22 N3          3.2210    6.8840   -9.1130 N.ar      1 AMP309      0.0000 
     23 C4          2.4220    6.0140   -8.4600 C.ar      1 AMP309      0.0000 
     24 H           2.1911    4.8010   -2.8293 H         1 AMP309      0.0000 
     25 H           1.3058    6.1703   -2.1358 H         1 AMP309      0.0000 
     26 H           3.3723    6.8852   -3.2248 H         1 AMP309      0.0000 
     27 H           1.0083    8.1120   -3.5010 H         1 AMP309      0.0000 
     28 H           0.4015    7.3755   -5.5977 H         1 AMP309      0.0000 
     29 H           3.1875    7.5511   -6.5692 H         1 AMP309      0.0000 
     30 H           0.6821    4.6123   -6.2747 H         1 AMP309      0.0000 
     31 H           1.1265    3.0674  -10.8643 H         1 AMP309      0.0000 
     32 H           2.0900    3.6398  -12.2677 H         1 AMP309      0.0000 
     33 H           4.1645    7.3764  -10.8959 H         1 AMP309      0.0000 
     34 H           2.6576    9.4982   -4.9714 H         1 AMP309      0.0000 
     35 H           0.4356    9.3058   -6.5246 H         1 AMP309      0.0000 
@<TRIPOS>BOND
     1    2    1 ar   
     2    3    1 ar   
     3    4    1 ar   
     4    5    1 1    
     5    6    5 1    
     6    7    6 1    
     7   24    6 1    
     8   25    6 1    
     9    8    7 1    
    10    9    7 1    
    11   26    7 1    
    12   13    8 1    
    13   10    9 1    
    14   11    9 1    
    15   27    9 1    
    16   34   10 1    
    17   12   11 1    
    18   13   11 1    
    19   28   11 1    
    20   35   12 1    
    21   14   13 1    
    22   29   13 1    
    23   15   14 1    
    24   23   14 1    
    25   16   15 2    
    26   30   15 1    
    27   17   16 1    
    28   18   17 ar   
    29   23   17 ar   
    30   19   18 1    
    31   20   18 ar   
    32   31   19 1    
    33   32   19 1    
    34   21   20 ar   
    35   22   21 ar   
    36   33   21 1    
    37   23   22 ar   
@<TRIPOS>SUBSTRUCTURE
     1 AMP309      1 GROUP   
@<TRIPOS>SET

