#    Name: 4nan_2JM_1_INTS_M
#    Modification time : Tue Mar 25 12:53:08 2014

@<TRIPOS>MOLECULE
4nan_2JM_1_INTS_M
   54     0     6     0     0
SMALL
NO_CHARGES


@<TRIPOS>ATOM
      1 CA          9.5120   19.0805  -19.1065 C.3       2 GLC5        0.0000 
      2 CA          7.9580   20.6140  -19.1300 C.3       6 GLL5        0.0000 
      3 CA         11.0660   17.5470  -19.0830 C.3       4 GLP5        0.0000 
      4 CA          8.5110   20.5495  -17.2255 C.3       2 GLC5        0.0000 
      5 CA          9.0640   20.4850  -15.3210 C.3       4 GLP5        0.0000 
      6 CA          5.2835   18.1635  -16.6310 C.3       2 GLC5        0.0000 
      7 CA          5.1380   20.1850  -16.7870 C.3       6 GLL5        0.0000 
      8 CA          5.4290   16.1420  -16.4750 C.3       4 GLP5        0.0000 
      9 CA          6.2580   20.8170  -15.2510 C.3       2 GLC5        0.0000 
     10 CA          7.3780   21.4490  -13.7150 C.3       4 GLP5        0.0000 
     11 CA          4.6520   19.7115  -14.8565 C.3       2 GLC5        0.0000 
     12 CA          4.1660   19.2380  -12.9260 C.3       4 GLP5        0.0000 
     13 CA          3.3735   19.3840  -16.4250 C.3       2 GLC5        0.0000 
     14 CA          1.6090   18.5830  -16.0630 C.3       4 GLP5        0.0000 
     15 CA          2.0045   25.0240  -16.7720 C.3       2 GLC5        0.0000 
     16 CA          2.7560   23.1990  -17.4180 C.3       6 GLL5        0.0000 
     17 CA          1.2530   26.8490  -16.1260 C.3       4 GLP5        0.0000 
     18 CA          1.2355   22.0155  -17.1145 C.3       2 GLC5        0.0000 
     19 CA         -0.2850   20.8320  -16.8110 C.3       4 GLP5        0.0000 
     20 CA          1.5615   24.1170  -18.4255 C.3       2 GLC5        0.0000 
     21 CA          0.3670   25.0350  -19.4330 C.3       4 GLP5        0.0000 
     22 O           7.1830   23.3280  -20.2400 O.2       1 ALC1        0.0000 
     23 O           6.2260   22.9750  -19.6520 O.2       5 ALL1        0.0000 
     24 O           8.1400   23.6810  -20.8280 O.2       3 ALP1        0.0000 
     25 CA          5.0965   27.2115  -24.1190 C.3       2 GLC5        0.0000 
     26 CA          4.0680   25.7530  -23.8550 C.3       6 GLL5        0.0000 
     27 CA          6.1250   28.6700  -24.3830 C.3       4 GLP5        0.0000 
     28 CA          2.3405   24.9765  -22.8420 C.3       2 GLC5        0.0000 
     29 CA          0.6130   24.2000  -21.8290 C.3       4 GLP5        0.0000 
     30 CA          2.7320   27.2670  -23.6890 C.3       2 GLC5        0.0000 
     31 CA          1.3960   28.7810  -23.5230 C.3       4 GLP5        0.0000 
     32 CA          2.3060   28.4875  -19.5935 C.3       2 GLC5        0.0000 
     33 CA          3.9480   27.0800  -19.9110 C.3       6 GLL5        0.0000 
     34 CA          0.6640   29.8950  -19.2760 C.3       4 GLP5        0.0000 
     35 CA          6.2607   25.6525  -21.6833 C.3       2 GLC5        0.0000 
     36 CA          4.1680   25.9470  -21.9810 C.3       6 GLL5        0.0000 
     37 CA          8.1690   25.9160  -21.7180 C.3       4 GLP5        0.0000 
     38 CA          5.0765   27.5905  -23.0090 C.3       2 GLC5        0.0000 
     39 CA          2.7120   27.6460  -22.5790 C.3       2 GLC5        0.0000 
     40 CA          2.3666   25.2160  -21.6489 C.3       2 GLC5        0.0000 
     41 CA          3.8880   27.0750  -21.2890 C.3       6 GLL5        0.0000 
     42 CA          6.3223   25.3505  -19.9928 C.3       2 GLC5        0.0000 
     43 CA          5.0470   23.5600  -19.2890 C.3       6 GLL5        0.0000 
     44 CA          7.8260   26.5140  -20.3750 C.3       4 GLP5        0.0000 
     45 CA          3.4195   23.1815  -15.9942 C.3       2 GLC5        0.0000 
     46 CA          4.4960   22.7750  -18.2910 C.3       6 GLL5        0.0000 
     47 CA          3.2130   23.3760  -14.1340 C.3       4 GLP5        0.0000 
     48 CA          5.9677   26.5176  -20.1420 C.3       2 GLC5        0.0000 
     49 CA          4.3010   25.9650  -19.2180 C.3       6 GLL5        0.0000 
     50 CA          3.7357   27.4312  -17.7342 C.3       2 GLC5        0.0000 
     51 CA          3.3470   28.3400  -15.9040 C.3       4 GLP5        0.0000 
     52 CA          2.2819   25.6349  -19.5880 C.3       2 GLC5        0.0000 
     53 CA          6.4795   23.5582  -17.3674 C.3       2 GLC5        0.0000 
     54 CA          7.6430   24.6440  -16.0940 C.3       4 GLP5        0.0000 
@<TRIPOS>BOND
@<TRIPOS>SUBSTRUCTURE
     1 ALC1       22 GROUP        1 X    ALC  0     ROOT ALC X 1
     2 GLC5        1 GROUP        1 X    GLC  0     **** GLC X 6
     3 ALP1       24 GROUP        1 Y    ALP  0     ROOT ALP Y 8
     4 GLP5        3 GROUP        1 Y    GLP  0     **** GLP Y 13
     5 ALL1       23 GROUP        1 Z    ALL  0     ROOT ALL Z 15
     6 GLL5        2 GROUP        1 Z    GLL  0     **** GLL Z 20
@<TRIPOS>SET

