#    Name: 4nan_2JM_1_ligand
#    Modification time : Tue Mar 25 12:53:08 2014

@<TRIPOS>MOLECULE
4nan_2JM_1_ligand
   21    22     1     0     0
SMALL
NO_CHARGES


@<TRIPOS>ATOM
      1 C4          4.5370   24.8310  -21.3160 C.ar      1 2JM401      0.0000 
      2 C5          4.1680   25.9470  -21.9810 C.ar      1 2JM401      0.0000 
      3 C6          3.8880   27.0750  -21.2890 C.ar      1 2JM401      0.0000 
      4 C10         5.0470   23.5600  -19.2890 C.2       1 2JM401      0.0000 
      5 C13         6.3830   21.8480  -18.9240 C.2       1 2JM401      0.0000 
      6 BR1         7.9580   20.6140  -19.1300 Br        1 2JM401      0.0000 
      7 C12         5.3380   21.7070  -18.0590 C.2       1 2JM401      0.0000 
      8 BR2         5.1380   20.1850  -16.7870 Br        1 2JM401      0.0000 
      9 C11         4.4960   22.7750  -18.2910 C.2       1 2JM401      0.0000 
     10 BR3         2.7560   23.1990  -17.4180 Br        1 2JM401      0.0000 
     11 N14         6.2260   22.9750  -19.6520 N.pl3     1 2JM401      0.0000 
     12 C3          4.5900   24.8140  -19.9320 C.ar      1 2JM401      0.0000 
     13 C2          4.3010   25.9650  -19.2180 C.ar      1 2JM401      0.0000 
     14 O2          4.7780   23.7770  -22.1190 O.3       1 2JM401      0.0000 
     15 BR8         4.0680   25.7530  -23.8550 Br        1 2JM401      0.0000 
     16 C1          3.9480   27.0800  -19.9110 C.ar      1 2JM401      0.0000 
     17 H           3.6252   27.9481  -21.7869 H         1 2JM401      0.0000 
     18 H           6.8353   23.3143  -20.3144 H         1 2JM401      0.0000 
     19 H           4.3551   25.9640  -18.1972 H         1 2JM401      0.0000 
     20 H           3.7167   27.9595  -19.3994 H         1 2JM401      0.0000 
     21 H           4.5814   22.9735  -21.5571 H         1 2JM401      0.0000 
@<TRIPOS>BOND
     1    2    1 ar   
     2   12    1 ar   
     3   14    1 1    
     4    3    2 ar   
     5   15    2 1    
     6   16    3 ar   
     7   17    3 1    
     8    9    4 2    
     9   11    4 1    
    10   12    4 1    
    11    6    5 1    
    12    7    5 2    
    13   11    5 1    
    14    8    7 1    
    15    9    7 1    
    16   10    9 1    
    17   18   11 1    
    18   13   12 ar   
    19   16   13 ar   
    20   19   13 1    
    21   21   14 1    
    22   20   16 1    
@<TRIPOS>SUBSTRUCTURE
     1 2JM401      1 GROUP   
@<TRIPOS>SET

