#    Name: 3g5h_YTT_1_INTS_M
#    Modification time : Tue Mar 25 07:10:27 2014

@<TRIPOS>MOLECULE
3g5h_YTT_1_INTS_M
   24     0     3     0     0
SMALL
NO_CHARGES


@<TRIPOS>ATOM
      1 CA         10.9695   18.6055    0.5330 C.3       1 GLC5        0.0000 
      2 CA          9.8190   19.2590   -1.2260 C.3       3 GLL5        0.0000 
      3 CA         12.1200   17.9520    2.2920 C.3       2 GLP5        0.0000 
      4 CA          9.7380   20.3475    0.7215 C.3       1 GLC5        0.0000 
      5 CA          9.6570   21.4360    2.6690 C.3       2 GLP5        0.0000 
      6 CA         11.7855   19.8075   -0.6550 C.3       1 GLC5        0.0000 
      7 CA         13.7520   20.3560   -0.0840 C.3       2 GLP5        0.0000 
      8 CA         10.1905   20.6570   -4.3435 C.3       1 GLC5        0.0000 
      9 CA          9.8540   19.2770   -2.7750 C.3       3 GLL5        0.0000 
     10 CA         10.5270   22.0370   -5.9120 C.3       2 GLP5        0.0000 
     11 CA         11.4100   20.4910   -4.6320 C.3       1 GLC5        0.0000 
     12 CA         12.2930   18.9450   -3.3520 C.3       3 GLL5        0.0000 
     13 CA          7.3165   17.5630    1.8125 C.3       1 GLC5        0.0000 
     14 CA          7.3070   18.6450    0.1770 C.3       3 GLL5        0.0000 
     15 CA          7.3260   16.4810    3.4480 C.3       2 GLP5        0.0000 
     16 CA          8.4820   20.0405    1.4230 C.3       1 GLC5        0.0000 
     17 CA         13.6650   20.0693   -2.8312 C.3       1 GLC5        0.0000 
     18 CA         14.4820   21.6000   -2.1550 C.3       2 GLP5        0.0000 
     19 CA         12.3359   15.7505   -2.1138 C.3       1 GLC5        0.0000 
     20 CA         13.2010   16.7380   -3.8320 C.3       3 GLL5        0.0000 
     21 CA         12.9780   14.7610   -0.6510 C.3       2 GLP5        0.0000 
     22 CA          4.1357   17.8290   -1.1715 C.3       1 GLC5        0.0000 
     23 CA          6.2290   18.5460   -2.1320 C.3       3 GLL5        0.0000 
     24 CA          2.1540   17.1670   -0.9600 C.3       2 GLP5        0.0000 
@<TRIPOS>BOND
@<TRIPOS>SUBSTRUCTURE
     1 GLC5        1 GROUP        1 X    GLC  0     ROOT GLC X 6
     2 GLP5        3 GROUP        1 Y    GLP  0     ROOT GLP Y 13
     3 GLL5        2 GROUP        1 Z    GLL  0     ROOT GLL Z 20
@<TRIPOS>SET

