#    Name: 3g5h_YTT_1_ligand
#    Modification time : Tue Mar 25 07:10:27 2014

@<TRIPOS>MOLECULE
3g5h_YTT_1_ligand
   42    44     1     0     0
SMALL
NO_CHARGES


@<TRIPOS>ATOM
      1 OB          9.2510   21.5280   -0.7860 O.2       1 YTT397      0.0000 
      2 CB          8.9350   20.3440   -0.6630 C.2       1 YTT397      0.0000 
      3 CAB         9.8190   19.2590   -1.2260 C.3       1 YTT397      0.0000 
      4 CBB         9.8540   19.2770   -2.7750 C.3       1 YTT397      0.0000 
      5 CGB        11.0180   18.3960   -3.1890 C.ar      1 YTT397      0.0000 
      6 CD3        12.2930   18.9450   -3.3520 C.ar      1 YTT397      0.0000 
      7 CE3        13.4030   18.1320   -3.6630 C.ar      1 YTT397      0.0000 
      8 CZB        13.2010   16.7380   -3.8320 C.ar      1 YTT397      0.0000 
      9 OHB        14.2610   15.9370   -4.1260 O.3       1 YTT397      0.0000 
     10 CE4        11.9180   16.1860   -3.7040 C.ar      1 YTT397      0.0000 
     11 CD4        10.8280   17.0180   -3.3850 C.ar      1 YTT397      0.0000 
     12 NB          9.4730   17.9230   -0.7350 N.am      1 YTT397      0.0000 
     13 NA          7.8260   19.9920   -0.0030 N.am      1 YTT397      0.0000 
     14 CAA         7.3070   18.6450    0.1770 C.3       1 YTT397      0.0000 
     15 CA          8.3170   17.5780   -0.1490 C.2       1 YTT397      0.0000 
     16 OA          8.0380   16.4190    0.1440 O.2       1 YTT397      0.0000 
     17 CBA         6.0060   18.4360   -0.6340 C.3       1 YTT397      0.0000 
     18 CGA         6.2290   18.5460   -2.1320 C.ar      1 YTT397      0.0000 
     19 CD2         6.5310   17.4080   -2.8850 C.ar      1 YTT397      0.0000 
     20 CE2         6.7400   17.5320   -4.2520 C.ar      1 YTT397      0.0000 
     21 CZA         6.6300   18.7700   -4.8980 C.ar      1 YTT397      0.0000 
     22 OHA         6.8530   18.8760   -6.2430 O.3       1 YTT397      0.0000 
     23 CE1         6.3410   19.9180   -4.1490 C.ar      1 YTT397      0.0000 
     24 CD1         6.1400   19.7820   -2.7810 C.ar      1 YTT397      0.0000 
     25 H          10.8662   19.4856   -0.9034 H         1 YTT397      0.0000 
     26 H          10.0136   20.2811   -3.1069 H         1 YTT397      0.0000 
     27 H           8.9353   18.8756   -3.1476 H         1 YTT397      0.0000 
     28 H          12.4305   19.9620   -3.2441 H         1 YTT397      0.0000 
     29 H          14.3264   18.5315   -3.7643 H         1 YTT397      0.0000 
     30 H          11.7725   15.1841   -3.8413 H         1 YTT397      0.0000 
     31 H           9.8891   16.6138   -3.2954 H         1 YTT397      0.0000 
     32 H          10.2389   17.1941   -0.8781 H         1 YTT397      0.0000 
     33 H           7.2229   20.7548    0.4599 H         1 YTT397      0.0000 
     34 H           7.0183   18.5109    1.2440 H         1 YTT397      0.0000 
     35 H           5.2742   19.1859   -0.3153 H         1 YTT397      0.0000 
     36 H           5.6028   17.4464   -0.3941 H         1 YTT397      0.0000 
     37 H           6.5965   16.4944   -2.4295 H         1 YTT397      0.0000 
     38 H           6.9829   16.6934   -4.8114 H         1 YTT397      0.0000 
     39 H           6.2810   20.8260   -4.6004 H         1 YTT397      0.0000 
     40 H           5.9147   20.6286   -2.2147 H         1 YTT397      0.0000 
     41 H          15.0270   16.5637   -4.2688 H         1 YTT397      0.0000 
     42 H           6.3704   19.7067   -6.5206 H         1 YTT397      0.0000 
@<TRIPOS>BOND
     1    2    1 2    
     2    3    2 1    
     3   13    2 am   
     4    4    3 1    
     5   12    3 1    
     6   25    3 1    
     7    5    4 1    
     8   26    4 1    
     9   27    4 1    
    10    6    5 ar   
    11   11    5 ar   
    12    7    6 ar   
    13   28    6 1    
    14    8    7 ar   
    15   29    7 1    
    16    9    8 1    
    17   10    8 ar   
    18   41    9 1    
    19   11   10 ar   
    20   30   10 1    
    21   31   11 1    
    22   15   12 am   
    23   32   12 1    
    24   14   13 1    
    25   33   13 1    
    26   15   14 1    
    27   17   14 1    
    28   34   14 1    
    29   16   15 2    
    30   18   17 1    
    31   35   17 1    
    32   36   17 1    
    33   19   18 ar   
    34   24   18 ar   
    35   20   19 ar   
    36   37   19 1    
    37   21   20 ar   
    38   38   20 1    
    39   22   21 1    
    40   23   21 ar   
    41   42   22 1    
    42   24   23 ar   
    43   39   23 1    
    44   40   24 1    
@<TRIPOS>SUBSTRUCTURE
     1 YTT397      1 GROUP   
@<TRIPOS>SET

