#    Name: 3uo6_0BY_2_INTS_M
#    Modification time : Mon Mar 24 23:08:11 2014

@<TRIPOS>MOLECULE
3uo6_0BY_2_INTS_M
   73     0     9     0     0
SMALL
NO_CHARGES


@<TRIPOS>ATOM
      1 O         -30.9115    7.7645   25.5275 O.2       1 ALC1        0.0000 
      2 O         -30.9510    7.9760   24.3230 O.2       7 ALL1        0.0000 
      3 O         -30.8720    7.5530   26.7320 O.2       4 ALP1        0.0000 
      4 N         -28.4920    6.6080   25.2955 N.am      2 SEC2        0.0000 
      5 N         -28.6950    7.3020   24.0210 N.am      8 SEL2        0.0000 
      6 N         -28.2890    5.9140   26.5700 N.am      5 SEP2        0.0000 
      7 CA        -30.6820   10.7195   23.6635 C.3       3 GLC5        0.0000 
      8 CA        -32.2860    9.5990   23.0140 C.3       9 GLL5        0.0000 
      9 CA        -29.0780   11.8400   24.3130 C.3       6 GLP5        0.0000 
     10 CA        -30.4365    6.8095   22.2100 C.3       3 GLC5        0.0000 
     11 CA        -29.7380    8.0080   23.5580 C.3       9 GLL5        0.0000 
     12 CA        -31.1350    5.6110   20.8620 C.3       6 GLP5        0.0000 
     13 CA        -28.9520    8.1055   25.5080 C.3       3 GLC5        0.0000 
     14 CA        -28.1660    8.2030   27.4580 C.3       6 GLP5        0.0000 
     15 CA        -29.4080    9.9240   23.9355 C.3       3 GLC5        0.0000 
     16 CA        -29.8250    7.1900   21.2875 C.3       3 GLC5        0.0000 
     17 CA        -28.5150    8.7690   21.7130 C.3       9 GLL5        0.0000 
     18 CA        -27.4515    5.5600   24.5225 C.3       3 GLC5        0.0000 
     19 CA        -27.5240    7.2840   23.3580 C.3       9 GLL5        0.0000 
     20 CA        -27.3790    3.8360   25.6870 C.3       6 GLP5        0.0000 
     21 CA        -27.8450    7.7435   25.4080 C.3       3 GLC5        0.0000 
     22 CA        -31.5680    8.9520   19.7835 C.3       3 GLC5        0.0000 
     23 CA        -30.4880   10.6380   19.8660 C.3       9 GLL5        0.0000 
     24 CA        -32.6480    7.2660   19.7010 C.3       6 GLP5        0.0000 
     25 CA        -31.7350   14.0290   18.1685 C.3       3 GLC5        0.0000 
     26 CA        -30.7100   13.0380   19.9020 C.3       9 GLL5        0.0000 
     27 CA        -32.7600   15.0200   16.4350 C.3       6 GLP5        0.0000 
     28 N         -37.1945    8.7770   21.5760 N.am      2 SEC2        0.0000 
     29 N         -36.3420   10.2040   21.6180 N.am      8 SEL2        0.0000 
     30 N         -38.0470    7.3500   21.5340 N.am      5 SEP2        0.0000 
     31 CA        -26.9235   11.4335   22.6600 C.3       3 GLC5        0.0000 
     32 CA        -27.0220   12.2200   21.1100 C.3       9 GLL5        0.0000 
     33 CA        -26.8250   10.6470   24.2100 C.3       6 GLP5        0.0000 
     34 CA        -25.5585   12.4065   21.8925 C.3       3 GLC5        0.0000 
     35 CA        -24.0950   12.5930   22.6750 C.3       6 GLP5        0.0000 
     36 CA        -32.7782    8.5613   21.2710 C.3       3 GLC5        0.0000 
     37 CA        -33.4285   10.5407   24.6058 C.3       3 GLC5        0.0000 
     38 CA        -33.5310   10.1140   22.6680 C.3       9 GLL5        0.0000 
     39 CA        -32.7440   11.2350   26.2670 C.3       6 GLP5        0.0000 
     40 CA        -34.1410    7.3680   22.5260 C.3       3 GLC5        0.0000 
     41 CA        -34.6950    9.5790   23.2210 C.3       9 GLL5        0.0000 
     42 CA        -33.6280    5.6810   21.3820 C.3       6 GLP5        0.0000 
     43 CA        -33.3675    9.7560   25.2802 C.3       3 GLC5        0.0000 
     44 CA        -34.6130    8.5310   24.1190 C.3       9 GLL5        0.0000 
     45 CA        -33.2080    6.9828   22.7875 C.3       3 GLC5        0.0000 
     46 CA        -33.3690    8.0230   24.4680 C.3       9 GLL5        0.0000 
     47 CA        -32.4952   10.1537   24.8665 C.3       3 GLC5        0.0000 
     48 CA        -32.2070    8.5460   23.9180 C.3       9 GLL5        0.0000 
     49 CA        -27.9367    7.4865   20.0337 C.3       3 GLC5        0.0000 
     50 CA        -27.9040    6.5740   18.1200 C.3       6 GLP5        0.0000 
     51 CA        -27.4380    5.8528   21.9830 C.3       3 GLC5        0.0000 
     52 CA        -27.4240    8.0290   22.1820 C.3       9 GLL5        0.0000 
     53 CA        -27.4020    4.0490   21.1960 C.3       6 GLP5        0.0000 
     54 CA        -25.6645    8.0837   23.2180 C.3       3 GLC5        0.0000 
     55 CA        -23.8550    8.5110   23.6660 C.3       6 GLP5        0.0000 
     56 CA        -27.2859    9.2443   23.4314 C.3       3 GLC5        0.0000 
     57 CA        -29.1292    9.6440   18.4087 C.3       3 GLC5        0.0000 
     58 CA        -29.1770   10.7400   20.3110 C.3       9 GLL5        0.0000 
     59 CA        -28.4260    8.5990   16.7290 C.3       6 GLP5        0.0000 
     60 CA        -29.9992   11.2950   18.2497 C.3       3 GLC5        0.0000 
     61 CA        -30.1660   11.9010   16.4110 C.3       6 GLP5        0.0000 
     62 CA        -31.9273   10.7990   18.1475 C.3       3 GLC5        0.0000 
     63 CA        -32.9850   10.3890   16.5320 C.3       6 GLP5        0.0000 
     64 CA        -31.0817   13.4530   21.4785 C.3       3 GLC5        0.0000 
     65 CA        -31.2510   11.7800   19.6600 C.3       9 GLL5        0.0000 
     66 CA        -31.1830   14.4970   23.1760 C.3       6 GLP5        0.0000 
     67 CA        -30.5733   12.1550   18.0960 C.3       3 GLC5        0.0000 
     68 CA        -30.1018   13.5375   21.8120 C.3       3 GLC5        0.0000 
     69 CA        -29.4020   13.1480   20.3490 C.3       9 GLL5        0.0000 
     70 CA        -29.1165   12.0505   22.3510 C.3       3 GLC5        0.0000 
     71 CA        -28.9648   12.6625   18.3415 C.3       3 GLC5        0.0000 
     72 CA        -28.6390   12.0080   20.5470 C.3       9 GLL5        0.0000 
     73 CA        -28.9090   12.7470   16.2350 C.3       6 GLP5        0.0000 
@<TRIPOS>BOND
@<TRIPOS>SUBSTRUCTURE
     1 ALC1        1 GROUP        1 X    ALC  0     ROOT ALC X 1
     2 SEC2        4 GROUP        1 X    SEC  0     **** SEC X 2
     3 GLC5        7 GROUP        1 X    GLC  0     **** GLC X 6
     4 ALP1        3 GROUP        1 Y    ALP  0     ROOT ALP Y 8
     5 SEP2        6 GROUP        1 Y    SEP  0     **** SEP Y 9
     6 GLP5        9 GROUP        1 Y    GLP  0     **** GLP Y 13
     7 ALL1        2 GROUP        1 Z    ALL  0     ROOT ALL Z 15
     8 SEL2        5 GROUP        1 Z    SEL  0     **** SEL Z 16
     9 GLL5        8 GROUP        1 Z    GLL  0     **** GLL Z 20
@<TRIPOS>SET

