#    Name: 3uo6_0BY_2_ligand
#    Modification time : Mon Mar 24 23:08:11 2014

@<TRIPOS>MOLECULE
3uo6_0BY_2_ligand
   36    38     1     0     0
SMALL
NO_CHARGES


@<TRIPOS>ATOM
      1 N01       -30.9510    7.9760   24.3230 N.pl3     1 0BY2        0.0000 
      2 N02       -29.6600    8.7310   22.4290 N.ar      1 0BY2        0.0000 
      3 N03       -28.6950    7.3020   24.0210 N.ar      1 0BY2        0.0000 
      4 N04       -28.4140    9.5360   20.5050 N.pl3     1 0BY2        0.0000 
      5 C05       -33.5310   10.1140   22.6680 C.ar      1 0BY2        0.0000 
      6 C06       -34.6950    9.5790   23.2210 C.ar      1 0BY2        0.0000 
      7 C07       -34.6130    8.5310   24.1190 C.ar      1 0BY2        0.0000 
      8 C08       -33.3690    8.0230   24.4680 C.ar      1 0BY2        0.0000 
      9 C09       -32.2070    8.5460   23.9180 C.ar      1 0BY2        0.0000 
     10 C10       -32.2860    9.5990   23.0140 C.ar      1 0BY2        0.0000 
     11 C11       -36.0370   10.1030   22.8430 C.2       1 0BY2        0.0000 
     12 C12       -29.7380    8.0080   23.5580 C.ar      1 0BY2        0.0000 
     13 C13       -28.5150    8.7690   21.7130 C.ar      1 0BY2        0.0000 
     14 C14       -27.4240    8.0290   22.1820 C.ar      1 0BY2        0.0000 
     15 C15       -27.5240    7.2840   23.3580 C.ar      1 0BY2        0.0000 
     16 C16       -29.1770   10.7400   20.3110 C.ar      1 0BY2        0.0000 
     17 C17       -30.4880   10.6380   19.8660 C.ar      1 0BY2        0.0000 
     18 C18       -31.2510   11.7800   19.6600 C.ar      1 0BY2        0.0000 
     19 C19       -30.7100   13.0380   19.9020 C.ar      1 0BY2        0.0000 
     20 C20       -29.4020   13.1480   20.3490 C.ar      1 0BY2        0.0000 
     21 C21       -28.6390   12.0080   20.5470 C.ar      1 0BY2        0.0000 
     22 O25       -36.3420   10.2040   21.6180 O.co2     1 0BY2        0.0000 
     23 O26       -36.8670   10.4060   23.7370 O.co2     1 0BY2        0.0000 
     24 CL2       -27.0220   12.2200   21.1100 Cl        1 0BY2        0.0000 
     25 H         -30.9200    7.4952   25.2593 H         1 0BY2        0.0000 
     26 H         -27.7839    9.2202   19.7616 H         1 0BY2        0.0000 
     27 H         -33.5960   10.8952   21.9995 H         1 0BY2        0.0000 
     28 H         -35.4656    8.1289   24.5269 H         1 0BY2        0.0000 
     29 H         -33.3075    7.2443   25.1470 H         1 0BY2        0.0000 
     30 H         -31.4329    9.9936   22.6049 H         1 0BY2        0.0000 
     31 H         -26.5398    8.0351   21.6535 H         1 0BY2        0.0000 
     32 H         -26.7183    6.7483   23.6864 H         1 0BY2        0.0000 
     33 H         -30.8982    9.7084   19.6872 H         1 0BY2        0.0000 
     34 H         -32.2224   11.6956   19.3264 H         1 0BY2        0.0000 
     35 H         -31.2775   13.8798   19.7500 H         1 0BY2        0.0000 
     36 H         -28.9978   14.0769   20.5338 H         1 0BY2        0.0000 
@<TRIPOS>BOND
     1    9    1 1    
     2   12    1 1    
     3   25    1 1    
     4   12    2 ar   
     5   13    2 ar   
     6   12    3 ar   
     7   15    3 ar   
     8   13    4 1    
     9   16    4 1    
    10   26    4 1    
    11    6    5 ar   
    12   10    5 ar   
    13   27    5 1    
    14    7    6 ar   
    15   11    6 1    
    16    8    7 ar   
    17   28    7 1    
    18    9    8 ar   
    19   29    8 1    
    20   10    9 ar   
    21   30   10 1    
    22   22   11 ar   
    23   23   11 ar   
    24   14   13 ar   
    25   15   14 ar   
    26   31   14 1    
    27   32   15 1    
    28   17   16 ar   
    29   21   16 ar   
    30   18   17 ar   
    31   33   17 1    
    32   19   18 ar   
    33   34   18 1    
    34   20   19 ar   
    35   35   19 1    
    36   21   20 ar   
    37   36   20 1    
    38   24   21 1    
@<TRIPOS>SUBSTRUCTURE
     1 0BY2        1 GROUP   
@<TRIPOS>SET

