#    Name: 4NVQ_1_CAVITY_N1_ALL.mol2
#    Modification time : Tue Mar 11 17:11:48 2014

@<TRIPOS>MOLECULE
4NVQ_1_CAVITY_N1_ALL.mol2
  105     0     7     0     0
SMALL
NO_CHARGES


@<TRIPOS>ATOM
      1 O          -9.4963   18.5903   12.7475 O.2       2 ALA2        0.0000 
      2 NZ        -10.7520   18.1938   11.0844 N.2       4 LYS4        0.0000 
      3 CA        -12.0078   17.7972    9.4213 C.3       6 GLY6        0.0000 
      4 CA        -11.9739   17.3547   10.8542 C.3       6 GLY6        0.0000 
      5 CA        -11.9401   16.9123   12.2871 C.3       6 GLY6        0.0000 
      6 N         -13.2297   16.9582    9.1911 N.2       2 ALA2        0.0000 
      7 NZ        -13.1958   16.5157   10.6240 N.2       4 LYS4        0.0000 
      8 NZ         -2.9566   11.1298   15.0002 N.2       4 LYS4        0.0000 
      9 DU         -2.9228   10.6874   16.4330 H         7 CUB7        0.0000 
     10 O          -4.2124   10.7333   13.3371 O.2       2 ALA2        0.0000 
     11 N          -4.1785   10.2908   14.7699 N.2       2 ALA2        0.0000 
     12 N          -4.1447    9.8484   16.2028 N.2       2 ALA2        0.0000 
     13 N          -5.4343    9.8943   13.1069 N.2       2 ALA2        0.0000 
     14 N          -5.4004    9.4518   14.5397 N.2       2 ALA2        0.0000 
     15 N          -6.6223    8.6128   14.3095 N.2       2 ALA2        0.0000 
     16 N          -7.8781    8.2162   12.6464 N.2       2 ALA2        0.0000 
     17 CA         -7.8442    7.7738   14.0793 C.3       6 GLY6        0.0000 
     18 CZ         -9.1000    7.3772   12.4162 C.ar      5 PHE5        0.0000 
     19 O          -2.1211   10.4103   13.1880 O.2       2 ALA2        0.0000 
     20 DU         -2.0872    9.9678   14.6208 H         7 CUB7        0.0000 
     21 DU         -2.0534    9.5254   16.0537 H         7 CUB7        0.0000 
     22 DU         -2.0196    9.0829   17.4865 H         7 CUB7        0.0000 
     23 O          -3.3430    9.5713   12.9577 O.2       2 ALA2        0.0000 
     24 N          -3.3091    9.1288   14.3906 N.2       2 ALA2        0.0000 
     25 N          -3.2753    8.6864   15.8235 N.2       2 ALA2        0.0000 
     26 N          -3.2415    8.2439   17.2563 N.2       2 ALA2        0.0000 
     27 N          -4.5649    8.7323   12.7275 N.2       2 ALA2        0.0000 
     28 N          -4.5311    8.2898   14.1604 N.2       2 ALA2        0.0000 
     29 N          -5.7530    7.4508   13.9302 N.2       2 ALA2        0.0000 
     30 N          -7.0087    7.0542   12.2671 N.2       2 ALA2        0.0000 
     31 CZ         -6.9749    6.6118   13.6999 C.ar      5 PHE5        0.0000 
     32 N          -8.2645    6.6577   10.6040 N.2       2 ALA2        0.0000 
     33 N          -8.2306    6.2152   12.0369 N.2       2 ALA2        0.0000 
     34 CZ         -8.1968    5.7728   13.4697 C.ar      5 PHE5        0.0000 
     35 N          -9.4525    5.3762   11.8066 N.2       2 ALA2        0.0000 
     36 N           0.0040    9.6448   14.4717 N.2       2 ALA2        0.0000 
     37 DU          0.0379    9.2024   15.9045 H         7 CUB7        0.0000 
     38 CZ         -1.2179    8.8058   14.2415 C.ar      5 PHE5        0.0000 
     39 CZ         -1.1840    8.3634   15.6743 C.ar      5 PHE5        0.0000 
     40 DU         -1.1502    7.9209   17.1072 H         7 CUB7        0.0000 
     41 CZ         -2.4398    7.9668   14.0112 C.ar      5 PHE5        0.0000 
     42 CZ         -2.4059    7.5243   15.4441 C.ar      5 PHE5        0.0000 
     43 N          -2.3721    7.0819   16.8770 N.2       2 ALA2        0.0000 
     44 CZ         -3.6617    7.1278   13.7810 C.ar      5 PHE5        0.0000 
     45 CZ         -3.6278    6.6853   15.2139 C.ar      5 PHE5        0.0000 
     46 CZ         -4.9174    6.7312   12.1179 C.ar      5 PHE5        0.0000 
     47 CZ         -4.8836    6.2888   13.5508 C.ar      5 PHE5        0.0000 
     48 CZ         -6.1393    5.8922   11.8877 C.ar      5 PHE5        0.0000 
     49 CZ         -6.1055    5.4497   13.3206 C.ar      5 PHE5        0.0000 
     50 OG         -7.3951    5.4956   10.2246 O.2       1 SER1        0.0000 
     51 CZ         -7.3612    5.0532   11.6575 C.ar      5 PHE5        0.0000 
     52 OG         -8.6170    4.6566    9.9944 O.2       1 SER1        0.0000 
     53 CZ         -8.5832    4.2142   11.4273 C.ar      5 PHE5        0.0000 
     54 N          -9.8389    3.8176    9.7642 N.2       2 ALA2        0.0000 
     55 CZ         -0.3147    7.2013   15.2950 C.ar      5 PHE5        0.0000 
     56 CA         -0.2808    6.7589   16.7278 C.3       6 GLY6        0.0000 
     57 CZ         -1.5366    6.3623   15.0647 C.ar      5 PHE5        0.0000 
     58 N          -1.5027    5.9199   16.4976 N.2       2 ALA2        0.0000 
     59 CZ         -2.7585    5.5233   14.8345 C.ar      5 PHE5        0.0000 
     60 CZ         -6.4919    3.8912   11.2781 C.ar      5 PHE5        0.0000 
     61 CZ         -7.7476    3.4946    9.6151 C.ar      5 PHE5        0.0000 
     62 N          -7.7138    3.0522   11.0479 N.2       2 ALA2        0.0000 
     63 NZ         -7.7914   16.7087   10.5559 N.2       4 LYS4        0.0000 
     64 OD1        -7.7575   16.2663   11.9888 O.3       3 ASP3        0.0000 
     65 CA         -9.0133   15.8697   10.3257 C.3       6 GLY6        0.0000 
     66 O          -8.9794   15.4273   11.7586 O.2       2 ALA2        0.0000 
     67 O          -8.9456   14.9848   13.1914 O.2       2 ALA2        0.0000 
     68 CA        -10.2352   15.0307   10.0955 C.3       6 GLY6        0.0000 
     69 CA        -10.2013   14.5882   11.5283 C.3       6 GLY6        0.0000 
     70 CA        -10.1675   14.1458   12.9612 C.3       6 GLY6        0.0000 
     71 CA        -10.1336   13.7033   14.3941 C.3       6 GLY6        0.0000 
     72 NZ        -11.3894   13.3068   12.7310 N.2       4 LYS4        0.0000 
     73 NZ         -6.8881   15.1043   11.6094 N.2       4 LYS4        0.0000 
     74 CA         -8.1439   14.7077    9.9464 C.3       6 GLY6        0.0000 
     75 CA         -8.1101   14.2652   11.3792 C.3       6 GLY6        0.0000 
     76 CA         -8.0762   13.8228   12.8121 C.3       6 GLY6        0.0000 
     77 CA         -9.2981   12.9838   12.5819 C.3       6 GLY6        0.0000 
     78 CA         -9.2643   12.5413   14.0147 C.3       6 GLY6        0.0000 
     79 N         -10.5200   12.1448   12.3516 N.2       2 ALA2        0.0000 
     80 CA        -10.4862   11.7023   13.7845 C.3       6 GLY6        0.0000 
     81 CA         -7.2407   13.1032   10.9999 C.3       6 GLY6        0.0000 
     82 NZ         -7.2068   12.6608   12.4327 N.2       4 LYS4        0.0000 
     83 CA         -7.1730   12.2183   13.8656 C.3       6 GLY6        0.0000 
     84 CA         -7.1392   11.7759   15.2984 C.3       6 GLY6        0.0000 
     85 CA         -8.4288   11.8218   12.2025 C.3       6 GLY6        0.0000 
     86 CA         -8.3949   11.3793   13.6354 C.3       6 GLY6        0.0000 
     87 CA         -8.3611   10.9368   15.0682 C.3       6 GLY6        0.0000 
     88 N          -9.6507   10.9827   11.9723 N.2       2 ALA2        0.0000 
     89 CZ         -9.6168   10.5403   13.4051 C.ar      5 PHE5        0.0000 
     90 NZ         -3.8260   12.2919   15.3795 N.2       4 LYS4        0.0000 
     91 NZ         -5.0479   11.4529   15.1493 N.2       4 LYS4        0.0000 
     92 N          -5.0140   11.0104   16.5822 N.2       2 ALA2        0.0000 
     93 NZ         -6.3036   11.0563   13.4862 N.2       4 LYS4        0.0000 
     94 N          -6.2698   10.6138   14.9191 N.2       2 ALA2        0.0000 
     95 N          -7.5255   10.2173   13.2560 N.2       2 ALA2        0.0000 
     96 CA         -7.4917    9.7748   14.6889 C.3       6 GLY6        0.0000 
     97 N          -8.7813    9.8207   11.5929 N.2       2 ALA2        0.0000 
     98 CZ         -8.7474    9.3783   13.0258 C.ar      5 PHE5        0.0000 
     99 O          -9.9165   17.4742    9.2722 O.2       2 ALA2        0.0000 
    100 NZ         -9.8826   17.0317   10.7051 N.2       4 LYS4        0.0000 
    101 CA         -9.8488   16.5893   12.1379 C.3       6 GLY6        0.0000 
    102 CA         -9.8149   16.1468   13.5708 C.3       6 GLY6        0.0000 
    103 N         -11.1045   16.1927   10.4748 N.2       2 ALA2        0.0000 
    104 CA        -11.0707   15.7503   11.9077 C.3       6 GLY6        0.0000 
    105 N         -12.3603   15.7962    8.8118 N.2       2 ALA2        0.0000 
@<TRIPOS>BOND
@<TRIPOS>SUBSTRUCTURE
     1 SER1       50 GROUP   
     2 ALA2        1 GROUP   
     3 ASP3       64 GROUP   
     4 LYS4        2 GROUP   
     5 PHE5       18 GROUP   
     6 GLY6        3 GROUP   
     7 CUB7        9 GROUP   
@<TRIPOS>SET

