#    Name: 4nvq_2OD_1_INTS_M
#    Modification time : Tue Mar 25 13:20:01 2014

@<TRIPOS>MOLECULE
4nvq_2OD_1_INTS_M
   82     0     9     0     0
SMALL
NO_CHARGES


@<TRIPOS>ATOM
      1 O          -7.0930    8.0210   11.4340 O.2       1 ALC1        0.0000 
      2 O          -7.4980    7.0850   12.4230 O.2       7 ALL1        0.0000 
      3 O          -6.6880    8.9570   10.4450 O.2       4 ALP1        0.0000 
      4 O          -5.5630   17.5940   10.2050 O.2       1 ALC1        0.0000 
      5 O          -6.8760   16.8430   10.3700 O.2       7 ALL1        0.0000 
      6 O          -4.2500   18.3450   10.0400 O.2       4 ALP1        0.0000 
      7 CA         -7.9655   13.3170   14.5975 C.3       3 GLC5        0.0000 
      8 CA         -8.5060   11.8430   13.0090 C.3       9 GLL5        0.0000 
      9 CA         -7.4250   14.7910   16.1860 C.3       6 GLP5        0.0000 
     10 CA         -8.1440    6.2030   14.8185 C.3       3 GLC5        0.0000 
     11 CA         -7.7130    7.6260   13.8050 C.3       9 GLL5        0.0000 
     12 CA         -8.5750    4.7800   15.8320 C.3       6 GLP5        0.0000 
     13 CA         -8.8235    8.5210   15.0535 C.3       3 GLC5        0.0000 
     14 CA         -9.9340    9.4160   16.3020 C.3       6 GLP5        0.0000 
     15 CA         -7.5105   16.0955    8.8590 C.3       3 GLC5        0.0000 
     16 CA         -7.4690   15.8060   10.9930 C.3       9 GLL5        0.0000 
     17 CA         -7.5520   16.3850    6.7250 C.3       6 GLP5        0.0000 
     18 CA         -5.9035   15.4020    9.5555 C.3       3 GLC5        0.0000 
     19 CA         -4.3380   14.9980    8.1180 C.3       6 GLP5        0.0000 
     20 CA        -10.6625   16.2385   13.7355 C.3       3 GLC5        0.0000 
     21 CA         -9.5070   16.9780   12.2580 C.3       9 GLL5        0.0000 
     22 CA        -11.8180   15.4990   15.2130 C.3       6 GLP5        0.0000 
     23 CA         -8.7650   16.3160    8.4800 C.3       3 GLC5        0.0000 
     24 CA         -9.9780   16.2470   10.2350 C.3       9 GLL5        0.0000 
     25 CA         -9.7510   14.6675    9.4180 C.3       3 GLC5        0.0000 
     26 CA         -9.5240   13.0880    8.6010 C.3       6 GLP5        0.0000 
     27 CA        -11.6700   13.4140   11.0725 C.3       3 GLC5        0.0000 
     28 CA        -10.1150   13.6950   12.4590 C.3       9 GLL5        0.0000 
     29 CA        -13.2250   13.1330    9.6860 C.3       6 GLP5        0.0000 
     30 O          -5.4225   14.2870   12.2925 O.2       1 ALC1        0.0000 
     31 O          -6.7780   14.7230   11.3460 O.2       7 ALL1        0.0000 
     32 O          -4.0670   13.8510   13.2390 O.2       4 ALP1        0.0000 
     33 O          -5.5090   14.2760   11.1920 O.2       1 ALC1        0.0000 
     34 O          -4.2400   13.8290   11.0380 O.2       4 ALP1        0.0000 
     35 CA        -12.7075   12.5740   11.6710 C.3       3 GLC5        0.0000 
     36 CA        -12.1900   12.0150   13.6560 C.3       9 GLL5        0.0000 
     37 CA        -11.8150   10.2025   14.1095 C.3       3 GLC5        0.0000 
     38 CA        -11.4400    8.3900   14.5630 C.3       6 GLP5        0.0000 
     39 CA        -12.0040   13.7570   14.4345 C.3       3 GLC5        0.0000 
     40 CA        -13.8260   10.9775   13.3380 C.3       3 GLC5        0.0000 
     41 CA        -15.4620    9.9400   13.0200 C.3       6 GLP5        0.0000 
     42 N          -9.0475    9.9230   12.5035 N.am      2 SEC2        0.0000 
     43 N          -8.2690   10.5500   13.4690 N.am      8 SEL2        0.0000 
     44 N          -9.8260    9.2960   11.5380 N.am      5 SEP2        0.0000 
     45 CA         -7.4025    7.2505   15.5685 C.3       3 GLC5        0.0000 
     46 CA         -6.7510    8.7760   14.2400 C.3       9 GLL5        0.0000 
     47 CA         -8.0540    5.7250   16.8970 C.3       6 GLP5        0.0000 
     48 CA         -7.0415    4.9585   13.8155 C.3       3 GLC5        0.0000 
     49 CA         -6.2590    6.2380   12.2230 C.3       9 GLL5        0.0000 
     50 CA         -7.8240    3.6790   15.4080 C.3       6 GLP5        0.0000 
     51 CA         -9.0115    6.2140    9.1725 C.3       3 GLC5        0.0000 
     52 CA         -7.9650    5.3670   10.7580 C.3       9 GLL5        0.0000 
     53 CA        -10.0580    7.0610    7.5870 C.3       6 GLP5        0.0000 
     54 CA         -8.7870    4.1695   12.3540 C.3       3 GLC5        0.0000 
     55 CA         -9.6090    2.9720   13.9500 C.3       6 GLP5        0.0000 
     56 CA         -9.4995    5.1490   13.1210 C.3       3 GLC5        0.0000 
     57 CA         -8.6220    6.2600   11.8600 C.3       9 GLL5        0.0000 
     58 CA        -10.3770    4.0380   14.3820 C.3       6 GLP5        0.0000 
     59 CA        -10.0310    7.3250   13.2115 C.3       3 GLC5        0.0000 
     60 CA         -7.9505   11.7058   10.7792 C.3       3 GLC5        0.0000 
     61 CA         -7.9480   11.1870    8.8060 C.3       6 GLP5        0.0000 
     62 CA         -7.1064   14.3935   13.7895 C.3       3 GLC5        0.0000 
     63 CA         -7.4000   12.6060   12.4960 C.3       9 GLL5        0.0000 
     64 CA         -6.3270   15.4150   15.3530 C.3       6 GLP5        0.0000 
     65 CA         -9.7688   11.4695   14.8970 C.3       3 GLC5        0.0000 
     66 CA        -10.3520   10.8210   16.7890 C.3       6 GLP5        0.0000 
     67 CA         -8.3745    9.4202   15.0623 C.3       3 GLC5        0.0000 
     68 CA         -6.8790   10.0730   13.4050 C.3       9 GLL5        0.0000 
     69 CA         -6.3057    4.6573    9.4597 C.3       3 GLC5        0.0000 
     70 CA         -5.4020    3.7850    8.1380 C.3       6 GLP5        0.0000 
     71 CA         -4.5568    6.0470   11.2300 C.3       3 GLC5        0.0000 
     72 CA         -6.4540    5.6920   10.8050 C.3       9 GLL5        0.0000 
     73 CA         -2.7570    6.1290   10.9460 C.3       6 GLP5        0.0000 
     74 CA        -10.4610   18.1480    9.2730 C.3       3 GLC5        0.0000 
     75 CA        -10.6130   19.5490    7.8120 C.3       6 GLP5        0.0000 
     76 CA         -9.7570   13.0660   10.6655 C.3       3 GLC5        0.0000 
     77 CA        -10.7696   14.3610   13.9081 C.3       3 GLC5        0.0000 
     78 CA         -9.0400   14.4110   11.9520 C.3       9 GLL5        0.0000 
     79 CA         -6.0564    4.3810   12.1565 C.3       3 GLC5        0.0000 
     80 CA         -4.9520    3.0960   13.1770 C.3       6 GLP5        0.0000 
     81 CA         -8.9106   14.0294   10.0832 C.3       3 GLC5        0.0000 
     82 CA         -7.7030   13.8650   11.9600 C.3       9 GLL5        0.0000 
@<TRIPOS>BOND
@<TRIPOS>SUBSTRUCTURE
     1 ALC1        1 GROUP        1 X    ALC  0     ROOT ALC X 1
     2 SEC2       42 GROUP        1 X    SEC  0     **** SEC X 2
     3 GLC5        7 GROUP        1 X    GLC  0     **** GLC X 6
     4 ALP1        3 GROUP        1 Y    ALP  0     ROOT ALP Y 8
     5 SEP2       44 GROUP        1 Y    SEP  0     **** SEP Y 9
     6 GLP5        9 GROUP        1 Y    GLP  0     **** GLP Y 13
     7 ALL1        2 GROUP        1 Z    ALL  0     ROOT ALL Z 15
     8 SEL2       43 GROUP        1 Z    SEL  0     **** SEL Z 16
     9 GLL5        8 GROUP        1 Z    GLL  0     **** GLL Z 20
@<TRIPOS>SET

