#    Name: 4nvq_2OD_1_ligand
#    Modification time : Tue Mar 25 13:20:01 2014

@<TRIPOS>MOLECULE
4nvq_2OD_1_ligand
   53    56     1     0     0
SMALL
NO_CHARGES


@<TRIPOS>ATOM
      1 N1         -7.4980    7.0850   12.4230 N.4       1 2OD1201     0.0000 
      2 N3         -6.8760   16.8430   10.3700 N.pl3     1 2OD1201     0.0000 
      3 C4         -9.0400   14.4110   11.9520 C.ar      1 2OD1201     0.0000 
      4 C5         -7.7030   13.8650   11.9600 C.ar      1 2OD1201     0.0000 
      5 C6         -7.4000   12.6060   12.4960 C.ar      1 2OD1201     0.0000 
      6 C7         -8.5060   11.8430   13.0090 C.ar      1 2OD1201     0.0000 
      7 C8         -6.8790   10.0730   13.4050 C.3       1 2OD1201     0.0000 
      8 C10        -7.7130    7.6260   13.8050 C.3       1 2OD1201     0.0000 
      9 C13        -6.4540    5.6920   10.8050 C.3       1 2OD1201     0.0000 
     10 C15        -7.4690   15.8060   10.9930 C.2       1 2OD1201     0.0000 
     11 C17        -9.5070   16.9780   12.2580 C.3       1 2OD1201     0.0000 
     12 C16        -8.9770   15.8010   11.3570 C.3       1 2OD1201     0.0000 
     13 C19        -9.9780   16.2470   10.2350 C.3       1 2OD1201     0.0000 
     14 C18       -10.6400   17.2470   11.2330 C.3       1 2OD1201     0.0000 
     15 C3        -10.1150   13.6950   12.4590 C.ar      1 2OD1201     0.0000 
     16 N2         -6.7780   14.7230   11.3460 N.pl3     1 2OD1201     0.0000 
     17 C2         -9.8650   12.3930   13.0010 C.ar      1 2OD1201     0.0000 
     18 O1        -10.8360   11.5820   13.5470 O.3       1 2OD1201     0.0000 
     19 C1        -12.1900   12.0150   13.6560 C.3       1 2OD1201     0.0000 
     20 O2         -8.2690   10.5500   13.4690 O.3       1 2OD1201     0.0000 
     21 C9         -6.7510    8.7760   14.2400 C.3       1 2OD1201     0.0000 
     22 C14        -6.2590    6.2380   12.2230 C.3       1 2OD1201     0.0000 
     23 C12        -7.9650    5.3670   10.7580 C.3       1 2OD1201     0.0000 
     24 C11        -8.6220    6.2600   11.8600 C.3       1 2OD1201     0.0000 
     25 H          -7.3798    7.9531   11.7134 H         1 2OD1201     0.0000 
     26 H          -5.8983   16.9604   10.5444 H         1 2OD1201     0.0000 
     27 H          -7.4663   17.4029    9.7886 H         1 2OD1201     0.0000 
     28 H          -6.4749   12.2435   12.5281 H         1 2OD1201     0.0000 
     29 H          -6.1937   10.8074   13.8176 H         1 2OD1201     0.0000 
     30 H          -6.5900    9.8450   12.3834 H         1 2OD1201     0.0000 
     31 H          -7.6140    6.8090   14.5499 H         1 2OD1201     0.0000 
     32 H          -8.7517    8.0046   13.9048 H         1 2OD1201     0.0000 
     33 H          -5.8995    4.8028   10.6808 H         1 2OD1201     0.0000 
     34 H          -6.2338    6.4417   10.0957 H         1 2OD1201     0.0000 
     35 H          -8.8415   17.7302   12.2387 H         1 2OD1201     0.0000 
     36 H          -9.8928   16.5953   13.1029 H         1 2OD1201     0.0000 
     37 H         -10.6137   15.4951   10.0397 H         1 2OD1201     0.0000 
     38 H          -9.4788   16.7564    9.5286 H         1 2OD1201     0.0000 
     39 H         -10.5581   18.1834   10.8724 H         1 2OD1201     0.0000 
     40 H         -11.5051   16.8588   11.5715 H         1 2OD1201     0.0000 
     41 H         -11.0546   14.0631   12.4555 H         1 2OD1201     0.0000 
     42 H          -5.8631   14.5322   11.2281 H         1 2OD1201     0.0000 
     43 H          -6.9465    9.0111   15.2960 H         1 2OD1201     0.0000 
     44 H          -5.7172    8.4083   14.1712 H         1 2OD1201     0.0000 
     45 H          -6.2474    5.4370   12.9121 H         1 2OD1201     0.0000 
     46 H          -5.3929    6.8426   12.2533 H         1 2OD1201     0.0000 
     47 H          -8.1205    4.3455   11.0006 H         1 2OD1201     0.0000 
     48 H          -8.3611    5.6365    9.8109 H         1 2OD1201     0.0000 
     49 H          -9.3543    6.8807   11.3987 H         1 2OD1201     0.0000 
     50 H          -9.0367    5.6237   12.6066 H         1 2OD1201     0.0000 
     51 H         -12.2728   12.8374   14.2189 H         1 2OD1201     0.0000 
     52 H         -12.5841   12.2304   12.7625 H         1 2OD1201     0.0000 
     53 H         -12.7713   11.3155   14.0718 H         1 2OD1201     0.0000 
@<TRIPOS>BOND
     1    8    1 1    
     2   22    1 1    
     3   24    1 1    
     4   25    1 1    
     5   10    2 1    
     6   26    2 1    
     7   27    2 1    
     8    4    3 ar   
     9   12    3 1    
    10   15    3 ar   
    11    5    4 ar   
    12   16    4 1    
    13    6    5 ar   
    14   28    5 1    
    15   17    6 ar   
    16   20    6 1    
    17   20    7 1    
    18   21    7 1    
    19   29    7 1    
    20   30    7 1    
    21   21    8 1    
    22   31    8 1    
    23   32    8 1    
    24   22    9 1    
    25   23    9 1    
    26   33    9 1    
    27   34    9 1    
    28   12   10 1    
    29   16   10 2    
    30   12   11 1    
    31   14   11 1    
    32   35   11 1    
    33   36   11 1    
    34   13   12 1    
    35   14   13 1    
    36   37   13 1    
    37   38   13 1    
    38   39   14 1    
    39   40   14 1    
    40   17   15 ar   
    41   41   15 1    
    42   42   16 1    
    43   18   17 1    
    44   19   18 1    
    45   51   19 1    
    46   52   19 1    
    47   53   19 1    
    48   43   21 1    
    49   44   21 1    
    50   45   22 1    
    51   46   22 1    
    52   24   23 1    
    53   47   23 1    
    54   48   23 1    
    55   49   24 1    
    56   50   24 1    
@<TRIPOS>SUBSTRUCTURE
     1 2OD1201     1 GROUP   
@<TRIPOS>SET

