#    Name: 2hfp_NSI_2_INTS_M
#    Modification time : Tue Mar 25 16:20:14 2014

@<TRIPOS>MOLECULE
2hfp_NSI_2_INTS_M
  102     0     9     0     0
SMALL
NO_CHARGES


@<TRIPOS>ATOM
      1 N          29.9980    1.1435    2.6845 N.am      2 SEC2        0.0000 
      2 N          31.2170    0.5780    3.1730 N.am      8 SEL2        0.0000 
      3 N          28.7790    1.7090    2.1960 N.am      5 SEP2        0.0000 
      4 CA         34.1810   -2.1375   -1.9250 C.3       3 GLC5        0.0000 
      5 CA         32.6660   -2.3970   -0.6110 C.3       9 GLL5        0.0000 
      6 CA         35.6960   -1.8780   -3.2390 C.3       6 GLP5        0.0000 
      7 CA         32.5720   -2.9675   -2.7635 C.3       3 GLC5        0.0000 
      8 CA         32.4780   -3.5380   -4.9160 C.3       6 GLP5        0.0000 
      9 CA         33.9695   -0.7325   -1.6960 C.3       3 GLC5        0.0000 
     10 CA         32.2190   -1.0860   -0.4640 C.3       9 GLL5        0.0000 
     11 CA         35.7200   -0.3790   -2.9280 C.3       6 GLP5        0.0000 
     12 CA         31.9625    0.9320   -0.6645 C.3       3 GLC5        0.0000 
     13 CA         31.8830   -0.5680    0.7890 C.3       9 GLL5        0.0000 
     14 CA         32.0420    2.4320   -2.1180 C.3       6 GLP5        0.0000 
     15 O          30.6035   -1.6210    5.2580 O.2       1 ALC1        0.0000 
     16 O          30.3090   -1.5000    3.9330 O.2       7 ALL1        0.0000 
     17 O          30.8980   -1.7420    6.5830 O.2       4 ALP1        0.0000 
     18 CA         26.7145    0.1780    5.5285 C.3       3 GLC5        0.0000 
     19 CA         26.5160   -0.9860    4.0370 C.3       9 GLL5        0.0000 
     20 CA         26.9130    1.3420    7.0200 C.3       6 GLP5        0.0000 
     21 CA         28.0500   -1.6335    5.5185 C.3       3 GLC5        0.0000 
     22 CA         29.5840   -2.2810    7.0000 C.3       6 GLP5        0.0000 
     23 CA         27.4525    0.9530    3.4085 C.3       3 GLC5        0.0000 
     24 CA         28.3890    2.8920    2.7800 C.3       6 GLP5        0.0000 
     25 CA         22.6740   -0.8300    4.4075 C.3       3 GLC5        0.0000 
     26 CA         24.2150   -0.2420    3.2310 C.3       9 GLL5        0.0000 
     27 CA         21.1330   -1.4180    5.5840 C.3       6 GLP5        0.0000 
     28 CA         21.3200   -0.1290    2.7500 C.3       3 GLC5        0.0000 
     29 CA         23.3230   -0.1250    2.1500 C.3       9 GLL5        0.0000 
     30 CA         19.3170   -0.1330    3.3500 C.3       6 GLP5        0.0000 
     31 CA         25.2680   -1.1630   -3.5730 C.3       3 GLC5        0.0000 
     32 CA         24.4570   -1.3430   -1.5940 C.3       9 GLL5        0.0000 
     33 CA         26.0790   -0.9830   -5.5520 C.3       6 GLP5        0.0000 
     34 CA         24.5510    0.5250   -2.3080 C.3       3 GLC5        0.0000 
     35 CA         24.6450    2.3930   -3.0220 C.3       6 GLP5        0.0000 
     36 CA         27.2065   -3.5530   -1.2230 C.3       3 GLC5        0.0000 
     37 CA         25.3980   -3.0320   -0.6430 C.3       9 GLL5        0.0000 
     38 CA         29.0150   -4.0740   -1.8030 C.3       6 GLP5        0.0000 
     39 CA         27.7365   -2.6285   -1.4355 C.3       3 GLC5        0.0000 
     40 CA         26.4580   -1.1830   -1.0680 C.3       9 GLL5        0.0000 
     41 CA         27.4440    0.2040   -1.9375 C.3       3 GLC5        0.0000 
     42 CA         28.4300    1.5910   -2.8070 C.3       6 GLP5        0.0000 
     43 CA         25.8075    0.7935   -1.4355 C.3       3 GLC5        0.0000 
     44 CA         25.1570    2.7700   -1.8030 C.3       6 GLP5        0.0000 
     45 CA         23.0260   -2.4350    5.2875 C.3       3 GLC5        0.0000 
     46 CA         24.9190   -3.4520    4.9910 C.3       9 GLL5        0.0000 
     47 CA         25.0560   -3.8315    7.0935 C.3       3 GLC5        0.0000 
     48 CA         25.1930   -4.2110    9.1960 C.3       6 GLP5        0.0000 
     49 CA         26.0665   -5.9490    3.0840 C.3       3 GLC5        0.0000 
     50 CA         27.0110   -4.5460    4.4650 C.3       9 GLL5        0.0000 
     51 CA         25.1220   -7.3520    1.7030 C.3       6 GLP5        0.0000 
     52 CA         29.2525   -9.4550    2.2165 C.3       3 GLC5        0.0000 
     53 CA         29.6020   -7.2820    2.3670 C.3       9 GLL5        0.0000 
     54 CA         28.9030  -11.6280    2.0660 C.3       6 GLP5        0.0000 
     55 CA         29.0335   -7.8820    0.5685 C.3       3 GLC5        0.0000 
     56 CA         28.4650   -8.4820   -1.2300 C.3       6 GLP5        0.0000 
     57 CA         30.0665   -3.6550    5.3585 C.3       3 GLC5        0.0000 
     58 CA         30.5490   -5.0290    3.7170 C.3       9 GLL5        0.0000 
     59 CA         30.3550  -10.2330    1.5625 C.3       3 GLC5        0.0000 
     60 CA         31.8070   -8.8380    1.0590 C.3       9 GLL5        0.0000 
     61 CA         30.7265   -8.3125   -0.4350 C.3       3 GLC5        0.0000 
     62 CA         29.6460   -7.7870   -1.9290 C.3       6 GLP5        0.0000 
     63 CA         32.5555  -10.5470    1.9040 C.3       3 GLC5        0.0000 
     64 CA         33.3040  -12.2560    2.7490 C.3       6 GLP5        0.0000 
     65 CA         32.8465   -7.9060    0.2555 C.3       3 GLC5        0.0000 
     66 CA         33.8860   -6.9740   -0.5480 C.3       6 GLP5        0.0000 
     67 CA         33.4077   -2.8930    3.2588 C.3       3 GLC5        0.0000 
     68 CA         32.4230   -2.6960    1.7610 C.3       9 GLL5        0.0000 
     69 CA         34.6110   -3.7530    4.6730 C.3       6 GLP5        0.0000 
     70 CA         33.5373   -0.5860    2.2243 C.3       3 GLC5        0.0000 
     71 CA         34.8700    0.8610    2.6040 C.3       6 GLP5        0.0000 
     72 CA         31.4887   -0.7127   -1.8362 C.3       3 GLC5        0.0000 
     73 CA         30.5350    0.3160   -3.1350 C.3       6 GLP5        0.0000 
     74 CA         33.4605    0.0170    1.3833 C.3       3 GLC5        0.0000 
     75 CA         24.1567    1.2960    2.6357 C.3       3 GLC5        0.0000 
     76 CA         25.4560   -0.8280    2.9880 C.3       9 GLL5        0.0000 
     77 CA         23.4780    3.1270    2.1620 C.3       6 GLP5        0.0000 
     78 CA         22.1265   -1.7660    1.3000 C.3       3 GLC5        0.0000 
     79 CA         20.7760   -3.1630    1.0910 C.3       6 GLP5        0.0000 
     80 CA         23.4775    1.3790    1.8355 C.3       3 GLC5        0.0000 
     81 CA         23.6310   -0.6130    0.8680 C.3       9 GLL5        0.0000 
     82 CA         23.4645   -1.4455   -2.2597 C.3       3 GLC5        0.0000 
     83 CA         22.0380   -1.3620   -3.3890 C.3       6 GLP5        0.0000 
     84 CA         24.5948   -3.5737   -1.7789 C.3       3 GLC5        0.0000 
     85 CA         25.3250   -1.7150   -0.6670 C.3       9 GLL5        0.0000 
     86 CA         24.0450   -4.8670   -2.6710 C.3       6 GLP5        0.0000 
     87 CA         24.1030   -5.6705    7.0925 C.3       3 GLC5        0.0000 
     88 CA         25.1700   -5.8330    5.3300 C.3       9 GLL5        0.0000 
     89 CA         23.4270   -6.0800    8.8290 C.3       6 GLP5        0.0000 
     90 CA         25.8627   -7.1380    3.9278 C.3       3 GLC5        0.0000 
     91 CA         25.9000   -8.4710    2.7570 C.3       6 GLP5        0.0000 
     92 CA         28.2405   -5.9238    5.8335 C.3       3 GLC5        0.0000 
     93 CA         26.4810   -5.7770    4.8670 C.3       9 GLL5        0.0000 
     94 CA         29.7350   -6.6860    7.0010 C.3       6 GLP5        0.0000 
     95 CA         27.5343   -7.6195    2.6530 C.3       3 GLC5        0.0000 
     96 CA         28.7350   -6.2540    2.7310 C.3       9 GLL5        0.0000 
     97 CA         29.2356   -6.0744    5.1040 C.3       3 GLC5        0.0000 
     98 CA         32.8002   -4.6467    4.1030 C.3       3 GLC5        0.0000 
     99 CA         30.3622   -6.1132    5.2670 C.3       3 GLC5        0.0000 
    100 CA         31.4300   -6.0520    3.3490 C.3       9 GLL5        0.0000 
    101 CA         28.5099   -3.0131    5.5890 C.3       3 GLC5        0.0000 
    102 CA         28.2170   -2.8300    3.7590 C.3       9 GLL5        0.0000 
@<TRIPOS>BOND
@<TRIPOS>SUBSTRUCTURE
     1 ALC1       15 GROUP        1 X    ALC  0     ROOT ALC X 1
     2 SEC2        1 GROUP        1 X    SEC  0     **** SEC X 2
     3 GLC5        4 GROUP        1 X    GLC  0     **** GLC X 6
     4 ALP1       17 GROUP        1 Y    ALP  0     ROOT ALP Y 8
     5 SEP2        3 GROUP        1 Y    SEP  0     **** SEP Y 9
     6 GLP5        6 GROUP        1 Y    GLP  0     **** GLP Y 13
     7 ALL1       16 GROUP        1 Z    ALL  0     ROOT ALL Z 15
     8 SEL2        2 GROUP        1 Z    SEL  0     **** SEL Z 16
     9 GLL5        5 GROUP        1 Z    GLL  0     **** GLL Z 20
@<TRIPOS>SET

