#    Name: 2hfp_NSI_2_ligand
#    Modification time : Tue Mar 25 16:20:14 2014

@<TRIPOS>MOLECULE
2hfp_NSI_2_ligand
   63    67     1     0     0
SMALL
NO_CHARGES


@<TRIPOS>ATOM
      1 O52        31.2170    0.5780    3.1730 O.2       1 NSI479      0.0000 
      2 S48        31.5810   -0.8050    3.3920 S.o2      1 NSI479      0.0000 
      3 O50        32.6170   -0.6180    4.3670 O.2       1 NSI479      0.0000 
      4 C51        31.9860   -1.3700    1.9280 C.ar      1 NSI479      0.0000 
      5 C55        32.4230   -2.6960    1.7610 C.ar      1 NSI479      0.0000 
      6 C56        32.7730   -3.2080    0.5130 C.ar      1 NSI479      0.0000 
      7 C53        32.6660   -2.3970   -0.6110 C.ar      1 NSI479      0.0000 
      8 C57        32.2190   -1.0860   -0.4640 C.ar      1 NSI479      0.0000 
      9 C54        31.8830   -0.5680    0.7890 C.ar      1 NSI479      0.0000 
     10 N17        30.3090   -1.5000    3.9330 N.am      1 NSI479      0.0000 
     11 C15        29.3430   -2.0430    3.1390 C.2       1 NSI479      0.0000 
     12 O16        29.1110   -1.5690    2.0270 O.2       1 NSI479      0.0000 
     13 C13        28.2170   -2.8300    3.7590 C.2       1 NSI479      0.0000 
     14 N10        26.9840   -2.3730    4.0900 N.pl3     1 NSI479      0.0000 
     15 C12        26.5160   -0.9860    4.0370 C.3       1 NSI479      0.0000 
     16 C34        25.4560   -0.8280    2.9880 C.ar      1 NSI479      0.0000 
     17 C37        24.2150   -0.2420    3.2310 C.ar      1 NSI479      0.0000 
     18 C38        23.3230   -0.1250    2.1500 C.ar      1 NSI479      0.0000 
     19 C36        25.7600   -1.2970    1.7170 C.ar      1 NSI479      0.0000 
     20 C39        24.8720   -1.1950    0.6520 C.ar      1 NSI479      0.0000 
     21 C43        25.3250   -1.7150   -0.6670 C.3       1 NSI479      0.0000 
     22 F47        24.4570   -1.3430   -1.5940 F         1 NSI479      0.0000 
     23 F46        25.3980   -3.0320   -0.6430 F         1 NSI479      0.0000 
     24 F45        26.4580   -1.1830   -1.0680 F         1 NSI479      0.0000 
     25 C35        23.6310   -0.6130    0.8680 C.ar      1 NSI479      0.0000 
     26 C6         26.2360   -3.3870    4.5270 C.ar      1 NSI479      0.0000 
     27 C2         24.9190   -3.4520    4.9910 C.ar      1 NSI479      0.0000 
     28 C5         24.3880   -4.6890    5.3820 C.ar      1 NSI479      0.0000 
     29 C4         25.1700   -5.8330    5.3300 C.ar      1 NSI479      0.0000 
     30 C1         26.4810   -5.7770    4.8670 C.ar      1 NSI479      0.0000 
     31 C7         28.2790   -4.2180    3.9610 C.2       1 NSI479      0.0000 
     32 C3         27.0110   -4.5460    4.4650 C.ar      1 NSI479      0.0000 
     33 C14        29.1960   -5.1250    3.4050 C.ar      1 NSI479      0.0000 
     34 C20        28.7350   -6.2540    2.7310 C.ar      1 NSI479      0.0000 
     35 C21        29.6020   -7.2820    2.3670 C.ar      1 NSI479      0.0000 
     36 C19        30.5490   -5.0290    3.7170 C.ar      1 NSI479      0.0000 
     37 C22        31.4300   -6.0520    3.3490 C.ar      1 NSI479      0.0000 
     38 C18        30.9630   -7.1790    2.6720 C.ar      1 NSI479      0.0000 
     39 O27        31.8540   -8.1810    2.3260 O.3       1 NSI479      0.0000 
     40 C28        31.8070   -8.8380    1.0590 C.3       1 NSI479      0.0000 
     41 H          32.4852   -3.3096    2.5982 H         1 NSI479      0.0000 
     42 H          33.1055   -4.1720    0.4264 H         1 NSI479      0.0000 
     43 H          32.9123   -2.7576   -1.5357 H         1 NSI479      0.0000 
     44 H          32.1333   -0.4805   -1.3011 H         1 NSI479      0.0000 
     45 H          31.5601    0.4028    0.8728 H         1 NSI479      0.0000 
     46 H          30.2561   -1.5161    4.9702 H         1 NSI479      0.0000 
     47 H          27.3497   -0.3103    3.8059 H         1 NSI479      0.0000 
     48 H          26.1036   -0.6848    5.0087 H         1 NSI479      0.0000 
     49 H          23.9594    0.0891    4.1497 H         1 NSI479      0.0000 
     50 H          22.4057    0.3376    2.3042 H         1 NSI479      0.0000 
     51 H          26.6915   -1.7438    1.5538 H         1 NSI479      0.0000 
     52 H          22.9487   -0.5367    0.1156 H         1 NSI479      0.0000 
     53 H          24.3479   -2.6077    5.0453 H         1 NSI479      0.0000 
     54 H          23.4135   -4.7414    5.7079 H         1 NSI479      0.0000 
     55 H          24.7768   -6.7380    5.6380 H         1 NSI479      0.0000 
     56 H          27.0522   -6.6220    4.8198 H         1 NSI479      0.0000 
     57 H          27.7289   -6.3304    2.4962 H         1 NSI479      0.0000 
     58 H          29.2472   -8.1092    1.8789 H         1 NSI479      0.0000 
     59 H          30.9053   -4.2059    4.2190 H         1 NSI479      0.0000 
     60 H          32.4299   -5.9707    3.5804 H         1 NSI479      0.0000 
     61 H          31.9335   -8.1960    0.3028 H         1 NSI479      0.0000 
     62 H          32.5201   -9.5340    0.9749 H         1 NSI479      0.0000 
     63 H          30.9308   -9.2966    0.9107 H         1 NSI479      0.0000 
@<TRIPOS>BOND
     1    2    1 2    
     2    3    2 2    
     3    4    2 1    
     4   10    2 1    
     5    5    4 ar   
     6    9    4 ar   
     7    6    5 ar   
     8   41    5 1    
     9    7    6 ar   
    10   42    6 1    
    11    8    7 ar   
    12   43    7 1    
    13    9    8 ar   
    14   44    8 1    
    15   45    9 1    
    16   11   10 am   
    17   46   10 1    
    18   12   11 2    
    19   13   11 1    
    20   14   13 1    
    21   31   13 2    
    22   15   14 1    
    23   26   14 1    
    24   16   15 1    
    25   47   15 1    
    26   48   15 1    
    27   17   16 ar   
    28   19   16 ar   
    29   18   17 ar   
    30   49   17 1    
    31   25   18 ar   
    32   50   18 1    
    33   20   19 ar   
    34   51   19 1    
    35   21   20 1    
    36   25   20 ar   
    37   22   21 1    
    38   23   21 1    
    39   24   21 1    
    40   52   25 1    
    41   27   26 ar   
    42   32   26 ar   
    43   28   27 ar   
    44   53   27 1    
    45   29   28 ar   
    46   54   28 1    
    47   30   29 ar   
    48   55   29 1    
    49   32   30 ar   
    50   56   30 1    
    51   32   31 1    
    52   33   31 1    
    53   34   33 ar   
    54   36   33 ar   
    55   35   34 ar   
    56   57   34 1    
    57   38   35 ar   
    58   58   35 1    
    59   37   36 ar   
    60   59   36 1    
    61   38   37 ar   
    62   60   37 1    
    63   39   38 1    
    64   40   39 1    
    65   61   40 1    
    66   62   40 1    
    67   63   40 1    
@<TRIPOS>SUBSTRUCTURE
     1 NSI479      1 GROUP   
@<TRIPOS>SET

