#    Name: 4eu5_COA_2_INTS_M
#    Modification time : Mon Mar 24 18:37:45 2014

@<TRIPOS>MOLECULE
4eu5_COA_2_INTS_M
   88     0    12     0     0
SMALL
NO_CHARGES


@<TRIPOS>ATOM
      1 CA        -11.2590  -15.5895  -39.1760 C.3       4 GLC5        0.0000 
      2 CA        -11.6490  -16.7250  -41.0400 C.3      12 GLL5        0.0000 
      3 CA        -10.8690  -14.4540  -37.3120 C.3       8 GLP5        0.0000 
      4 CA        -12.8585  -15.2620  -41.4175 C.3       4 GLC5        0.0000 
      5 CA        -14.0680  -13.7990  -41.7950 C.3       8 GLP5        0.0000 
      6 CA         -9.9665  -18.1625  -41.1600 C.3       4 GLC5        0.0000 
      7 CA         -8.2840  -19.6000  -41.2800 C.3       8 GLP5        0.0000 
      8 CA        -10.8300  -16.4830  -42.6490 C.3       4 GLC5        0.0000 
      9 CA        -10.0110  -16.2410  -44.2580 C.3       8 GLP5        0.0000 
     10 CA        -12.1755  -17.2865  -37.5800 C.3       4 GLC5        0.0000 
     11 CA        -11.5390  -18.2680  -39.2970 C.3      12 GLL5        0.0000 
     12 CA        -12.8120  -16.3050  -35.8630 C.3       8 GLP5        0.0000 
     13 CA         -8.5910  -16.3210  -41.2870 C.3       4 GLC5        0.0000 
     14 CA         -9.7580  -16.7080  -39.6850 C.3      12 GLL5        0.0000 
     15 CA         -7.4240  -15.9340  -42.8890 C.3       8 GLP5        0.0000 
     16 O          -8.1660  -16.1335  -37.9820 O.2       1 ALC1        0.0000 
     17 O          -8.4640  -16.1730  -39.3450 O.2       9 ALL1        0.0000 
     18 O          -7.8680  -16.0940  -36.6190 O.2       5 ALP1        0.0000 
     19 O          -7.8115  -14.8730  -39.9360 O.2       1 ALC1        0.0000 
     20 O          -7.1590  -13.5730  -40.5270 O.2       5 ALP1        0.0000 
     21 CA        -14.8185  -19.2640  -38.3465 C.3       4 GLC5        0.0000 
     22 CA        -13.0080  -20.0550  -38.4860 C.3      12 GLL5        0.0000 
     23 CA        -16.6290  -18.4730  -38.2070 C.3       8 GLP5        0.0000 
     24 NZ        -15.7155  -21.8535  -42.1035 N.4       3 LYC4        0.0000 
     25 NZ        -16.9650  -22.4010  -40.6900 N.4      11 LYL4        0.0000 
     26 NZ        -14.4660  -21.3060  -43.5170 N.4       7 LYP4        0.0000 
     27 NZ        -14.5980  -22.3275  -42.3960 N.4       3 LYC4        0.0000 
     28 NZ        -14.7300  -23.3490  -41.2750 N.4      11 LYL4        0.0000 
     29 N         -14.5980  -22.3275  -42.3960 N.am      2 SEC2        0.0000 
     30 N         -14.7300  -23.3490  -41.2750 N.am     10 SEL2        0.0000 
     31 N         -14.4660  -21.3060  -43.5170 N.am      6 SEP2        0.0000 
     32 CA        -15.3240  -20.0290  -37.6705 C.3       4 GLC5        0.0000 
     33 CA        -14.0190  -21.5850  -37.1340 C.3      12 GLL5        0.0000 
     34 N         -12.0465  -25.8935  -34.6595 N.am      2 SEC2        0.0000 
     35 N         -11.3530  -24.8330  -35.5200 N.am     10 SEL2        0.0000 
     36 N         -12.7400  -26.9540  -33.7990 N.am      6 SEP2        0.0000 
     37 N         -12.1550  -25.1430  -31.7455 N.am      2 SEC2        0.0000 
     38 N         -12.4400  -24.1710  -32.8190 N.am     10 SEL2        0.0000 
     39 N         -11.8700  -26.1150  -30.6720 N.am      6 SEP2        0.0000 
     40 N          -9.8005  -24.4750  -31.1105 N.am      2 SEC2        0.0000 
     41 N         -10.5650  -23.0050  -31.6600 N.am     10 SEL2        0.0000 
     42 N          -9.0360  -25.9450  -30.5610 N.am      6 SEP2        0.0000 
     43 CA        -10.5985  -17.2875  -32.0200 C.3       4 GLC5        0.0000 
     44 CA        -12.2520  -17.9570  -32.2340 C.3      12 GLL5        0.0000 
     45 CA         -8.9450  -16.6180  -31.8060 C.3       8 GLP5        0.0000 
     46 CA        -12.5320  -17.1310  -34.0485 C.3       4 GLC5        0.0000 
     47 CA        -13.4460  -17.7765  -34.6230 C.3       4 GLC5        0.0000 
     48 CA        -14.0800  -19.2480  -33.3830 C.3      12 GLL5        0.0000 
     49 CA        -15.5100  -18.5725  -34.4425 C.3       4 GLC5        0.0000 
     50 CA        -16.9400  -17.8970  -35.5020 C.3       8 GLP5        0.0000 
     51 O         -12.6595  -21.0930  -28.9475 O.2       1 ALC1        0.0000 
     52 O         -12.5730  -19.9090  -30.0340 O.2       9 ALL1        0.0000 
     53 O         -12.7460  -22.2770  -27.8610 O.2       5 ALP1        0.0000 
     54 N         -16.6885  -19.1405  -31.5815 N.am      2 SEC2        0.0000 
     55 N         -15.6180  -18.4760  -30.9010 N.am     10 SEL2        0.0000 
     56 N         -17.7590  -19.8050  -32.2620 N.am      6 SEP2        0.0000 
     57 CA        -13.7225  -15.0835  -29.3915 C.3       4 GLC5        0.0000 
     58 CA        -14.9170  -16.7970  -28.8220 C.3      12 GLL5        0.0000 
     59 CA        -12.5280  -13.3700  -29.9610 C.3       8 GLP5        0.0000 
     60 CA        -17.3795  -17.0390  -27.6200 C.3       4 GLC5        0.0000 
     61 CA        -15.4550  -17.1720  -27.4490 C.3      12 GLL5        0.0000 
     62 CA        -19.3040  -16.9060  -27.7910 C.3       8 GLP5        0.0000 
     63 CA        -16.8025  -15.9815  -26.1280 C.3       4 GLC5        0.0000 
     64 CA        -18.1500  -14.7910  -24.8070 C.3       8 GLP5        0.0000 
     65 O         -16.0560  -17.9345  -24.5560 O.2       1 ALC1        0.0000 
     66 O         -14.7770  -17.8890  -25.1080 O.2       9 ALL1        0.0000 
     67 O         -17.3350  -17.9800  -24.0040 O.2       5 ALP1        0.0000 
     68 CA        -13.2205  -16.1725  -23.7525 C.3       4 GLC5        0.0000 
     69 CA        -13.7670  -17.9580  -24.0340 C.3      12 GLL5        0.0000 
     70 CA        -12.6740  -14.3870  -23.4710 C.3       8 GLP5        0.0000 
     71 CA        -13.5635  -20.8000  -23.3895 C.3       4 GLC5        0.0000 
     72 CA        -15.2220  -20.0770  -22.9710 C.3      12 GLL5        0.0000 
     73 CA        -11.9050  -21.5230  -23.8080 C.3       8 GLP5        0.0000 
     74 CA        -15.9855  -21.1855  -24.1765 C.3       4 GLC5        0.0000 
     75 CA        -16.7490  -22.2940  -25.3820 C.3       8 GLP5        0.0000 
     76 CA        -15.5855  -22.1060  -22.4305 C.3       4 GLC5        0.0000 
     77 CA        -15.9490  -24.1350  -21.8900 C.3       8 GLP5        0.0000 
     78 CA        -10.4465  -15.8443  -38.3120 C.3       4 GLC5        0.0000 
     79 CA        -10.2900  -17.7610  -38.9390 C.3      12 GLL5        0.0000 
     80 CA         -9.3101  -18.4806  -40.3407 C.3       4 GLC5        0.0000 
     81 CA        -15.4315  -18.9352  -27.6562 C.3       4 GLC5        0.0000 
     82 CA        -15.6770  -20.8860  -27.1770 C.3       8 GLP5        0.0000 
     83 CA        -12.9620  -19.8942  -23.5975 C.3       4 GLC5        0.0000 
     84 CA        -15.0035  -16.5968  -22.5360 C.3       4 GLC5        0.0000 
     85 CA        -14.2710  -18.5730  -22.7400 C.3      12 GLL5        0.0000 
     86 CA        -15.9880  -14.9280  -21.6850 C.3       8 GLP5        0.0000 
     87 CA        -15.5213  -19.6325  -21.0048 C.3       4 GLC5        0.0000 
     88 CA        -16.2960  -19.9400  -19.1540 C.3       8 GLP5        0.0000 
@<TRIPOS>BOND
@<TRIPOS>SUBSTRUCTURE
     1 ALC1       16 GROUP        1 X    ALC  0     ROOT ALC X 1
     2 SEC2       29 GROUP        1 X    SEC  0     **** SEC X 2
     3 LYC4       24 GROUP        1 X    LYC  0     **** LYC X 4
     4 GLC5        1 GROUP        1 X    GLC  0     **** GLC X 6
     5 ALP1       18 GROUP        1 Y    ALP  0     ROOT ALP Y 8
     6 SEP2       31 GROUP        1 Y    SEP  0     **** SEP Y 9
     7 LYP4       26 GROUP        1 Y    LYP  0     **** LYP Y 11
     8 GLP5        3 GROUP        1 Y    GLP  0     **** GLP Y 13
     9 ALL1       17 GROUP        1 Z    ALL  0     ROOT ALL Z 15
    10 SEL2       30 GROUP        1 Z    SEL  0     **** SEL Z 16
    11 LYL4       25 GROUP        1 Z    LYL  0     **** LYL Z 18
    12 GLL5        2 GROUP        1 Z    GLL  0     **** GLL Z 20
@<TRIPOS>SET

