#    Name: 4eu5_COA_2_ligand
#    Modification time : Mon Mar 24 18:37:45 2014

@<TRIPOS>MOLECULE
4eu5_COA_2_ligand
   79    81     1     0     0
SMALL
NO_CHARGES


@<TRIPOS>ATOM
      1 N1A       -10.4600  -16.2100  -40.7180 N.ar      1 COA2598     0.0000 
      2 C2A       -11.6490  -16.7250  -41.0400 C.ar      1 COA2598     0.0000 
      3 N3A       -12.1900  -17.7390  -40.3480 N.ar      1 COA2598     0.0000 
      4 C4A       -11.5390  -18.2680  -39.2970 C.ar      1 COA2598     0.0000 
      5 C5A       -10.2900  -17.7610  -38.9390 C.ar      1 COA2598     0.0000 
      6 C6A        -9.7580  -16.7080  -39.6850 C.ar      1 COA2598     0.0000 
      7 N6A        -8.4640  -16.1730  -39.3450 N.pl3     1 COA2598     0.0000 
      8 N7A        -9.8650  -18.4610  -37.8670 N.2       1 COA2598     0.0000 
      9 C8A       -10.8010  -19.3820  -37.5650 C.2       1 COA2598     0.0000 
     10 N9A       -11.8140  -19.2680  -38.4370 N.pl3     1 COA2598     0.0000 
     11 C1B       -13.0080  -20.0550  -38.4860 C.3       1 COA2598     0.0000 
     12 C2B       -12.7420  -21.4290  -39.0250 C.3       1 COA2598     0.0000 
     13 O2B       -12.8250  -21.4450  -40.4080 O.3       1 COA2598     0.0000 
     14 C3B       -13.7970  -22.1820  -38.4540 C.3       1 COA2598     0.0000 
     15 O3B       -14.9810  -21.9200  -39.1760 O.3       1 COA2598     0.0000 
     16 P3B       -15.6850  -23.0110  -40.1370 P.3       1 COA2598     0.0000 
     17 O7A       -15.9960  -24.2480  -39.3360 O.co2     1 COA2598     0.0000 
     18 O8A       -16.9650  -22.4010  -40.6900 O.co2     1 COA2598     0.0000 
     19 O9A       -14.7300  -23.3490  -41.2750 O.co2     1 COA2598     0.0000 
     20 C4B       -14.0190  -21.5850  -37.1340 C.3       1 COA2598     0.0000 
     21 O4B       -13.5120  -20.2700  -37.2080 O.3       1 COA2598     0.0000 
     22 C5B       -13.2760  -22.3450  -36.1140 C.3       1 COA2598     0.0000 
     23 O5B       -11.8900  -22.4950  -36.3950 O.3       1 COA2598     0.0000 
     24 P1A       -10.8940  -23.3860  -35.5420 P.3       1 COA2598     0.0000 
     25 O1A        -9.5400  -23.2450  -36.2180 O.co2     1 COA2598     0.0000 
     26 O2A       -11.3530  -24.8330  -35.5200 O.co2     1 COA2598     0.0000 
     27 O3A       -10.6920  -22.7640  -34.0950 O.3       1 COA2598     0.0000 
     28 P2A       -11.5460  -22.9500  -32.7930 P.3       1 COA2598     0.0000 
     29 O4A       -12.4400  -24.1710  -32.8190 O.co2     1 COA2598     0.0000 
     30 O5A       -10.5650  -23.0050  -31.6600 O.co2     1 COA2598     0.0000 
     31 O6A       -12.4780  -21.7070  -32.6320 O.3       1 COA2598     0.0000 
     32 CBP       -12.9730  -19.3190  -32.3510 C.3       1 COA2598     0.0000 
     33 CCP       -11.9940  -20.4340  -32.8030 C.3       1 COA2598     0.0000 
     34 CDP       -12.2520  -17.9570  -32.2340 C.3       1 COA2598     0.0000 
     35 CEP       -14.0800  -19.2480  -33.3830 C.3       1 COA2598     0.0000 
     36 CAP       -13.5730  -19.7080  -30.9910 C.3       1 COA2598     0.0000 
     37 OAP       -12.5730  -19.9090  -30.0340 O.3       1 COA2598     0.0000 
     38 C9P       -14.5130  -18.6790  -30.3960 C.2       1 COA2598     0.0000 
     39 O9P       -15.6180  -18.4760  -30.9010 O.2       1 COA2598     0.0000 
     40 N8P       -14.0000  -17.7640  -29.3940 N.am      1 COA2598     0.0000 
     41 C7P       -14.9170  -16.7970  -28.8220 C.3       1 COA2598     0.0000 
     42 C6P       -15.4550  -17.1720  -27.4490 C.3       1 COA2598     0.0000 
     43 C5P       -14.3710  -17.5280  -26.4400 C.2       1 COA2598     0.0000 
     44 O5P       -13.1840  -17.4030  -26.6810 O.2       1 COA2598     0.0000 
     45 N4P       -14.7770  -17.8890  -25.1080 N.am      1 COA2598     0.0000 
     46 C3P       -13.7670  -17.9580  -24.0340 C.3       1 COA2598     0.0000 
     47 C2P       -14.2710  -18.5730  -22.7400 C.3       1 COA2598     0.0000 
     48 S1P       -15.2220  -20.0770  -22.9710 S.3       1 COA2598     0.0000 
     49 H         -12.1807  -16.3249  -41.8620 H         1 COA2598     0.0000 
     50 H          -8.0261  -16.5621  -38.5346 H         1 COA2598     0.0000 
     51 H          -8.1116  -15.4571  -39.9478 H         1 COA2598     0.0000 
     52 H         -10.7479  -20.0201  -36.8371 H         1 COA2598     0.0000 
     53 H         -13.7538  -19.5975  -39.1192 H         1 COA2598     0.0000 
     54 H         -11.8039  -21.7537  -38.6419 H         1 COA2598     0.0000 
     55 H         -13.5809  -23.1908  -38.3657 H         1 COA2598     0.0000 
     56 H         -15.0622  -21.5881  -36.9105 H         1 COA2598     0.0000 
     57 H         -13.7623  -23.3480  -35.9952 H         1 COA2598     0.0000 
     58 H         -13.4225  -21.8439  -35.1220 H         1 COA2598     0.0000 
     59 H         -11.7411  -20.2041  -33.8693 H         1 COA2598     0.0000 
     60 H         -11.0428  -20.2509  -32.2414 H         1 COA2598     0.0000 
     61 H         -14.1485  -20.6324  -31.1276 H         1 COA2598     0.0000 
     62 H         -13.0489  -17.7989  -29.1083 H         1 COA2598     0.0000 
     63 H         -15.7897  -16.6390  -29.4968 H         1 COA2598     0.0000 
     64 H         -14.4284  -15.7993  -28.7340 H         1 COA2598     0.0000 
     65 H         -16.1417  -18.0286  -27.5540 H         1 COA2598     0.0000 
     66 H         -16.0494  -16.3311  -27.0542 H         1 COA2598     0.0000 
     67 H         -15.7345  -18.0952  -24.8940 H         1 COA2598     0.0000 
     68 H         -13.3836  -16.9402  -23.8089 H         1 COA2598     0.0000 
     69 H         -12.8880  -18.5435  -24.3779 H         1 COA2598     0.0000 
     70 H         -14.9622  -17.9373  -22.2049 H         1 COA2598     0.0000 
     71 H         -13.4767  -18.8955  -22.0818 H         1 COA2598     0.0000 
     72 H         -11.5070  -17.9872  -31.5676 H         1 COA2598     0.0000 
     73 H         -11.8540  -17.6714  -33.1058 H         1 COA2598     0.0000 
     74 H         -12.8752  -17.2306  -31.9443 H         1 COA2598     0.0000 
     75 H         -13.7256  -19.0363  -34.2938 H         1 COA2598     0.0000 
     76 H         -14.5763  -20.1131  -33.4554 H         1 COA2598     0.0000 
     77 H         -14.7521  -18.5423  -33.1587 H         1 COA2598     0.0000 
     78 H         -13.0649  -22.3872  -40.6419 H         1 COA2598     0.0000 
     79 H         -12.8645  -20.7163  -29.5208 H         1 COA2598     0.0000 
@<TRIPOS>BOND
     1    2    1 ar   
     2    6    1 ar   
     3    3    2 ar   
     4   49    2 1    
     5    4    3 ar   
     6    5    4 ar   
     7   10    4 1    
     8    6    5 ar   
     9    8    5 1    
    10    7    6 1    
    11   50    7 1    
    12   51    7 1    
    13    9    8 2    
    14   10    9 1    
    15   52    9 1    
    16   11   10 1    
    17   12   11 1    
    18   21   11 1    
    19   53   11 1    
    20   13   12 1    
    21   14   12 1    
    22   54   12 1    
    23   78   13 1    
    24   15   14 1    
    25   20   14 1    
    26   55   14 1    
    27   16   15 1    
    28   17   16 ar   
    29   18   16 ar   
    30   19   16 ar   
    31   21   20 1    
    32   22   20 1    
    33   56   20 1    
    34   23   22 1    
    35   57   22 1    
    36   58   22 1    
    37   24   23 1    
    38   25   24 ar   
    39   26   24 ar   
    40   27   24 1    
    41   28   27 1    
    42   29   28 ar   
    43   30   28 ar   
    44   31   28 1    
    45   33   31 1    
    46   33   32 1    
    47   34   32 1    
    48   35   32 1    
    49   36   32 1    
    50   59   33 1    
    51   60   33 1    
    52   72   34 1    
    53   73   34 1    
    54   74   34 1    
    55   75   35 1    
    56   76   35 1    
    57   77   35 1    
    58   37   36 1    
    59   38   36 1    
    60   61   36 1    
    61   79   37 1    
    62   39   38 2    
    63   40   38 am   
    64   41   40 1    
    65   62   40 1    
    66   42   41 1    
    67   63   41 1    
    68   64   41 1    
    69   43   42 1    
    70   65   42 1    
    71   66   42 1    
    72   44   43 2    
    73   45   43 am   
    74   46   45 1    
    75   67   45 1    
    76   47   46 1    
    77   68   46 1    
    78   69   46 1    
    79   48   47 1    
    80   70   47 1    
    81   71   47 1    
@<TRIPOS>SUBSTRUCTURE
     1 COA2598     1 GROUP   
@<TRIPOS>SET

