#    Name: 2r8p_T6F_1_INTS_M
#    Modification time : Mon Mar 24 23:25:35 2014

@<TRIPOS>MOLECULE
2r8p_T6F_1_INTS_M
  128     0    12     0     0
SMALL
NO_CHARGES


@<TRIPOS>ATOM
      1 N          17.1550  -15.7930    4.0280 N.am      2 SEC2        0.0000 
      2 N          16.9520  -16.9400    5.1400 N.am     10 SEL2        0.0000 
      3 N          17.3580  -14.6460    2.9160 N.am      6 SEP2        0.0000 
      4 N          17.3650  -17.3685    2.3770 N.am      2 SEC2        0.0000 
      5 N          15.9150  -17.9760    2.9810 N.am     10 SEL2        0.0000 
      6 N          18.8150  -16.7610    1.7730 N.am      6 SEP2        0.0000 
      7 N          16.7500  -20.0135    7.1350 N.am      2 SEC2        0.0000 
      8 N          16.9950  -20.6820    5.9690 N.am     10 SEL2        0.0000 
      9 N          16.5050  -19.3450    8.3010 N.am      6 SEP2        0.0000 
     10 N          16.3960  -22.0205    2.9680 N.am      2 SEC2        0.0000 
     11 N          15.8300  -20.9170    3.7180 N.am     10 SEL2        0.0000 
     12 N          16.9620  -23.1240    2.2180 N.am      6 SEP2        0.0000 
     13 N          17.1395  -20.3485    2.9965 N.am      2 SEC2        0.0000 
     14 N          18.4490  -19.7800    2.2750 N.am      6 SEP2        0.0000 
     15 N          13.5480  -20.7750    6.5835 N.am      2 SEC2        0.0000 
     16 N          14.5870  -21.2290    5.8730 N.am     10 SEL2        0.0000 
     17 N          12.5090  -20.3210    7.2940 N.am      6 SEP2        0.0000 
     18 CA         12.7910  -16.7770    3.5200 C.3       4 GLC5        0.0000 
     19 CA         13.5620  -16.8490    5.5630 C.3      12 GLL5        0.0000 
     20 CA         12.0200  -16.7050    1.4770 C.3       8 GLP5        0.0000 
     21 CA         11.4985  -17.0840    5.9965 C.3       4 GLC5        0.0000 
     22 CA          9.4350  -17.3190    6.4300 C.3       8 GLP5        0.0000 
     23 CA         13.0865  -18.0595    6.8255 C.3       4 GLC5        0.0000 
     24 CA         12.6110  -19.2700    8.0880 C.3       8 GLP5        0.0000 
     25 CA         13.3670  -13.7040    4.6940 C.3       4 GLC5        0.0000 
     26 CA         13.3140  -15.3920    5.8650 C.3      12 GLL5        0.0000 
     27 CA         13.4200  -12.0160    3.5230 C.3       8 GLP5        0.0000 
     28 CA         14.7760  -17.4505    9.5715 C.3       4 GLC5        0.0000 
     29 CA         13.5030  -16.0800    8.7580 C.3      12 GLL5        0.0000 
     30 CA         16.0490  -18.8210   10.3850 C.3       8 GLP5        0.0000 
     31 CA         14.5780  -14.4735    8.0940 C.3       4 GLC5        0.0000 
     32 CA         15.6530  -12.8670    7.4300 C.3       8 GLP5        0.0000 
     33 N          12.3870  -13.8095   13.2675 N.am      2 SEC2        0.0000 
     34 N          11.8120  -14.3270   12.1320 N.am     10 SEL2        0.0000 
     35 N          12.9620  -13.2920   14.4030 N.am      6 SEP2        0.0000 
     36 CA         12.7915  -18.4225   11.8570 C.3       4 GLC5        0.0000 
     37 CA         13.1270  -16.2930   12.0220 C.3      12 GLL5        0.0000 
     38 CA         12.4560  -20.5520   11.6920 C.3       8 GLP5        0.0000 
     39 CA         14.3760  -17.5265   11.9210 C.3       4 GLC5        0.0000 
     40 CA         15.6250  -18.7600   11.8200 C.3       8 GLP5        0.0000 
     41 N          13.5945  -14.3875   13.4545 N.am      2 SEC2        0.0000 
     42 N          14.2270  -15.4830   12.5060 N.am     10 SEL2        0.0000 
     43 O          14.7315  -16.0025   13.7150 O.2       1 ALC1        0.0000 
     44 O          14.2270  -15.4830   12.5060 O.2       9 ALL1        0.0000 
     45 O          15.2360  -16.5220   14.9240 O.2       5 ALP1        0.0000 
     46 CA         10.1485  -16.3265    9.3845 C.3       4 GLC5        0.0000 
     47 CA         10.6970  -16.2300   11.1320 C.3      12 GLL5        0.0000 
     48 CA          9.6000  -16.4230    7.6370 C.3       8 GLP5        0.0000 
     49 N          11.4325  -18.5665   11.5765 N.am      2 SEC2        0.0000 
     50 N          10.8990  -17.5690   10.6440 N.am     10 SEL2        0.0000 
     51 N          11.9660  -19.5640   12.5090 N.am      6 SEP2        0.0000 
     52 N          11.1710  -18.3235    9.6610 N.am      2 SEC2        0.0000 
     53 N          11.4430  -19.0780    8.6780 N.am      6 SEP2        0.0000 
     54 CA          9.2705  -14.4805   12.3385 C.3       4 GLC5        0.0000 
     55 CA          9.7650  -16.3110   12.3610 C.3      12 GLL5        0.0000 
     56 CA          8.7760  -12.6500   12.3160 C.3       8 GLP5        0.0000 
     57 N          11.1455  -18.3695   12.9365 N.am      2 SEC2        0.0000 
     58 N          10.3250  -17.1750   13.3640 N.am     10 SEL2        0.0000 
     59 O          10.2745  -16.6670   14.5850 O.2       1 ALC1        0.0000 
     60 O          10.3250  -17.1750   13.3640 O.2       9 ALL1        0.0000 
     61 O          10.2240  -16.1590   15.8060 O.2       5 ALP1        0.0000 
     62 O           6.2645  -15.9380   10.5755 O.2       1 ALC1        0.0000 
     63 O           7.7560  -16.1190   10.9360 O.2       9 ALL1        0.0000 
     64 O           4.7730  -15.7570   10.2150 O.2       5 ALP1        0.0000 
     65 N           5.4660  -16.5810   11.4790 N.am      2 SEC2        0.0000 
     66 N           6.1590  -17.4050   12.7430 N.am     10 SEL2        0.0000 
     67 N           4.7730  -15.7570   10.2150 N.am      6 SEP2        0.0000 
     68 N           2.4440  -15.9905   12.9080 N.am      2 SEC2        0.0000 
     69 N           3.7480  -16.8320   12.6270 N.am     10 SEL2        0.0000 
     70 N           1.1400  -15.1490   13.1890 N.am      6 SEP2        0.0000 
     71 N           4.2605  -16.2945   11.4210 N.am      2 SEC2        0.0000 
     72 NZ          4.4580  -16.5235   16.0110 N.4       3 LYC4        0.0000 
     73 NZ          5.1650  -16.2470   14.6860 N.4      11 LYL4        0.0000 
     74 NZ          4.2020  -17.9590   17.8130 N.4       7 LYP4        0.0000 
     75 N           4.6300  -14.9810   14.6915 N.am      2 SEC2        0.0000 
     76 N           5.1650  -16.2470   14.6860 N.am     10 SEL2        0.0000 
     77 N           4.0950  -13.7150   14.6970 N.am      6 SEP2        0.0000 
     78 N           4.4580  -16.5235   16.0110 N.am      2 SEC2        0.0000 
     79 N           3.7510  -16.8000   17.3360 N.am      6 SEP2        0.0000 
     80 NZ          4.5215  -18.8120   15.5665 N.4       3 LYC4        0.0000 
     81 NZ          4.5740  -18.6650   14.1590 N.4      11 LYL4        0.0000 
     82 N           4.5215  -18.8120   15.5665 N.am      2 SEC2        0.0000 
     83 N           4.5740  -18.6650   14.1590 N.am     10 SEL2        0.0000 
     84 N           4.4690  -18.9590   16.9740 N.am      6 SEP2        0.0000 
     85 CA         10.6675  -12.8535    4.9485 C.3       4 GLC5        0.0000 
     86 CA         11.4730  -13.2470    6.7670 C.3      12 GLL5        0.0000 
     87 CA          9.8620  -12.4600    3.1300 C.3       8 GLP5        0.0000 
     88 CA         12.4465  -12.6315    5.1450 C.3       4 GLC5        0.0000 
     89 CA          9.8985  -13.0590    9.1155 C.3       4 GLC5        0.0000 
     90 CA         11.8080  -12.7730    9.6860 C.3      12 GLL5        0.0000 
     91 CA          7.9890  -13.3450    8.5450 C.3       8 GLP5        0.0000 
     92 CA         10.2920  -12.7115   11.0010 C.3       4 GLC5        0.0000 
     93 CA         12.1720  -11.1970   11.1160 C.3       4 GLC5        0.0000 
     94 CA         12.5360   -9.6210   12.5460 C.3       8 GLP5        0.0000 
     95 O          15.5940  -12.7150   11.9200 O.2       1 ALC1        0.0000 
     96 O          14.4460  -12.7820   11.1720 O.2       9 ALL1        0.0000 
     97 O          16.7420  -12.6480   12.6680 O.2       5 ALP1        0.0000 
     98 N          16.5380  -10.7495   10.2850 N.am      2 SEC2        0.0000 
     99 N          14.9590  -10.7000   10.2570 N.am     10 SEL2        0.0000 
    100 N          18.1170  -10.7990   10.3130 N.am      6 SEP2        0.0000 
    101 CA         14.5140   -9.9825    7.3150 C.3       4 GLC5        0.0000 
    102 CA         14.6570   -9.6250    9.4970 C.3      12 GLL5        0.0000 
    103 CA         14.3710  -10.3400    5.1330 C.3       8 GLP5        0.0000 
    104 CA         16.8060   -9.3275   11.0340 C.3       4 GLC5        0.0000 
    105 CA         15.6130   -8.4710    9.4060 C.3      12 GLL5        0.0000 
    106 CA         17.9990  -10.1840   12.6620 C.3       8 GLP5        0.0000 
    107 CA         14.7675   -7.8355   10.9840 C.3       4 GLC5        0.0000 
    108 CA         13.9220   -7.2000   12.5620 C.3       8 GLP5        0.0000 
    109 CA         16.7615   -7.3605    9.8535 C.3       4 GLC5        0.0000 
    110 CA         17.9100   -6.2500   10.3010 C.3       8 GLP5        0.0000 
    111 CA         13.4865  -10.4545    7.0020 C.3       4 GLC5        0.0000 
    112 CA         12.6020  -10.5690    8.8710 C.3      12 GLL5        0.0000 
    113 CA         14.3755  -14.0888    7.0057 C.3       4 GLC5        0.0000 
    114 CA         12.8820  -15.2290    7.2980 C.3      12 GLL5        0.0000 
    115 CA         11.3490  -15.8667    7.1092 C.3       4 GLC5        0.0000 
    116 CA         11.3183  -15.9937    8.4947 C.3       4 GLC5        0.0000 
    117 CA         10.0720  -14.2518   11.7685 C.3       4 GLC5        0.0000 
    118 CA          7.6738  -14.9708   12.3925 C.3       4 GLC5        0.0000 
    119 CA          8.3760  -16.8610   12.0000 C.3      12 GLL5        0.0000 
    120 CA          7.4530  -13.0710   12.1910 C.3       8 GLP5        0.0000 
    121 CA         13.7548  -13.2690    7.3477 C.3       4 GLC5        0.0000 
    122 CA         12.2400  -14.0950    7.7640 C.3      12 GLL5        0.0000 
    123 CA         10.7282  -15.0470    7.4512 C.3       4 GLC5        0.0000 
    124 CA          9.9228  -13.5080    7.9053 C.3       4 GLC5        0.0000 
    125 CA         16.4165  -10.2925    8.7263 C.3       4 GLC5        0.0000 
    126 CA         17.6980  -11.5370    8.0010 C.3       8 GLP5        0.0000 
    127 CA         14.2804  -12.0716    8.4377 C.3       4 GLC5        0.0000 
    128 CA         14.0860  -11.7370   10.3690 C.3      12 GLL5        0.0000 
@<TRIPOS>BOND
@<TRIPOS>SUBSTRUCTURE
     1 ALC1       43 GROUP        1 X    ALC  0     ROOT ALC X 1
     2 SEC2        1 GROUP        1 X    SEC  0     **** SEC X 2
     3 LYC4       72 GROUP        1 X    LYC  0     **** LYC X 4
     4 GLC5       18 GROUP        1 X    GLC  0     **** GLC X 6
     5 ALP1       45 GROUP        1 Y    ALP  0     ROOT ALP Y 8
     6 SEP2        3 GROUP        1 Y    SEP  0     **** SEP Y 9
     7 LYP4       74 GROUP        1 Y    LYP  0     **** LYP Y 11
     8 GLP5       20 GROUP        1 Y    GLP  0     **** GLP Y 13
     9 ALL1       44 GROUP        1 Z    ALL  0     ROOT ALL Z 15
    10 SEL2        2 GROUP        1 Z    SEL  0     **** SEL Z 16
    11 LYL4       73 GROUP        1 Z    LYL  0     **** LYL Z 18
    12 GLL5       19 GROUP        1 Z    GLL  0     **** GLL Z 20
@<TRIPOS>SET

