#    Name: 2r8p_T6F_1_ligand
#    Modification time : Mon Mar 24 23:25:35 2014

@<TRIPOS>MOLECULE
2r8p_T6F_1_ligand
   69    70     1     0     0
SMALL
NO_CHARGES


@<TRIPOS>ATOM
      1 O2A        16.9520  -16.9400    5.1400 O.co2     1 T6F671      0.0000 
      2 PA         15.8500  -17.6750    4.4380 P.3       1 T6F671      0.0000 
      3 O1A        15.9150  -17.9760    2.9810 O.co2     1 T6F671      0.0000 
      4 O3A        15.4310  -18.9520    5.3240 O.3       1 T6F671      0.0000 
      5 PB         15.7160  -20.5310    5.1720 P.3       1 T6F671      0.0000 
      6 O3B        16.9950  -20.6820    5.9690 O.co2     1 T6F671      0.0000 
      7 O2B        15.8300  -20.9170    3.7180 O.co2     1 T6F671      0.0000 
      8 O1B        14.5870  -21.2290    5.8730 O.co2     1 T6F671      0.0000 
      9 O7         14.4830  -16.8340    4.4870 O.3       1 T6F671      0.0000 
     10 C7         13.5620  -16.8490    5.5630 C.3       1 T6F671      0.0000 
     11 C6         13.3140  -15.3920    5.8650 C.3       1 T6F671      0.0000 
     12 C5         12.8820  -15.2290    7.2980 C.2       1 T6F671      0.0000 
     13 S1         13.5030  -16.0800    8.7580 S.3       1 T6F671      0.0000 
     14 C2         12.5700  -15.0490    9.9470 C.2       1 T6F671      0.0000 
     15 CF2        12.0390  -15.4770   11.3100 C.3       1 T6F671      0.0000 
     16 OF2        11.8120  -14.3270   12.1320 O.3       1 T6F671      0.0000 
     17 CF1        13.1270  -16.2930   12.0220 C.3       1 T6F671      0.0000 
     18 OF1        14.2270  -15.4830   12.5060 O.3       1 T6F671      0.0000 
     19 CF3        10.6970  -16.2300   11.1320 C.3       1 T6F671      0.0000 
     20 OF3        10.8990  -17.5690   10.6440 O.3       1 T6F671      0.0000 
     21 CF4         9.7650  -16.3110   12.3610 C.3       1 T6F671      0.0000 
     22 OF4        10.3250  -17.1750   13.3640 O.3       1 T6F671      0.0000 
     23 CF5         8.3760  -16.8610   12.0000 C.3       1 T6F671      0.0000 
     24 OF5         7.7560  -16.1190   10.9360 O.3       1 T6F671      0.0000 
     25 CF6         7.4130  -16.8800   13.1880 C.3       1 T6F671      0.0000 
     26 OF6         6.1590  -17.4050   12.7430 O.3       1 T6F671      0.0000 
     27 PF          4.8090  -17.2640   13.6210 P.3       1 T6F671      0.0000 
     28 OF8         3.7480  -16.8320   12.6270 O.co2     1 T6F671      0.0000 
     29 OF7         5.1650  -16.2470   14.6860 O.co2     1 T6F671      0.0000 
     30 OF9         4.5740  -18.6650   14.1590 O.co2     1 T6F671      0.0000 
     31 N3         12.2510  -14.0340    9.1110 N.pl3     1 T6F671      0.0000 
     32 C4         12.2400  -14.0950    7.7640 C.2       1 T6F671      0.0000 
     33 CM4        11.4730  -13.2470    6.7670 C.3       1 T6F671      0.0000 
     34 C7         11.8080  -12.7730    9.6860 C.3       1 T6F671      0.0000 
     35 C5         12.8750  -11.6870    9.6550 C.ar      1 T6F671      0.0000 
     36 C4         14.0860  -11.7370   10.3690 C.ar      1 T6F671      0.0000 
     37 N4         14.4460  -12.7820   11.1720 N.pl3     1 T6F671      0.0000 
     38 N3         14.9590  -10.7000   10.2570 N.ar      1 T6F671      0.0000 
     39 C2         14.6570   -9.6250    9.4970 C.ar      1 T6F671      0.0000 
     40 CM2        15.6130   -8.4710    9.4060 C.3       1 T6F671      0.0000 
     41 N1         13.4860   -9.5610    8.8190 N.ar      1 T6F671      0.0000 
     42 C6         12.6020  -10.5690    8.8710 C.ar      1 T6F671      0.0000 
     43 H          13.9703  -17.3168    6.4447 H         1 T6F671      0.0000 
     44 H          12.6240  -17.3071    5.2925 H         1 T6F671      0.0000 
     45 H          12.5357  -15.0116    5.2036 H         1 T6F671      0.0000 
     46 H          14.2286  -14.8248    5.6927 H         1 T6F671      0.0000 
     47 H          13.4853  -17.0636   11.3113 H         1 T6F671      0.0000 
     48 H          12.6426  -16.8410   12.8541 H         1 T6F671      0.0000 
     49 H          10.1178  -15.6724   10.3462 H         1 T6F671      0.0000 
     50 H           9.6324  -15.3118   12.7542 H         1 T6F671      0.0000 
     51 H           8.5066  -17.9093   11.6824 H         1 T6F671      0.0000 
     52 H           7.3180  -15.8593   13.5584 H         1 T6F671      0.0000 
     53 H           7.8574  -17.4963   13.9695 H         1 T6F671      0.0000 
     54 H          11.4949  -12.9135   10.7402 H         1 T6F671      0.0000 
     55 H          10.9167  -12.3909    9.1487 H         1 T6F671      0.0000 
     56 H          13.7743  -13.5168   11.2655 H         1 T6F671      0.0000 
     57 H          15.3496  -12.7203   11.5959 H         1 T6F671      0.0000 
     58 H          11.7151  -10.5377    8.3395 H         1 T6F671      0.0000 
     59 H          12.0671  -12.8963    6.0431 H         1 T6F671      0.0000 
     60 H          10.7434  -13.7660    6.3217 H         1 T6F671      0.0000 
     61 H          11.0451  -12.4558    7.2040 H         1 T6F671      0.0000 
     62 H          16.5005   -8.7518    9.0406 H         1 T6F671      0.0000 
     63 H          15.2660   -7.7474    8.8093 H         1 T6F671      0.0000 
     64 H          15.7820   -8.0573   10.3006 H         1 T6F671      0.0000 
     65 H          10.8520  -14.0890   11.9845 H         1 T6F671      0.0000 
     66 H          14.7408  -16.0839   13.1183 H         1 T6F671      0.0000 
     67 H           9.9892  -17.9842   10.6435 H         1 T6F671      0.0000 
     68 H          10.6589  -16.5598   14.0782 H         1 T6F671      0.0000 
     69 H           6.7730  -16.2336   11.0794 H         1 T6F671      0.0000 
@<TRIPOS>BOND
     1    2    1 ar   
     2    3    2 ar   
     3    4    2 1    
     4    9    2 1    
     5    5    4 1    
     6    6    5 ar   
     7    7    5 ar   
     8    8    5 ar   
     9   10    9 1    
    10   11   10 1    
    11   43   10 1    
    12   44   10 1    
    13   12   11 1    
    14   45   11 1    
    15   46   11 1    
    16   13   12 1    
    17   32   12 2    
    18   14   13 1    
    19   15   14 1    
    20   31   14 2    
    21   16   15 1    
    22   17   15 1    
    23   19   15 1    
    24   65   16 1    
    25   18   17 1    
    26   47   17 1    
    27   48   17 1    
    28   66   18 1    
    29   20   19 1    
    30   21   19 1    
    31   49   19 1    
    32   67   20 1    
    33   22   21 1    
    34   23   21 1    
    35   50   21 1    
    36   68   22 1    
    37   24   23 1    
    38   25   23 1    
    39   51   23 1    
    40   69   24 1    
    41   26   25 1    
    42   52   25 1    
    43   53   25 1    
    44   27   26 1    
    45   28   27 ar   
    46   29   27 ar   
    47   30   27 ar   
    48   32   31 1    
    49   34   31 1    
    50   33   32 1    
    51   59   33 1    
    52   60   33 1    
    53   61   33 1    
    54   35   34 1    
    55   54   34 1    
    56   55   34 1    
    57   36   35 ar   
    58   42   35 ar   
    59   37   36 1    
    60   38   36 ar   
    61   56   37 1    
    62   57   37 1    
    63   39   38 ar   
    64   40   39 1    
    65   41   39 ar   
    66   62   40 1    
    67   63   40 1    
    68   64   40 1    
    69   42   41 ar   
    70   58   42 1    
@<TRIPOS>SUBSTRUCTURE
     1 T6F671      1 GROUP   
@<TRIPOS>SET

