#    Name: 2chz_093_1_INTS_M
#    Modification time : Mon Mar 24 23:51:15 2014

@<TRIPOS>MOLECULE
2chz_093_1_INTS_M
   50     0     3     0     0
SMALL
NO_CHARGES


@<TRIPOS>ATOM
      1 CA         39.6515   15.2360   32.1740 C.3       1 GLC5        0.0000 
      2 CA         40.8750   16.3870   33.3920 C.3       3 GLL5        0.0000 
      3 CA         38.4280   14.0850   30.9560 C.3       2 GLP5        0.0000 
      4 CA         41.3800   10.1305   33.1495 C.3       1 GLC5        0.0000 
      5 CA         40.8130   11.7790   32.5390 C.3       3 GLL5        0.0000 
      6 CA         41.9470    8.4820   33.7600 C.3       2 GLP5        0.0000 
      7 CA         39.6205   12.9320   31.7475 C.3       1 GLC5        0.0000 
      8 CA         42.2470   12.2965   29.2835 C.3       1 GLC5        0.0000 
      9 CA         42.6890   11.1820   30.7180 C.3       3 GLL5        0.0000 
     10 CA         41.8050   13.4110   27.8490 C.3       2 GLP5        0.0000 
     11 CA         43.5180   12.1240   28.6220 C.3       1 GLC5        0.0000 
     12 CA         43.9670   11.1960   30.1730 C.3       3 GLL5        0.0000 
     13 CA         43.0690   13.0520   27.0710 C.3       2 GLP5        0.0000 
     14 CA         44.7695    9.1265   27.4995 C.3       1 GLC5        0.0000 
     15 CA         45.8850   10.4650   28.1490 C.3       3 GLL5        0.0000 
     16 CA         43.6540    7.7880   26.8500 C.3       2 GLP5        0.0000 
     17 CA         44.4770   11.7585   27.6100 C.3       1 GLC5        0.0000 
     18 CA         47.1745   11.8860   32.5510 C.3       1 GLC5        0.0000 
     19 CA         47.5390   12.7680   31.0890 C.3       3 GLL5        0.0000 
     20 CA         46.8100   11.0040   34.0130 C.3       2 GLP5        0.0000 
     21 CA         47.6980   14.2655   29.7580 C.3       1 GLC5        0.0000 
     22 CA         47.8570   15.7630   28.4270 C.3       2 GLP5        0.0000 
     23 CA         52.3070   13.3440   31.6370 C.3       1 GLC5        0.0000 
     24 CA         51.9360   13.7990   30.0350 C.3       3 GLL5        0.0000 
     25 CA         52.6780   12.8890   33.2390 C.3       2 GLP5        0.0000 
     26 CA         51.8215   11.7865   30.6755 C.3       1 GLC5        0.0000 
     27 CA         51.7070    9.7740   31.3160 C.3       2 GLP5        0.0000 
     28 CA         51.8240   14.6035   27.9625 C.3       1 GLC5        0.0000 
     29 CA         51.7120   15.4080   25.8900 C.3       2 GLP5        0.0000 
     30 CA         42.1623   15.5815   31.5693 C.3       1 GLC5        0.0000 
     31 CA         42.2120   15.7750   33.8090 C.3       3 GLL5        0.0000 
     32 CA         42.7810   15.0820   29.5380 C.3       2 GLP5        0.0000 
     33 CA         45.4370   11.7713   33.1600 C.3       1 GLC5        0.0000 
     34 CA         43.4250   12.5360   32.5900 C.3       3 GLL5        0.0000 
     35 CA         42.4348   10.3353   33.0060 C.3       1 GLC5        0.0000 
     36 CA         42.8517   13.6353   30.8950 C.3       1 GLC5        0.0000 
     37 CA         42.4200   11.8410   31.9140 C.3       3 GLL5        0.0000 
     38 CA         43.8135   13.6460   30.4805 C.3       1 GLC5        0.0000 
     39 CA         44.9890   11.8790   30.8220 C.3       3 GLL5        0.0000 
     40 CA         46.2238   11.4495   32.2852 C.3       1 GLC5        0.0000 
     41 CA         44.1407    9.5890   31.0939 C.3       1 GLC5        0.0000 
     42 CA         44.1230    7.6440   31.5540 C.3       2 GLP5        0.0000 
     43 CA         46.3615   13.4273   28.8285 C.3       1 GLC5        0.0000 
     44 CA         46.2860   11.9110   30.2930 C.3       3 GLL5        0.0000 
     45 CA         46.2180   15.2500   27.9510 C.3       2 GLP5        0.0000 
     46 CA         47.4188    9.9653   27.2310 C.3       1 GLC5        0.0000 
     47 CA         46.7240   11.2980   29.1190 C.3       3 GLL5        0.0000 
     48 CA         48.5330    9.0490   25.8280 C.3       2 GLP5        0.0000 
     49 CA         46.2392   11.5207   26.7915 C.3       1 GLC5        0.0000 
     50 CA         46.1740   12.1600   24.9490 C.3       2 GLP5        0.0000 
@<TRIPOS>BOND
@<TRIPOS>SUBSTRUCTURE
     1 GLC5        1 GROUP        1 X    GLC  0     ROOT GLC X 6
     2 GLP5        3 GROUP        1 Y    GLP  0     ROOT GLP Y 13
     3 GLL5        2 GROUP        1 Z    GLL  0     ROOT GLL Z 20
@<TRIPOS>SET

