#    Name: 2chz_093_1_ligand
#    Modification time : Mon Mar 24 23:51:15 2014

@<TRIPOS>MOLECULE
2chz_093_1_ligand
   40    41     1     0     0
SMALL
NO_CHARGES


@<TRIPOS>ATOM
      1 OAM        44.3600   14.0700   34.5390 O.2       1 0932093     0.0000 
      2 SAN        43.1120   13.3650   34.1170 S.o2      1 0932093     0.0000 
      3 OAO        42.7760   12.3580   35.1680 O.2       1 0932093     0.0000 
      4 NAU        41.9560   14.3530   34.0230 N.pl3     1 0932093     0.0000 
      5 CAV        42.2120   15.7750   33.8090 C.3       1 0932093     0.0000 
      6 CAW        40.8750   16.3870   33.3920 C.3       1 0932093     0.0000 
      7 OAX        40.9830   16.9600   32.0940 O.3       1 0932093     0.0000 
      8 CAF        43.4250   12.5360   32.5900 C.ar      1 0932093     0.0000 
      9 CAB        42.4200   11.8410   31.9140 C.ar      1 0932093     0.0000 
     10 CL         40.8130   11.7790   32.5390 Cl        1 0932093     0.0000 
     11 CAC        42.6890   11.1820   30.7180 C.ar      1 0932093     0.0000 
     12 CAD        43.9670   11.1960   30.1730 C.ar      1 0932093     0.0000 
     13 CAG        44.7030   12.5410   32.0240 C.ar      1 0932093     0.0000 
     14 CAH        44.9890   11.8790   30.8220 C.ar      1 0932093     0.0000 
     15 CAI        46.2860   11.9110   30.2930 C.2       1 0932093     0.0000 
     16 CAJ        46.7240   11.2980   29.1190 C.2       1 0932093     0.0000 
     17 CAE        45.8850   10.4650   28.1490 C.3       1 0932093     0.0000 
     18 NAK        48.0130   11.5100   28.8790 N.pl3     1 0932093     0.0000 
     19 SAP        47.5390   12.7680   31.0890 S.3       1 0932093     0.0000 
     20 CAQ        48.5840   12.2600   29.8180 C.2       1 0932093     0.0000 
     21 NAR        49.8860   12.5750   29.7820 N.2       1 0932093     0.0000 
     22 CAS        50.4440   13.7270   30.1800 C.2       1 0932093     0.0000 
     23 OAL        49.8210   14.6770   30.6220 O.2       1 0932093     0.0000 
     24 CAT        51.9360   13.7990   30.0350 C.3       1 0932093     0.0000 
     25 H          41.0266   13.9991   34.1117 H         1 0932093     0.0000 
     26 H          42.9233   15.9304   33.0153 H         1 0932093     0.0000 
     27 H          42.5417   16.2549   34.7151 H         1 0932093     0.0000 
     28 H          40.6016   17.1352   34.1480 H         1 0932093     0.0000 
     29 H          40.1197   15.5904   33.4259 H         1 0932093     0.0000 
     30 H          41.9302   10.6777   30.2314 H         1 0932093     0.0000 
     31 H          44.1566   10.7024   29.2918 H         1 0932093     0.0000 
     32 H          45.4682   13.0523   32.5094 H         1 0932093     0.0000 
     33 H          48.4988   11.1487   28.0856 H         1 0932093     0.0000 
     34 H          46.4292   10.1314   27.3793 H         1 0932093     0.0000 
     35 H          45.4871    9.6637   28.5958 H         1 0932093     0.0000 
     36 H          45.1274   10.9930   27.7653 H         1 0932093     0.0000 
     37 H          52.3954   13.0859   30.5645 H         1 0932093     0.0000 
     38 H          52.2224   13.6879   29.0834 H         1 0932093     0.0000 
     39 H          52.2978   14.6766   30.3495 H         1 0932093     0.0000 
     40 H          41.1940   17.9244   32.2537 H         1 0932093     0.0000 
@<TRIPOS>BOND
     1    2    1 2    
     2    3    2 2    
     3    4    2 1    
     4    8    2 1    
     5    5    4 1    
     6   25    4 1    
     7    6    5 1    
     8   26    5 1    
     9   27    5 1    
    10    7    6 1    
    11   28    6 1    
    12   29    6 1    
    13   40    7 1    
    14    9    8 ar   
    15   13    8 ar   
    16   10    9 1    
    17   11    9 ar   
    18   12   11 ar   
    19   30   11 1    
    20   14   12 ar   
    21   31   12 1    
    22   14   13 ar   
    23   32   13 1    
    24   15   14 1    
    25   16   15 2    
    26   19   15 1    
    27   17   16 1    
    28   18   16 1    
    29   34   17 1    
    30   35   17 1    
    31   36   17 1    
    32   20   18 1    
    33   33   18 1    
    34   20   19 1    
    35   21   20 2    
    36   22   21 1    
    37   23   22 2    
    38   24   22 1    
    39   37   24 1    
    40   38   24 1    
    41   39   24 1    
@<TRIPOS>SUBSTRUCTURE
     1 0932093     1 GROUP   
@<TRIPOS>SET

