#    Name: 3qkk_SMH_1_INTS_M
#    Modification time : Mon Apr  7 19:37:08 2014

@<TRIPOS>MOLECULE
3qkk_SMH_1_INTS_M
   91     0    12     0     0
SMALL
NO_CHARGES


@<TRIPOS>ATOM
      1 CA         26.7800    4.5410    7.6705 C.3       4 GLC5        0.0000 
      2 CA         25.1200    4.2430    9.1050 C.3      12 GLL5        0.0000 
      3 CA         28.4400    4.8390    6.2360 C.3       8 GLP5        0.0000 
      4 CA         27.8605    4.0945    8.8025 C.3       4 GLC5        0.0000 
      5 CA         26.2970    4.8260    9.6130 C.3      12 GLL5        0.0000 
      6 CA         29.4240    3.3630    7.9920 C.3       8 GLP5        0.0000 
      7 CA         26.9895    7.7735    6.7215 C.3       4 GLC5        0.0000 
      8 CA         25.9470    6.8290    8.2470 C.3      12 GLL5        0.0000 
      9 CA         28.0320    8.7180    5.1960 C.3       8 GLP5        0.0000 
     10 CA         24.9935    7.8565    9.2530 C.3       4 GLC5        0.0000 
     11 CA         24.0400    8.8840   10.2590 C.3       8 GLP5        0.0000 
     12 OD1        27.1775    1.1750   13.1950 O.co2     3 ASC3        0.0000 
     13 OD1        27.8180    3.0240   13.2980 O.co2    11 ASL3        0.0000 
     14 OD1        26.5370   -0.6740   13.0920 O.co2     7 ASP3        0.0000 
     15 OD1        26.6545    2.1515   13.2185 O.co2     3 ASC3        0.0000 
     16 OD1        25.4910    1.2790   13.1390 O.co2     7 ASP3        0.0000 
     17 O          26.6545    2.1515   13.2185 O.2       1 ALC1        0.0000 
     18 O          27.8180    3.0240   13.2980 O.2       9 ALL1        0.0000 
     19 O          25.4910    1.2790   13.1390 O.2       5 ALP1        0.0000 
     20 CA         24.1960    3.7430   12.9270 C.3       4 GLC5        0.0000 
     21 CA         25.9260    4.7360   13.3740 C.3      12 GLL5        0.0000 
     22 CA         22.4660    2.7500   12.4800 C.3       8 GLP5        0.0000 
     23 O          27.5530   -0.0610   12.6570 O.2       1 ALC1        0.0000 
     24 O          28.5690    0.5520   12.2220 O.2       9 ALL1        0.0000 
     25 O          26.5370   -0.6740   13.0920 O.2       5 ALP1        0.0000 
     26 CA         32.6325   -3.0170   12.1975 C.3       4 GLC5        0.0000 
     27 CA         30.8000   -2.0240   12.7110 C.3      12 GLL5        0.0000 
     28 CA         34.4650   -4.0100   11.6840 C.3       8 GLP5        0.0000 
     29 CA         31.1830   -2.5960   10.7480 C.3       4 GLC5        0.0000 
     30 CA         31.5660   -3.1680    8.7850 C.3       8 GLP5        0.0000 
     31 CA         32.4130   -3.6830   13.9265 C.3       4 GLC5        0.0000 
     32 CA         30.4220   -3.1840   13.6670 C.3      12 GLL5        0.0000 
     33 CA         34.4040   -4.1820   14.1860 C.3       8 GLP5        0.0000 
     34 CA         32.6835    5.6500   10.5185 C.3       4 GLC5        0.0000 
     35 CA         32.3000    4.0450   11.4480 C.3      12 GLL5        0.0000 
     36 CA         33.0670    7.2550    9.5890 C.3       8 GLP5        0.0000 
     37 CA         33.1290    2.5895    8.8740 C.3       4 GLC5        0.0000 
     38 CA         32.2160    2.8830   10.6490 C.3      12 GLL5        0.0000 
     39 CA         34.0420    2.2960    7.0990 C.3       8 GLP5        0.0000 
     40 CA         30.8200    3.1230    9.3205 C.3       4 GLC5        0.0000 
     41 CA         34.3075    1.7975   12.0510 C.3       4 GLC5        0.0000 
     42 CA         32.3480    1.6190   11.2540 C.3      12 GLL5        0.0000 
     43 CA         36.2670    1.9760   12.8480 C.3       8 GLP5        0.0000 
     44 CA         33.9520   -0.2660    9.3280 C.3       4 GLC5        0.0000 
     45 CA         32.2530    0.3860   10.3620 C.3      12 GLL5        0.0000 
     46 CA         35.6510   -0.9180    8.2940 C.3       8 GLP5        0.0000 
     47 CA         33.1475    1.3410    8.7305 C.3       4 GLC5        0.0000 
     48 CA         30.3615   -0.1455    9.6115 C.3       4 GLC5        0.0000 
     49 CA         28.4700   -0.6770    8.8610 C.3       8 GLP5        0.0000 
     50 CA         31.9095   -1.3910    9.5735 C.3       4 GLC5        0.0000 
     51 CA         34.5660    2.3050   13.8985 C.3       4 GLC5        0.0000 
     52 CA         32.8650    2.6340   14.9490 C.3      12 GLL5        0.0000 
     53 N          34.9045   -1.6880   12.4390 N.am      2 SEC2        0.0000 
     54 N          33.5950   -1.0000   12.6950 N.am     10 SEL2        0.0000 
     55 N          36.2140   -2.3760   12.1830 N.am      6 SEP2        0.0000 
     56 CA         31.7795   -7.1845   11.6840 C.3       4 GLC5        0.0000 
     57 CA         30.3510   -6.7710   12.9130 C.3      12 GLL5        0.0000 
     58 CA         33.2080   -7.5980   10.4550 C.3       8 GLP5        0.0000 
     59 CA         31.3090   -8.1430   13.5920 C.3       4 GLC5        0.0000 
     60 CA         32.2670   -9.5150   14.2710 C.3       8 GLP5        0.0000 
     61 CA         29.4715   -8.1560   11.4500 C.3       4 GLC5        0.0000 
     62 CA         28.5920   -9.5410    9.9870 C.3       8 GLP5        0.0000 
     63 CA         32.4905   -4.8550   13.9815 C.3       4 GLC5        0.0000 
     64 CA         30.5770   -5.5280   13.7770 C.3      12 GLL5        0.0000 
     65 CA         31.7465   -7.1590   14.6100 C.3       4 GLC5        0.0000 
     66 CA         32.9160   -8.7900   15.4430 C.3       8 GLP5        0.0000 
     67 CA         24.0368    6.4130    9.3480 C.3       4 GLC5        0.0000 
     68 CA         24.7570    6.2360    7.7600 C.3      12 GLL5        0.0000 
     69 CA         23.5260    7.2320   10.7290 C.3       8 GLP5        0.0000 
     70 CA         24.8925    3.0743    7.6008 C.3       4 GLC5        0.0000 
     71 CA         24.3380    4.9520    8.1740 C.3      12 GLL5        0.0000 
     72 CA         25.0560    1.5510    6.5620 C.3       8 GLP5        0.0000 
     73 CA         23.3750    4.3252   10.2147 C.3       4 GLC5        0.0000 
     74 CA         22.0210    4.0530   11.7900 C.3       8 GLP5        0.0000 
     75 CA         27.2372    5.5811    7.4171 C.3       4 GLC5        0.0000 
     76 CA         26.7170    6.1140    9.1930 C.3      12 GLL5        0.0000 
     77 CA         24.8694    6.2781   10.0025 C.3       4 GLC5        0.0000 
     78 CA         25.2921    6.0147    6.2055 C.3       4 GLC5        0.0000 
     79 CA         25.3370    5.8180    4.3040 C.3       8 GLP5        0.0000 
     80 CA         28.9198    3.9875    9.8720 C.3       4 GLC5        0.0000 
     81 CA         28.7060    5.8210   10.7800 C.3      12 GLL5        0.0000 
     82 CA         24.8438    4.2940   15.3010 C.3       4 GLC5        0.0000 
     83 CA         23.2920    4.3320   16.8340 C.3       8 GLP5        0.0000 
     84 CA         26.2620    7.0930   13.7005 C.3       4 GLC5        0.0000 
     85 CA         26.2010    9.0030   14.5110 C.3       8 GLP5        0.0000 
     86 CA         24.9245    6.2075   11.8095 C.3       4 GLC5        0.0000 
     87 CA         26.7200    5.6300   12.4060 C.3      12 GLL5        0.0000 
     88 CA         34.4154    2.5049   12.8957 C.3       4 GLC5        0.0000 
     89 CA         32.5150    3.9600   12.8400 C.3      12 GLL5        0.0000 
     90 CA         34.0684    4.0854   10.8287 C.3       4 GLC5        0.0000 
     91 CA         35.8250    4.7280   10.2610 C.3       8 GLP5        0.0000 
@<TRIPOS>BOND
@<TRIPOS>SUBSTRUCTURE
     1 ALC1       17 GROUP        1 X    ALC  0     ROOT ALC X 1
     2 SEC2       53 GROUP        1 X    SEC  0     **** SEC X 2
     3 ASC3       12 GROUP        1 X    ASC  0     **** ASC X 3
     4 GLC5        1 GROUP        1 X    GLC  0     **** GLC X 6
     5 ALP1       19 GROUP        1 Y    ALP  0     ROOT ALP Y 8
     6 SEP2       55 GROUP        1 Y    SEP  0     **** SEP Y 9
     7 ASP3       14 GROUP        1 Y    ASP  0     **** ASP Y 10
     8 GLP5        3 GROUP        1 Y    GLP  0     **** GLP Y 13
     9 ALL1       18 GROUP        1 Z    ALL  0     ROOT ALL Z 15
    10 SEL2       54 GROUP        1 Z    SEL  0     **** SEL Z 16
    11 ASL3       13 GROUP        1 Z    ASL  0     **** ASL Z 17
    12 GLL5        2 GROUP        1 Z    GLL  0     **** GLL Z 20
@<TRIPOS>SET

