#    Name: 3qkk_SMH_1_ligand
#    Modification time : Mon Apr  7 19:37:08 2014

@<TRIPOS>MOLECULE
3qkk_SMH_1_ligand
   77    80     1     0     0
SMALL
NO_CHARGES


@<TRIPOS>ATOM
      1 C1         24.7570    6.2360    7.7600 C.ar      1 SMH1        0.0000 
      2 C2         24.3380    4.9520    8.1740 C.ar      1 SMH1        0.0000 
      3 C3         25.1200    4.2430    9.1050 C.ar      1 SMH1        0.0000 
      4 C4         26.2970    4.8260    9.6130 C.ar      1 SMH1        0.0000 
      5 C5         26.7170    6.1140    9.1930 C.ar      1 SMH1        0.0000 
      6 C6         25.9470    6.8290    8.2470 C.ar      1 SMH1        0.0000 
      7 O7         27.0350    4.1350   10.5320 O.3       1 SMH1        0.0000 
      8 C8         27.7460    4.8610   11.5220 C.3       1 SMH1        0.0000 
      9 C9         28.7060    5.8210   10.7800 C.3       1 SMH1        0.0000 
     10 C10        27.9650    6.6790    9.7610 C.2       1 SMH1        0.0000 
     11 C11        28.6050    3.8830   12.3530 C.3       1 SMH1        0.0000 
     12 N12        27.8180    3.0240   13.2980 N.4       1 SMH1        0.0000 
     13 C13        26.8650    3.7760   14.1620 C.3       1 SMH1        0.0000 
     14 C14        25.9260    4.7360   13.3740 C.3       1 SMH1        0.0000 
     15 C15        26.7200    5.6300   12.4060 C.3       1 SMH1        0.0000 
     16 O16        23.9560    6.9010    6.8730 O.3       1 SMH1        0.0000 
     17 O17        28.4820    7.7300    9.4160 O.2       1 SMH1        0.0000 
     18 C18        28.6990    2.1160   14.0680 C.3       1 SMH1        0.0000 
     19 C19        29.4430    1.0710   13.2160 C.3       1 SMH1        0.0000 
     20 O20        28.5690    0.5520   12.2220 O.3       1 SMH1        0.0000 
     21 C21        29.9590   -0.0870   14.0930 C.3       1 SMH1        0.0000 
     22 N22        31.1240   -0.7900   13.4820 N.pl3     1 SMH1        0.0000 
     23 C23        30.8000   -2.0240   12.7110 C.3       1 SMH1        0.0000 
     24 C24        30.4220   -3.1840   13.6670 C.3       1 SMH1        0.0000 
     25 C25        32.5740    1.5190   12.6520 C.ar      1 SMH1        0.0000 
     26 C26        32.6510    2.6960   13.4420 C.ar      1 SMH1        0.0000 
     27 C27        32.5150    3.9600   12.8400 C.ar      1 SMH1        0.0000 
     28 C28        32.3000    4.0450   11.4480 C.ar      1 SMH1        0.0000 
     29 C29        32.2160    2.8830   10.6490 C.ar      1 SMH1        0.0000 
     30 C30        32.3480    1.6190   11.2540 C.ar      1 SMH1        0.0000 
     31 C31        32.2530    0.3860   10.3620 C.3       1 SMH1        0.0000 
     32 C32        32.8650    2.6340   14.9490 C.3       1 SMH1        0.0000 
     33 S33        32.7350   -0.1170   13.4810 S.o2      1 SMH1        0.0000 
     34 O34        33.1400    0.1300   14.8650 O.2       1 SMH1        0.0000 
     35 O35        33.5950   -1.0000   12.6950 O.2       1 SMH1        0.0000 
     36 O36        30.3860   -4.4050   12.9410 O.3       1 SMH1        0.0000 
     37 C37        30.3510   -6.7710   12.9130 C.3       1 SMH1        0.0000 
     38 C38        30.5770   -5.5280   13.7770 C.3       1 SMH1        0.0000 
     39 H          23.4832    4.5478    7.8033 H         1 SMH1        0.0000 
     40 H          24.8362    3.3122    9.4103 H         1 SMH1        0.0000 
     41 H          26.2378    7.7403    7.9260 H         1 SMH1        0.0000 
     42 H          29.4688    5.2291   10.2734 H         1 SMH1        0.0000 
     43 H          29.1928    6.4639   11.5139 H         1 SMH1        0.0000 
     44 H          29.3491    4.4743   12.9162 H         1 SMH1        0.0000 
     45 H          29.1727    3.2452   11.6520 H         1 SMH1        0.0000 
     46 H          27.1796    2.3466   12.6358 H         1 SMH1        0.0000 
     47 H          27.4153    4.3801   14.9027 H         1 SMH1        0.0000 
     48 H          26.2282    3.0760   14.7285 H         1 SMH1        0.0000 
     49 H          25.3901    5.3598   14.0848 H         1 SMH1        0.0000 
     50 H          25.2114    4.1402   12.8118 H         1 SMH1        0.0000 
     51 H          26.0179    6.1562   11.7438 H         1 SMH1        0.0000 
     52 H          27.2625    6.3924   12.9829 H         1 SMH1        0.0000 
     53 H          28.1099    1.5717   14.8340 H         1 SMH1        0.0000 
     54 H          29.4582    2.7023   14.6246 H         1 SMH1        0.0000 
     55 H          30.3007    1.5545   12.7701 H         1 SMH1        0.0000 
     56 H          29.1316   -0.7921   14.2511 H         1 SMH1        0.0000 
     57 H          30.2360    0.3230   15.0738 H         1 SMH1        0.0000 
     58 H          31.6578   -2.3396   12.1168 H         1 SMH1        0.0000 
     59 H          29.9573   -1.8467   12.0425 H         1 SMH1        0.0000 
     60 H          29.4527   -2.9345   14.1088 H         1 SMH1        0.0000 
     61 H          31.1680   -3.1981   14.4672 H         1 SMH1        0.0000 
     62 H          32.5709    4.8071   13.4018 H         1 SMH1        0.0000 
     63 H          32.2025    4.9697   11.0062 H         1 SMH1        0.0000 
     64 H          32.0616    2.9614    9.6468 H         1 SMH1        0.0000 
     65 H          29.8649   -5.5617   14.5970 H         1 SMH1        0.0000 
     66 H          31.5861   -5.5822   14.1762 H         1 SMH1        0.0000 
     67 H          33.0941   -0.1544   10.3846 H         1 SMH1        0.0000 
     68 H          31.5081   -0.2192   10.6430 H         1 SMH1        0.0000 
     69 H          32.0874    0.6306    9.4066 H         1 SMH1        0.0000 
     70 H          33.7236    2.1782   15.1838 H         1 SMH1        0.0000 
     71 H          32.8962    3.5462   15.3575 H         1 SMH1        0.0000 
     72 H          32.1317    2.1323   15.4079 H         1 SMH1        0.0000 
     73 H          30.9921   -6.8122   12.1466 H         1 SMH1        0.0000 
     74 H          30.4671   -7.6142   13.4379 H         1 SMH1        0.0000 
     75 H          29.4293   -6.7914   12.5256 H         1 SMH1        0.0000 
     76 H          23.3254    6.2078    6.5239 H         1 SMH1        0.0000 
     77 H          28.1596   -0.2608   12.6363 H         1 SMH1        0.0000 
@<TRIPOS>BOND
     1    2    1 ar   
     2    6    1 ar   
     3   16    1 1    
     4    3    2 ar   
     5   39    2 1    
     6    4    3 ar   
     7   40    3 1    
     8    5    4 ar   
     9    7    4 1    
    10    6    5 ar   
    11   10    5 1    
    12   41    6 1    
    13    8    7 1    
    14    9    8 1    
    15   11    8 1    
    16   15    8 1    
    17   10    9 1    
    18   42    9 1    
    19   43    9 1    
    20   17   10 2    
    21   12   11 1    
    22   44   11 1    
    23   45   11 1    
    24   13   12 1    
    25   18   12 1    
    26   46   12 1    
    27   14   13 1    
    28   47   13 1    
    29   48   13 1    
    30   15   14 1    
    31   49   14 1    
    32   50   14 1    
    33   51   15 1    
    34   52   15 1    
    35   76   16 1    
    36   19   18 1    
    37   53   18 1    
    38   54   18 1    
    39   20   19 1    
    40   21   19 1    
    41   55   19 1    
    42   77   20 1    
    43   22   21 1    
    44   56   21 1    
    45   57   21 1    
    46   23   22 1    
    47   33   22 1    
    48   24   23 1    
    49   58   23 1    
    50   59   23 1    
    51   36   24 1    
    52   60   24 1    
    53   61   24 1    
    54   26   25 ar   
    55   30   25 ar   
    56   33   25 1    
    57   27   26 ar   
    58   32   26 1    
    59   28   27 ar   
    60   62   27 1    
    61   29   28 ar   
    62   63   28 1    
    63   30   29 ar   
    64   64   29 1    
    65   31   30 1    
    66   67   31 1    
    67   68   31 1    
    68   69   31 1    
    69   70   32 1    
    70   71   32 1    
    71   72   32 1    
    72   34   33 2    
    73   35   33 2    
    74   38   36 1    
    75   38   37 1    
    76   73   37 1    
    77   74   37 1    
    78   75   37 1    
    79   65   38 1    
    80   66   38 1    
@<TRIPOS>SUBSTRUCTURE
     1 SMH1        1 GROUP   
@<TRIPOS>SET

