#    Name: 3cwj_321_2_INTS_M
#    Modification time : Mon Mar 24 22:25:01 2014

@<TRIPOS>MOLECULE
3cwj_321_2_INTS_M
   69     0     9     0     0
SMALL
NO_CHARGES


@<TRIPOS>ATOM
      1 N          53.5810   -8.4855   38.6000 N.am      2 SEC2        0.0000 
      2 N          53.3930   -8.5260   39.8880 N.am      8 SEL2        0.0000 
      3 N          53.7690   -8.4450   37.3120 N.am      5 SEP2        0.0000 
      4 N          52.1115   -9.5890   40.0790 N.am      2 SEC2        0.0000 
      5 N          50.8300  -10.6520   40.2700 N.am      5 SEP2        0.0000 
      6 CA         55.7155   -6.6290   42.4400 C.3       3 GLC5        0.0000 
      7 CA         55.4280   -8.4590   41.4860 C.3       9 GLL5        0.0000 
      8 CA         56.0030   -4.7990   43.3940 C.3       6 GLP5        0.0000 
      9 O          53.0665  -10.2400   41.8575 O.2       1 ALC1        0.0000 
     10 O          52.9300   -8.9960   42.3580 O.2       7 ALL1        0.0000 
     11 O          53.2030  -11.4840   41.3570 O.2       4 ALP1        0.0000 
     12 CA         51.3465   -8.6910   42.2985 C.3       3 GLC5        0.0000 
     13 CA         52.9370   -8.8110   43.7830 C.3       9 GLL5        0.0000 
     14 CA         49.7560   -8.5710   40.8140 C.3       6 GLP5        0.0000 
     15 CA         54.7440   -6.2495   43.9190 C.3       3 GLC5        0.0000 
     16 CA         53.4850   -7.7000   44.4440 C.3       9 GLL5        0.0000 
     17 CA         53.3365   -5.0015   48.7505 C.3       3 GLC5        0.0000 
     18 CA         53.8370   -6.5770   48.3900 C.3       9 GLL5        0.0000 
     19 CA         52.8360   -3.4260   49.1110 C.3       6 GLP5        0.0000 
     20 CA         50.7085  -10.7150   47.0740 C.3       3 GLC5        0.0000 
     21 CA         52.2850   -9.7800   45.9080 C.3       9 GLL5        0.0000 
     22 CA         49.1320  -11.6500   48.2400 C.3       6 GLP5        0.0000 
     23 CA         53.1690   -5.3015   50.1770 C.3       3 GLC5        0.0000 
     24 CA         53.5020   -7.1770   51.2430 C.3       9 GLL5        0.0000 
     25 N          53.6545   -4.5775   50.7655 N.am      2 SEC2        0.0000 
     26 N          53.9170   -5.8780   51.0700 N.am      8 SEL2        0.0000 
     27 N          53.3920   -3.2770   50.4610 N.am      5 SEP2        0.0000 
     28 CA         51.9490  -11.3105   54.4970 C.3       3 GLC5        0.0000 
     29 CA         51.5330  -10.6570   52.5190 C.3       9 GLL5        0.0000 
     30 CA         52.3650  -11.9640   56.4750 C.3       6 GLP5        0.0000 
     31 CA         49.9305  -12.5935   53.2215 C.3       3 GLC5        0.0000 
     32 CA         50.0210  -10.4670   52.6950 C.3       9 GLL5        0.0000 
     33 CA         49.8400  -14.7200   53.7480 C.3       6 GLP5        0.0000 
     34 CA         49.5945   -7.5500   51.9425 C.3       3 GLC5        0.0000 
     35 CA         49.5950   -9.1390   53.3600 C.3       9 GLL5        0.0000 
     36 CA         49.5940   -5.9610   50.5250 C.3       6 GLP5        0.0000 
     37 CA         46.9505   -8.2135   54.7060 C.3       3 GLC5        0.0000 
     38 CA         48.1450   -8.7660   53.0630 C.3       9 GLL5        0.0000 
     39 CA         45.7560   -7.6610   56.3490 C.3       6 GLP5        0.0000 
     40 CA         46.7300   -9.7610   52.5660 C.3       3 GLC5        0.0000 
     41 CA         45.3150  -10.7560   52.0690 C.3       6 GLP5        0.0000 
     42 CA         48.2465   -7.0915   51.9295 C.3       3 GLC5        0.0000 
     43 CA         48.3480   -5.4170   50.7960 C.3       6 GLP5        0.0000 
     44 CA         48.8050   -7.9530   55.9810 C.3       3 GLC5        0.0000 
     45 CA         49.7950   -9.2050   54.8800 C.3       9 GLL5        0.0000 
     46 CA         47.8150   -6.7010   57.0820 C.3       6 GLP5        0.0000 
     47 CA         48.5215  -10.4920   55.0830 C.3       3 GLC5        0.0000 
     48 CA         47.2480  -11.7790   55.2860 C.3       6 GLP5        0.0000 
     49 CA         51.0800  -10.5845   55.6775 C.3       3 GLC5        0.0000 
     50 CA         56.3165   -7.2880   57.3250 C.3       3 GLC5        0.0000 
     51 CA         56.0260   -6.7480   55.4680 C.3       9 GLL5        0.0000 
     52 CA         56.6070   -7.8280   59.1820 C.3       6 GLP5        0.0000 
     53 CA         50.2293   -9.6060   45.2810 C.3       3 GLC5        0.0000 
     54 CA         48.1450   -9.4040   45.3480 C.3       6 GLP5        0.0000 
     55 CA         51.1148  -11.4770   44.7115 C.3       3 GLC5        0.0000 
     56 CA         49.9160  -13.1460   44.2090 C.3       6 GLP5        0.0000 
     57 CA         50.3540  -11.5995   51.0675 C.3       3 GLC5        0.0000 
     58 CA         49.9310  -12.6370   49.5280 C.3       6 GLP5        0.0000 
     59 CA         48.1123  -10.5318   54.1656 C.3       3 GLC5        0.0000 
     60 CA         49.8753   -7.4049   54.2979 C.3       3 GLC5        0.0000 
     61 CA         50.4180   -5.7310   54.5500 C.3       6 GLP5        0.0000 
     62 CA         54.8630   -3.9420   53.2645 C.3       3 GLC5        0.0000 
     63 CA         54.9910   -5.8500   53.5930 C.3       9 GLL5        0.0000 
     64 CA         54.3010   -2.1460   52.3870 C.3       6 GLP5        0.0000 
     65 CA         56.6103   -5.2445   56.4853 C.3       3 GLC5        0.0000 
     66 CA         57.2780   -4.3020   57.8910 C.3       6 GLP5        0.0000 
     67 CA         53.9924   -6.3984   55.4778 C.3       3 GLC5        0.0000 
     68 CA         55.8590   -5.6260   54.6910 C.3       9 GLL5        0.0000 
     69 CA         52.5430   -6.0610   56.3010 C.3       6 GLP5        0.0000 
@<TRIPOS>BOND
@<TRIPOS>SUBSTRUCTURE
     1 ALC1        9 GROUP        1 X    ALC  0     ROOT ALC X 1
     2 SEC2        1 GROUP        1 X    SEC  0     **** SEC X 2
     3 GLC5        6 GROUP        1 X    GLC  0     **** GLC X 6
     4 ALP1       11 GROUP        1 Y    ALP  0     ROOT ALP Y 8
     5 SEP2        3 GROUP        1 Y    SEP  0     **** SEP Y 9
     6 GLP5        8 GROUP        1 Y    GLP  0     **** GLP Y 13
     7 ALL1       10 GROUP        1 Z    ALL  0     ROOT ALL Z 15
     8 SEL2        2 GROUP        1 Z    SEL  0     **** SEL Z 16
     9 GLL5        7 GROUP        1 Z    GLL  0     **** GLL Z 20
@<TRIPOS>SET

