#    Name: 3cwj_321_2_ligand
#    Modification time : Mon Mar 24 22:25:01 2014

@<TRIPOS>MOLECULE
3cwj_321_2_ligand
   59    62     1     0     0
SMALL
NO_CHARGES


@<TRIPOS>ATOM
      1 O31        53.5590   -6.5960   41.4780 O.2       1 3211002     0.0000 
      2 S35        53.7340   -8.0130   41.1950 S.o2      1 3211002     0.0000 
      3 O30        53.3930   -8.5260   39.8880 O.2       1 3211002     0.0000 
      4 C19        55.4280   -8.4590   41.4860 C.3       1 3211002     0.0000 
      5 N26        52.9300   -8.9960   42.3580 N.pl3     1 3211002     0.0000 
      6 C8         52.9370   -8.8110   43.7830 C.ar      1 3211002     0.0000 
      7 C3         52.3420   -9.8360   44.5200 C.ar      1 3211002     0.0000 
      8 C5         53.4850   -7.7000   44.4440 C.ar      1 3211002     0.0000 
      9 C9         53.4230   -7.6540   45.8450 C.ar      1 3211002     0.0000 
     10 S34        54.0890   -6.2570   46.7060 S.o2      1 3211002     0.0000 
     11 O28        53.2470   -5.1270   46.3670 O.2       1 3211002     0.0000 
     12 O29        55.5140   -6.2440   46.4460 O.2       1 3211002     0.0000 
     13 C11        53.8370   -6.5770   48.3900 C.3       1 3211002     0.0000 
     14 C14        53.2050   -7.6960   48.8140 C.2       1 3211002     0.0000 
     15 N24        52.7390   -8.6770   47.9720 N.2       1 3211002     0.0000 
     16 C7         52.8220   -8.6850   46.5820 C.ar      1 3211002     0.0000 
     17 C2         52.2850   -9.7800   45.9080 C.ar      1 3211002     0.0000 
     18 C13        53.0030   -7.9350   50.2420 C.2       1 3211002     0.0000 
     19 C15        53.5020   -7.1770   51.2430 C.2       1 3211002     0.0000 
     20 O32        53.9170   -5.8780   51.0700 O.3       1 3211002     0.0000 
     21 C16        52.2090   -9.1530   50.6710 C.2       1 3211002     0.0000 
     22 O27        51.6160   -9.8440   49.8330 O.2       1 3211002     0.0000 
     23 N25        52.1850   -9.4500   52.0340 N.am      1 3211002     0.0000 
     24 C21        51.5330  -10.6570   52.5190 C.3       1 3211002     0.0000 
     25 C20        50.0210  -10.4670   52.6950 C.3       1 3211002     0.0000 
     26 C22        49.5950   -9.1390   53.3600 C.3       1 3211002     0.0000 
     27 C18        48.1450   -8.7660   53.0630 C.3       1 3211002     0.0000 
     28 C17        49.7950   -9.2050   54.8800 C.3       1 3211002     0.0000 
     29 N23        53.0080   -8.8650   52.9500 N.2       1 3211002     0.0000 
     30 C12        53.6180   -7.7690   52.6050 C.2       1 3211002     0.0000 
     31 C10        54.5180   -7.1390   53.5750 C.2       1 3211002     0.0000 
     32 C4         54.9910   -5.8500   53.5930 C.2       1 3211002     0.0000 
     33 S33        55.1280   -8.0750   54.8750 S.3       1 3211002     0.0000 
     34 C6         56.0260   -6.7480   55.4680 C.2       1 3211002     0.0000 
     35 C1         55.8590   -5.6260   54.6910 C.2       1 3211002     0.0000 
     36 H          52.4295   -9.7550   41.8862 H         1 3211002     0.0000 
     37 H          51.9379  -10.6489   44.0238 H         1 3211002     0.0000 
     38 H          53.9164   -6.9469   43.9195 H         1 3211002     0.0000 
     39 H          53.3488   -5.5949   48.7197 H         1 3211002     0.0000 
     40 H          54.9018   -6.4452   48.7905 H         1 3211002     0.0000 
     41 H          51.8478  -10.5442   46.4373 H         1 3211002     0.0000 
     42 H          51.9492  -10.9659   53.4918 H         1 3211002     0.0000 
     43 H          51.6881  -11.4961   51.8213 H         1 3211002     0.0000 
     44 H          49.6228  -11.3041   53.2981 H         1 3211002     0.0000 
     45 H          49.5340  -10.5345   51.7044 H         1 3211002     0.0000 
     46 H          50.2382   -8.3455   52.9789 H         1 3211002     0.0000 
     47 H          54.7727   -5.1612   52.9463 H         1 3211002     0.0000 
     48 H          56.5159   -6.9348   56.2351 H         1 3211002     0.0000 
     49 H          56.2804   -4.7627   54.8577 H         1 3211002     0.0000 
     50 H          56.0540   -7.9396   40.9043 H         1 3211002     0.0000 
     51 H          55.6993   -8.2892   42.4334 H         1 3211002     0.0000 
     52 H          55.5936   -9.4280   41.3029 H         1 3211002     0.0000 
     53 H          47.8862   -7.9045   53.4999 H         1 3211002     0.0000 
     54 H          47.9828   -8.6576   52.0822 H         1 3211002     0.0000 
     55 H          47.5076   -9.4636   53.3901 H         1 3211002     0.0000 
     56 H          50.7506   -9.3735   55.1219 H         1 3211002     0.0000 
     57 H          49.5253   -8.3523   55.3274 H         1 3211002     0.0000 
     58 H          49.2543   -9.9371   55.2943 H         1 3211002     0.0000 
     59 H          54.8325   -5.9495   50.6740 H         1 3211002     0.0000 
@<TRIPOS>BOND
     1    2    1 2    
     2    3    2 2    
     3    4    2 1    
     4    5    2 1    
     5   50    4 1    
     6   51    4 1    
     7   52    4 1    
     8    6    5 1    
     9   36    5 1    
    10    7    6 ar   
    11    8    6 ar   
    12   17    7 ar   
    13   37    7 1    
    14    9    8 ar   
    15   38    8 1    
    16   10    9 1    
    17   16    9 ar   
    18   11   10 2    
    19   12   10 2    
    20   13   10 1    
    21   14   13 1    
    22   39   13 1    
    23   40   13 1    
    24   15   14 2    
    25   18   14 1    
    26   16   15 1    
    27   17   16 ar   
    28   41   17 1    
    29   19   18 2    
    30   21   18 1    
    31   20   19 1    
    32   30   19 1    
    33   59   20 1    
    34   22   21 2    
    35   23   21 am   
    36   24   23 1    
    37   29   23 1    
    38   25   24 1    
    39   42   24 1    
    40   43   24 1    
    41   26   25 1    
    42   44   25 1    
    43   45   25 1    
    44   27   26 1    
    45   28   26 1    
    46   46   26 1    
    47   53   27 1    
    48   54   27 1    
    49   55   27 1    
    50   56   28 1    
    51   57   28 1    
    52   58   28 1    
    53   30   29 2    
    54   31   30 1    
    55   32   31 2    
    56   33   31 1    
    57   35   32 1    
    58   47   32 1    
    59   34   33 1    
    60   35   34 2    
    61   48   34 1    
    62   49   35 1    
@<TRIPOS>SUBSTRUCTURE
     1 3211002     1 GROUP   
@<TRIPOS>SET

