#    Name: 4eny_J19_1_INTS_M
#    Modification time : Mon Mar 24 18:19:14 2014

@<TRIPOS>MOLECULE
4eny_J19_1_INTS_M
   63     0     6     0     0
SMALL
NO_CHARGES


@<TRIPOS>ATOM
      1 CA        -67.8055  123.4400    4.1580 C.3       2 GLC5        0.0000 
      2 CA        -68.9440  122.3670    2.6510 C.3       6 GLL5        0.0000 
      3 CA        -66.6670  124.5130    5.6650 C.3       4 GLP5        0.0000 
      4 N         -63.4075  119.4965    4.0800 N.am      1 SEC2        0.0000 
      5 N         -64.9580  119.2810    4.5850 N.am      5 SEL2        0.0000 
      6 N         -61.8570  119.7120    3.5750 N.am      3 SEP2        0.0000 
      7 CA        -64.7570  120.8935    2.6685 C.3       2 GLC5        0.0000 
      8 CA        -66.2890  119.6300    2.5910 C.3       6 GLL5        0.0000 
      9 CA        -63.2250  122.1570    2.7460 C.3       4 GLP5        0.0000 
     10 CA        -67.6475  117.8220    0.0115 C.3       2 GLC5        0.0000 
     11 CA        -66.2450  118.7650    1.0160 C.3       6 GLL5        0.0000 
     12 CA        -69.0500  116.8790   -0.9930 C.3       4 GLP5        0.0000 
     13 CA        -65.1545  120.4235    0.6805 C.3       2 GLC5        0.0000 
     14 CA        -64.0640  122.0820    0.3450 C.3       4 GLP5        0.0000 
     15 CA        -64.8930  115.9360    2.5535 C.3       2 GLC5        0.0000 
     16 CA        -64.9100  117.6560    1.5800 C.3       6 GLL5        0.0000 
     17 CA        -64.8760  114.2160    3.5270 C.3       4 GLP5        0.0000 
     18 CA        -63.0350  117.8725    1.7100 C.3       2 GLC5        0.0000 
     19 CA        -61.1600  118.0890    1.8400 C.3       4 GLP5        0.0000 
     20 CA        -66.0365  112.2650    0.0130 C.3       2 GLC5        0.0000 
     21 CA        -66.2010  114.2840    0.2770 C.3       6 GLL5        0.0000 
     22 CA        -65.8720  110.2460   -0.2510 C.3       4 GLP5        0.0000 
     23 CA        -67.6890  113.0745   -0.4750 C.3       2 GLC5        0.0000 
     24 CA        -69.1770  111.8650   -1.2270 C.3       4 GLP5        0.0000 
     25 CA        -67.8950  115.2750    0.2885 C.3       2 GLC5        0.0000 
     26 CA        -69.5890  116.2660    0.3000 C.3       4 GLP5        0.0000 
     27 CA        -65.5385  114.2500    1.9020 C.3       2 GLC5        0.0000 
     28 CA        -65.6210  121.9990    3.0010 C.3       2 GLC5        0.0000 
     29 CA        -67.1270  120.6580    2.8910 C.3       6 GLL5        0.0000 
     30 CA        -64.1150  123.3400    3.1110 C.3       4 GLP5        0.0000 
     31 CA        -70.0175  125.1840    2.7245 C.3       2 GLC5        0.0000 
     32 CA        -69.8150  123.1440    1.8870 C.3       6 GLL5        0.0000 
     33 CA        -70.2200  127.2240    3.5620 C.3       4 GLP5        0.0000 
     34 CA        -69.9760  120.1460   -2.3520 C.3       2 GLC5        0.0000 
     35 CA        -68.0870  120.9670   -2.0060 C.3       6 GLL5        0.0000 
     36 CA        -71.8650  119.3250   -2.6980 C.3       4 GLP5        0.0000 
     37 CA        -68.5685  118.9230   -1.4995 C.3       2 GLC5        0.0000 
     38 CA        -67.7180  123.4755    1.8640 C.3       2 GLC5        0.0000 
     39 CA        -66.9420  125.0330    1.3770 C.3       4 GLP5        0.0000 
     40 CA        -67.2060  119.2890    4.3345 C.3       2 GLC5        0.0000 
     41 CA        -67.7040  118.4340    5.9280 C.3       4 GLP5        0.0000 
     42 CA        -67.1567  116.4030   -0.8850 C.3       2 GLC5        0.0000 
     43 CA        -64.8520  116.4750   -0.6160 C.3       6 GLL5        0.0000 
     44 CA        -67.5018  115.9657   -3.7835 C.3       2 GLC5        0.0000 
     45 CA        -66.1130  115.1130   -2.2290 C.3       6 GLL5        0.0000 
     46 CA        -69.0810  116.3960   -4.8230 C.3       4 GLP5        0.0000 
     47 CA        -66.7823  114.2117   -3.9015 C.3       2 GLC5        0.0000 
     48 CA        -65.7320  115.9580   -3.2590 C.3       6 GLL5        0.0000 
     49 CA        -67.6420  112.8880   -5.0590 C.3       4 GLP5        0.0000 
     50 CA        -67.4862  116.2073   -1.8685 C.3       2 GLC5        0.0000 
     51 CA        -66.0540  121.7542    0.8488 C.3       2 GLC5        0.0000 
     52 CA        -68.0440  121.3840    0.6540 C.3       6 GLL5        0.0000 
     53 CA        -70.3473  121.3855    2.9055 C.3       2 GLC5        0.0000 
     54 CA        -68.0440  121.4690    2.0510 C.3       6 GLL5        0.0000 
     55 CA        -71.5400  120.2400    3.6920 C.3       4 GLP5        0.0000 
     56 CA        -71.5477  123.8273    1.7395 C.3       2 GLC5        0.0000 
     57 CA        -73.2890  124.5610    2.2930 C.3       4 GLP5        0.0000 
     58 CA        -68.3743  124.0633    1.2815 C.3       2 GLC5        0.0000 
     59 CA        -71.0353  121.6583   -0.3073 C.3       2 GLC5        0.0000 
     60 CA        -69.7980  123.0430    0.4850 C.3       6 GLL5        0.0000 
     61 CA        -72.7210  120.7200   -0.7960 C.3       4 GLP5        0.0000 
     62 CA        -67.7072  123.4000    0.8215 C.3       2 GLC5        0.0000 
     63 CA        -68.9010  122.1500   -0.1220 C.3       6 GLL5        0.0000 
@<TRIPOS>BOND
@<TRIPOS>SUBSTRUCTURE
     1 SEC2        4 GROUP        1 X    SEC  0     ROOT SEC X 2
     2 GLC5        1 GROUP        1 X    GLC  0     **** GLC X 6
     3 SEP2        6 GROUP        1 Y    SEP  0     ROOT SEP Y 9
     4 GLP5        3 GROUP        1 Y    GLP  0     **** GLP Y 13
     5 SEL2        5 GROUP        1 Z    SEL  0     ROOT SEL Z 16
     6 GLL5        2 GROUP        1 Z    GLL  0     **** GLL Z 20
@<TRIPOS>SET

