#    Name: 4eny_J19_1_ligand
#    Modification time : Mon Mar 24 18:19:14 2014

@<TRIPOS>MOLECULE
4eny_J19_1_ligand
   38    40     1     0     0
SMALL
NO_CHARGES


@<TRIPOS>ATOM
      1 C21       -68.9440  122.3670    2.6510 C.ar      1 J19404      0.0000 
      2 O14       -64.9580  119.2810    4.5850 O.2       1 J19404      0.0000 
      3 C11       -65.2360  118.9750    3.4460 C.2       1 J19404      0.0000 
      4 N10       -64.5180  117.8920    2.8130 N.am      1 J19404      0.0000 
      5 C12       -66.2890  119.6300    2.5910 C.2       1 J19404      0.0000 
      6 S13       -66.2450  118.7650    1.0160 S.3       1 J19404      0.0000 
      7 C9        -64.9100  117.6560    1.5800 C.2       1 J19404      0.0000 
      8 N8        -64.4210  116.6990    0.7220 N.pl3     1 J19404      0.0000 
      9 C4        -64.8520  116.4750   -0.6160 C.ar      1 J19404      0.0000 
     10 C3        -64.4820  117.3120   -1.6840 C.ar      1 J19404      0.0000 
     11 C2        -64.9190  117.0480   -2.9760 C.ar      1 J19404      0.0000 
     12 C5        -65.6750  115.3790   -0.9380 C.ar      1 J19404      0.0000 
     13 CL7       -66.2010  114.2840    0.2770 Cl        1 J19404      0.0000 
     14 C6        -66.1130  115.1130   -2.2290 C.ar      1 J19404      0.0000 
     15 C1        -65.7320  115.9580   -3.2590 C.ar      1 J19404      0.0000 
     16 C15       -67.1270  120.6580    2.8910 C.2       1 J19404      0.0000 
     17 C16       -68.0440  121.4690    2.0510 C.ar      1 J19404      0.0000 
     18 C20       -69.8150  123.1440    1.8870 C.ar      1 J19404      0.0000 
     19 C19       -69.7980  123.0430    0.4850 C.ar      1 J19404      0.0000 
     20 O22       -70.6430  123.8000   -0.2800 O.3       1 J19404      0.0000 
     21 C18       -68.9010  122.1500   -0.1220 C.ar      1 J19404      0.0000 
     22 C17       -68.0440  121.3840    0.6540 C.ar      1 J19404      0.0000 
     23 O23       -68.8680  122.0360   -1.4900 O.3       1 J19404      0.0000 
     24 C24       -68.0870  120.9670   -2.0060 C.3       1 J19404      0.0000 
     25 H         -68.9571  122.4501    3.6828 H         1 J19404      0.0000 
     26 H         -63.8120  117.4165    3.3154 H         1 J19404      0.0000 
     27 H         -63.6451  116.0544    1.0751 H         1 J19404      0.0000 
     28 H         -63.8801  118.1279   -1.4984 H         1 J19404      0.0000 
     29 H         -64.6309  117.6808   -3.7486 H         1 J19404      0.0000 
     30 H         -66.7097  114.3026   -2.4156 H         1 J19404      0.0000 
     31 H         -66.0453  115.7822   -4.2178 H         1 J19404      0.0000 
     32 H         -67.1611  120.9810    3.9494 H         1 J19404      0.0000 
     33 H         -70.4679  123.7887    2.3425 H         1 J19404      0.0000 
     34 H         -67.3831  120.7288    0.1917 H         1 J19404      0.0000 
     35 H         -67.1275  121.0435   -1.7348 H         1 J19404      0.0000 
     36 H         -68.4132  120.0788   -1.6823 H         1 J19404      0.0000 
     37 H         -68.1079  120.9405   -3.0054 H         1 J19404      0.0000 
     38 H         -70.0707  124.5311   -0.6514 H         1 J19404      0.0000 
@<TRIPOS>BOND
     1   17    1 ar   
     2   18    1 ar   
     3   25    1 1    
     4    3    2 2    
     5    4    3 am   
     6    5    3 1    
     7    7    4 2    
     8   26    4 1    
     9    6    5 1    
    10   16    5 2    
    11    7    6 1    
    12    8    7 1    
    13    9    8 1    
    14   27    8 1    
    15   10    9 ar   
    16   12    9 ar   
    17   11   10 ar   
    18   28   10 1    
    19   15   11 ar   
    20   29   11 1    
    21   13   12 1    
    22   14   12 ar   
    23   15   14 ar   
    24   30   14 1    
    25   31   15 1    
    26   17   16 1    
    27   32   16 1    
    28   22   17 ar   
    29   19   18 ar   
    30   33   18 1    
    31   20   19 1    
    32   21   19 ar   
    33   38   20 1    
    34   22   21 ar   
    35   23   21 1    
    36   34   22 1    
    37   24   23 1    
    38   35   24 1    
    39   36   24 1    
    40   37   24 1    
@<TRIPOS>SUBSTRUCTURE
     1 J19404      1 GROUP   
@<TRIPOS>SET

