#    Name: 2w17_I19_1_INTS_M
#    Modification time : Tue Mar 25 03:30:05 2014

@<TRIPOS>MOLECULE
2w17_I19_1_INTS_M
   79     0    12     0     0
SMALL
NO_CHARGES


@<TRIPOS>ATOM
      1 CA          0.9210   28.5715   13.5245 C.3       4 GLC5        0.0000 
      2 CA          0.1740   28.2800   11.7090 C.3      12 GLL5        0.0000 
      3 CA          1.6680   28.8630   15.3400 C.3       8 GLP5        0.0000 
      4 CA         -0.8550   24.8750    8.7635 C.3       4 GLC5        0.0000 
      5 CA         -0.2970   26.8120    9.7030 C.3      12 GLL5        0.0000 
      6 CA         -1.4130   22.9380    7.8240 C.3       8 GLP5        0.0000 
      7 CA         -2.2955   26.9290    8.9415 C.3       4 GLC5        0.0000 
      8 CA         -4.2940   27.0460    8.1800 C.3       8 GLP5        0.0000 
      9 CA         -4.7320   29.7660   10.1900 C.3       4 GLC5        0.0000 
     10 CA         -2.8300   30.5940    9.4110 C.3      12 GLL5        0.0000 
     11 CA         -6.6340   28.9380   10.9690 C.3       8 GLP5        0.0000 
     12 CA          0.8020   29.2000    5.6985 C.3       4 GLC5        0.0000 
     13 CA          1.3930   30.6570    7.1190 C.3      12 GLL5        0.0000 
     14 CA          0.2110   27.7430    4.2780 C.3       8 GLP5        0.0000 
     15 CA         -0.1910   31.1665    5.9990 C.3       4 GLC5        0.0000 
     16 CA         -1.7750   31.6760    4.8790 C.3       8 GLP5        0.0000 
     17 CA          1.8025   31.3205    8.5595 C.3       4 GLC5        0.0000 
     18 CA          2.2120   31.9840   10.0000 C.3       8 GLP5        0.0000 
     19 CA          5.7175   29.6390    5.3750 C.3       4 GLC5        0.0000 
     20 CA          4.1700   28.3550    6.0870 C.3      12 GLL5        0.0000 
     21 CA          7.2650   30.9230    4.6630 C.3       8 GLP5        0.0000 
     22 N           6.9840   26.8135    8.9265 N.am      2 SEC2        0.0000 
     23 N           6.7090   25.6620    7.9600 N.am     10 SEL2        0.0000 
     24 N           7.2590   27.9650    9.8930 N.am      6 SEP2        0.0000 
     25 CA          7.9315   23.4795    8.0850 C.3       4 GLC5        0.0000 
     26 CA          5.8920   23.2030    8.5510 C.3      12 GLL5        0.0000 
     27 CA          9.9710   23.7560    7.6190 C.3       8 GLP5        0.0000 
     28 OD1         6.3595   23.6920   11.1105 O.co2     3 ASC3        0.0000 
     29 OD1         5.5400   22.1920   10.6970 O.co2    11 ASL3        0.0000 
     30 OD1         7.1790   25.1920   11.5240 O.co2     7 ASP3        0.0000 
     31 OD1         5.3035   23.5480   11.2735 O.co2     3 ASC3        0.0000 
     32 OD1         5.0670   24.9040   11.8500 O.co2     7 ASP3        0.0000 
     33 O           5.3035   23.5480   11.2735 O.2       1 ALC1        0.0000 
     34 O           5.5400   22.1920   10.6970 O.2       9 ALL1        0.0000 
     35 O           5.0670   24.9040   11.8500 O.2       5 ALP1        0.0000 
     36 CA          3.9815   22.3885   13.7130 C.3       4 GLC5        0.0000 
     37 CA          4.4970   21.8010   11.6840 C.3      12 GLL5        0.0000 
     38 CA          3.4660   22.9760   15.7420 C.3       8 GLP5        0.0000 
     39 CA          7.2715   21.7855   12.9320 C.3       4 GLC5        0.0000 
     40 CA          6.7650   21.3790   10.9480 C.3      12 GLL5        0.0000 
     41 CA          7.7780   22.1920   14.9160 C.3       8 GLP5        0.0000 
     42 CA          8.3540   22.6495   10.5185 C.3       4 GLC5        0.0000 
     43 CA          9.9430   23.9200   10.0890 C.3       8 GLP5        0.0000 
     44 N           2.4360   32.8485    6.1185 N.am      2 SEC2        0.0000 
     45 N           1.3850   31.9680    6.8370 N.am     10 SEL2        0.0000 
     46 N           3.4870   33.7290    5.4000 N.am      6 SEP2        0.0000 
     47 CA          1.0485   33.5860    5.6300 C.3       4 GLC5        0.0000 
     48 CA          0.4110   32.7080    7.3590 C.3      12 GLL5        0.0000 
     49 CA          1.6860   34.4640    3.9010 C.3       8 GLP5        0.0000 
     50 CA          1.8322   29.1835   10.9462 C.3       4 GLC5        0.0000 
     51 CA         -0.2090   28.2300   10.2440 C.3      12 GLL5        0.0000 
     52 CA          3.6820   30.1120   10.9160 C.3       8 GLP5        0.0000 
     53 CA         -3.5235   27.6148    9.6523 C.3       4 GLC5        0.0000 
     54 CA         -2.5870   28.7460   10.6610 C.3      12 GLL5        0.0000 
     55 CA         -4.6935   28.5607   11.0467 C.3       4 GLC5        0.0000 
     56 CA         -3.0585   28.9952   12.7483 C.3       4 GLC5        0.0000 
     57 CA         -2.9190   27.6210   11.5880 C.3      12 GLL5        0.0000 
     58 CA         -3.3640   29.8070   14.3720 C.3       8 GLP5        0.0000 
     59 CA          0.5993   31.2375    9.4153 C.3       4 GLC5        0.0000 
     60 CA         -1.5290   30.1630    9.2640 C.3      12 GLL5        0.0000 
     61 CA         -2.1689   29.3374    7.5946 C.3       4 GLC5        0.0000 
     62 CA         -0.4980   30.8190    8.3970 C.3      12 GLL5        0.0000 
     63 CA         -2.9990   28.0760    6.3220 C.3       8 GLP5        0.0000 
     64 CA          1.9420   28.1653    5.3942 C.3       4 GLC5        0.0000 
     65 CA          3.1760   28.8200    6.9340 C.3      12 GLL5        0.0000 
     66 CA          4.9680   26.9918    9.8788 C.3       4 GLC5        0.0000 
     67 CA          3.7040   27.0540    8.4590 C.3      12 GLL5        0.0000 
     68 CA          5.7450   27.1550   11.7340 C.3       8 GLP5        0.0000 
     69 CA          3.5330   28.9423    9.4549 C.3       4 GLC5        0.0000 
     70 CA          6.2884   28.2533    7.1546 C.3       4 GLC5        0.0000 
     71 CA          4.6780   26.6030    7.5880 C.3      12 GLL5        0.0000 
     72 CA          8.0870   28.8670    7.7710 C.3       8 GLP5        0.0000 
     73 CA         -1.2776   32.1151    6.5541 C.3       4 GLC5        0.0000 
     74 CA         -0.4955   34.3721    8.7544 C.3       4 GLC5        0.0000 
     75 CA         -0.2030   36.0200    9.3100 C.3       8 GLP5        0.0000 
     76 CA         -2.0355   33.8696    7.5679 C.3       4 GLC5        0.0000 
     77 CA         -1.5010   33.0050    8.6410 C.3      12 GLL5        0.0000 
     78 CA         -3.2830   35.0150    6.9370 C.3       8 GLP5        0.0000 
     79 CA          0.7120   32.3541    9.0994 C.3       4 GLC5        0.0000 
@<TRIPOS>BOND
@<TRIPOS>SUBSTRUCTURE
     1 ALC1       33 GROUP        1 X    ALC  0     ROOT ALC X 1
     2 SEC2       22 GROUP        1 X    SEC  0     **** SEC X 2
     3 ASC3       28 GROUP        1 X    ASC  0     **** ASC X 3
     4 GLC5        1 GROUP        1 X    GLC  0     **** GLC X 6
     5 ALP1       35 GROUP        1 Y    ALP  0     ROOT ALP Y 8
     6 SEP2       24 GROUP        1 Y    SEP  0     **** SEP Y 9
     7 ASP3       30 GROUP        1 Y    ASP  0     **** ASP Y 10
     8 GLP5        3 GROUP        1 Y    GLP  0     **** GLP Y 13
     9 ALL1       34 GROUP        1 Z    ALL  0     ROOT ALL Z 15
    10 SEL2       23 GROUP        1 Z    SEL  0     **** SEL Z 16
    11 ASL3       29 GROUP        1 Z    ASL  0     **** ASL Z 17
    12 GLL5        2 GROUP        1 Z    GLL  0     **** GLL Z 20
@<TRIPOS>SET

