#    Name: 2w17_I19_1_ligand
#    Modification time : Tue Mar 25 03:30:05 2014

@<TRIPOS>MOLECULE
2w17_I19_1_ligand
   65    68     1     0     0
SMALL
NO_CHARGES


@<TRIPOS>ATOM
      1 C1          0.1740   28.2800   11.7090 C.3       1 I191300     0.0000 
      2 C2         -0.2090   28.2300   10.2440 C.3       1 I191300     0.0000 
      3 C3         -0.2970   26.8120    9.7030 C.3       1 I191300     0.0000 
      4 N1         -1.4180   29.0130   10.0590 N.pl3     1 I191300     0.0000 
      5 C4         -2.5870   28.7460   10.6610 C.2       1 I191300     0.0000 
      6 C5         -2.9190   27.6210   11.5880 C.3       1 I191300     0.0000 
      7 N2         -3.4340   29.6980   10.2750 N.pl3     1 I191300     0.0000 
      8 C6         -2.8300   30.5940    9.4110 C.2       1 I191300     0.0000 
      9 C7         -1.5290   30.1630    9.2640 C.2       1 I191300     0.0000 
     10 C8         -0.4980   30.8190    8.3970 C.ar      1 I191300     0.0000 
     11 N3          0.4720   30.0520    7.8830 N.ar      1 I191300     0.0000 
     12 C9          1.3930   30.6570    7.1190 C.ar      1 I191300     0.0000 
     13 N4          2.4590   29.9560    6.5220 N.pl3     1 I191300     0.0000 
     14 C10         3.1760   28.8200    6.9340 C.ar      1 I191300     0.0000 
     15 C11         2.9520   28.1620    8.1230 C.ar      1 I191300     0.0000 
     16 C12         3.7040   27.0540    8.4590 C.ar      1 I191300     0.0000 
     17 C13         4.6780   26.6030    7.5880 C.ar      1 I191300     0.0000 
     18 C14         4.9410   27.2450    6.3910 C.ar      1 I191300     0.0000 
     19 C15         4.1700   28.3550    6.0870 C.ar      1 I191300     0.0000 
     20 C16         5.5040   25.4540    7.9260 C.2       1 I191300     0.0000 
     21 O1          6.7090   25.6620    7.9600 O.2       1 I191300     0.0000 
     22 N5          4.9450   24.2200    8.1530 N.am      1 I191300     0.0000 
     23 C17         3.6290   23.9730    8.6780 C.3       1 I191300     0.0000 
     24 C18         3.6590   22.5010    9.0750 C.3       1 I191300     0.0000 
     25 C19         5.1240   22.1200    9.2560 C.3       1 I191300     0.0000 
     26 C20         5.8920   23.2030    8.5510 C.3       1 I191300     0.0000 
     27 N6          5.5400   22.1920   10.6970 N.4       1 I191300     0.0000 
     28 C21         4.4970   21.8010   11.6840 C.3       1 I191300     0.0000 
     29 C22         6.7650   21.3790   10.9480 C.3       1 I191300     0.0000 
     30 N7          1.3850   31.9680    6.8370 N.ar      1 I191300     0.0000 
     31 C23         0.4110   32.7080    7.3590 C.ar      1 I191300     0.0000 
     32 C24        -0.5610   32.1790    8.1540 C.ar      1 I191300     0.0000 
     33 F1         -1.5010   33.0050    8.6410 F         1 I191300     0.0000 
     34 H           0.6206   28.7416    9.6941 H         1 I191300     0.0000 
     35 H          -4.3734   29.7789   10.5522 H         1 I191300     0.0000 
     36 H          -3.2278   31.3420    9.0086 H         1 I191300     0.0000 
     37 H           2.7912   30.3771    5.5530 H         1 I191300     0.0000 
     38 H           2.2170   28.4985    8.7685 H         1 I191300     0.0000 
     39 H           3.5415   26.5677    9.3497 H         1 I191300     0.0000 
     40 H           5.6640   26.9190    5.7650 H         1 I191300     0.0000 
     41 H           4.3435   28.8598    5.1877 H         1 I191300     0.0000 
     42 H           2.8674   24.1091    7.9352 H         1 I191300     0.0000 
     43 H           3.4294   24.5574    9.5549 H         1 I191300     0.0000 
     44 H           3.2260   21.9077    8.2925 H         1 I191300     0.0000 
     45 H           3.1342   22.3667   10.0015 H         1 I191300     0.0000 
     46 H           5.3277   21.2001    8.8318 H         1 I191300     0.0000 
     47 H           6.6379   23.6053    9.2323 H         1 I191300     0.0000 
     48 H           6.3934   22.7729    7.6873 H         1 I191300     0.0000 
     49 H           5.8216   23.2531   10.9142 H         1 I191300     0.0000 
     50 H           0.3774   33.7475    7.1578 H         1 I191300     0.0000 
     51 H           1.0644   27.8560   11.8748 H         1 I191300     0.0000 
     52 H           0.2294   29.2197   12.0465 H         1 I191300     0.0000 
     53 H          -0.4902   27.8011   12.2831 H         1 I191300     0.0000 
     54 H           0.5750   26.3292    9.7831 H         1 I191300     0.0000 
     55 H          -0.9788   26.2691   10.1933 H         1 I191300     0.0000 
     56 H          -0.5518   26.7985    8.7361 H         1 I191300     0.0000 
     57 H          -2.7863   26.7302   11.1534 H         1 I191300     0.0000 
     58 H          -2.3475   27.6349   12.4085 H         1 I191300     0.0000 
     59 H          -3.8706   27.6595   11.8929 H         1 I191300     0.0000 
     60 H           4.8304   21.8712   12.6242 H         1 I191300     0.0000 
     61 H           3.6856   22.3816   11.6166 H         1 I191300     0.0000 
     62 H           4.1941   20.8574   11.5501 H         1 I191300     0.0000 
     63 H           7.5396   21.6959   10.4008 H         1 I191300     0.0000 
     64 H           7.0474   21.4190   11.9065 H         1 I191300     0.0000 
     65 H           6.6231   20.4147   10.7243 H         1 I191300     0.0000 
@<TRIPOS>BOND
     1    2    1 1    
     2   51    1 1    
     3   52    1 1    
     4   53    1 1    
     5    3    2 1    
     6    4    2 1    
     7   34    2 1    
     8   54    3 1    
     9   55    3 1    
    10   56    3 1    
    11    5    4 2    
    12    9    4 1    
    13    6    5 1    
    14    7    5 1    
    15   57    6 1    
    16   58    6 1    
    17   59    6 1    
    18    8    7 1    
    19   35    7 1    
    20    9    8 2    
    21   36    8 1    
    22   10    9 1    
    23   11   10 ar   
    24   32   10 ar   
    25   12   11 ar   
    26   13   12 1    
    27   30   12 ar   
    28   14   13 1    
    29   37   13 1    
    30   15   14 ar   
    31   19   14 ar   
    32   16   15 ar   
    33   38   15 1    
    34   17   16 ar   
    35   39   16 1    
    36   18   17 ar   
    37   20   17 1    
    38   19   18 ar   
    39   40   18 1    
    40   41   19 1    
    41   21   20 2    
    42   22   20 am   
    43   23   22 1    
    44   26   22 1    
    45   24   23 1    
    46   42   23 1    
    47   43   23 1    
    48   25   24 1    
    49   44   24 1    
    50   45   24 1    
    51   26   25 1    
    52   27   25 1    
    53   46   25 1    
    54   47   26 1    
    55   48   26 1    
    56   28   27 1    
    57   29   27 1    
    58   49   27 1    
    59   60   28 1    
    60   61   28 1    
    61   62   28 1    
    62   63   29 1    
    63   64   29 1    
    64   65   29 1    
    65   31   30 ar   
    66   32   31 ar   
    67   50   31 1    
    68   33   32 1    
@<TRIPOS>SUBSTRUCTURE
     1 I191300     1 GROUP   
@<TRIPOS>SET

