#    Name: 1civ_NAP_1_INTS_M
#    Modification time : Mon Mar 24 20:44:27 2014

@<TRIPOS>MOLECULE
1civ_NAP_1_INTS_M
   85     0     9     0     0
SMALL
NO_CHARGES


@<TRIPOS>ATOM
      1 N           5.1955  120.3890   45.2000 N.am      2 SEC2        0.0000 
      2 N           5.5440  119.2040   44.7210 N.am      8 SEL2        0.0000 
      3 N           4.8470  121.5740   45.6790 N.am      5 SEP2        0.0000 
      4 N           8.2910  115.4615   52.4575 N.am      2 SEC2        0.0000 
      5 N           7.4010  115.9180   51.1630 N.am      8 SEL2        0.0000 
      6 N           9.1810  115.0050   53.7520 N.am      5 SEP2        0.0000 
      7 CA          5.5590  114.9650   49.6515 C.3       3 GLC5        0.0000 
      8 CA          7.6700  114.3660   49.4160 C.3       9 GLL5        0.0000 
      9 CA          3.4480  115.5640   49.8870 C.3       6 GLP5        0.0000 
     10 CA          6.0855  113.7785   48.1460 C.3       3 GLC5        0.0000 
     11 CA          4.5010  113.1910   46.8760 C.3       6 GLP5        0.0000 
     12 CA          7.9435  109.8070   50.3980 C.3       3 GLC5        0.0000 
     13 CA          7.3660  111.5460   51.5690 C.3       9 GLL5        0.0000 
     14 CA          8.5210  108.0680   49.2270 C.3       6 GLP5        0.0000 
     15 CA          6.2825  109.0185   51.4600 C.3       3 GLC5        0.0000 
     16 CA          6.6210  110.7510   52.4410 C.3       9 GLL5        0.0000 
     17 CA          5.9440  107.2860   50.4790 C.3       6 GLP5        0.0000 
     18 CA          2.9960  112.1495   51.6300 C.3       3 GLC5        0.0000 
     19 CA          4.8810  112.3130   52.2280 C.3       9 GLL5        0.0000 
     20 CA          1.1110  111.9860   51.0320 C.3       6 GLP5        0.0000 
     21 CA          4.1645  113.9385   51.0575 C.3       3 GLC5        0.0000 
     22 CA          3.4845  112.1605   53.9010 C.3       3 GLC5        0.0000 
     23 CA          2.0880  112.0080   55.5740 C.3       6 GLP5        0.0000 
     24 CA          4.8330  113.9425   53.7055 C.3       3 GLC5        0.0000 
     25 CA          4.7850  115.5720   55.1830 C.3       6 GLP5        0.0000 
     26 N           4.1685  113.8435   51.0630 N.am      2 SEC2        0.0000 
     27 N           5.6210  113.0860   51.4390 N.am      8 SEL2        0.0000 
     28 N           2.7160  114.6010   50.6870 N.am      5 SEP2        0.0000 
     29 CA          5.3190  113.7460   44.9240 C.3       3 GLC5        0.0000 
     30 CA          6.1370  114.3010   42.9720 C.3       9 GLL5        0.0000 
     31 CA          6.3270  111.3355   43.8480 C.3       3 GLC5        0.0000 
     32 CA          5.8360  112.9240   42.3750 C.3       9 GLL5        0.0000 
     33 CA          6.8180  109.7470   45.3210 C.3       6 GLP5        0.0000 
     34 CA          4.5645  111.6335   42.7685 C.3       3 GLC5        0.0000 
     35 CA          3.2930  110.3430   43.1620 C.3       6 GLP5        0.0000 
     36 N           4.6490  111.1980   41.5370 N.am      2 SEC2        0.0000 
     37 N           4.5690  112.9280   41.6750 N.am      8 SEL2        0.0000 
     38 N           4.7290  109.4680   41.3990 N.am      5 SEP2        0.0000 
     39 N           6.0205  110.3290   41.3865 N.am      2 SEC2        0.0000 
     40 N           7.3120  111.1900   41.3740 N.am      8 SEL2        0.0000 
     41 CA          5.9810  113.5620   37.9375 C.3       3 GLC5        0.0000 
     42 CA          6.2690  113.0360   40.0480 C.3       9 GLL5        0.0000 
     43 CA          5.6930  114.0880   35.8270 C.3       6 GLP5        0.0000 
     44 N           5.9045  111.5870   38.3420 N.am      2 SEC2        0.0000 
     45 N           6.8300  112.3850   38.9030 N.am      8 SEL2        0.0000 
     46 N           4.9790  110.7890   37.7810 N.am      5 SEP2        0.0000 
     47 O           8.1230  112.8440   39.1510 O.2       1 ALC1        0.0000 
     48 O           6.8300  112.3850   38.9030 O.2       7 ALL1        0.0000 
     49 O           9.4160  113.3030   39.3990 O.2       4 ALP1        0.0000 
     50 CA          4.0430  111.5435   41.7130 C.3       3 GLC5        0.0000 
     51 CA          4.7930  112.7440   40.2640 C.3       9 GLL5        0.0000 
     52 O          -0.8825  111.1295   37.1320 O.2       1 ALC1        0.0000 
     53 O           0.4930  111.8330   37.6560 O.2       7 ALL1        0.0000 
     54 O          -2.2580  110.4260   36.6080 O.2       4 ALP1        0.0000 
     55 CA          1.1635  115.9885   36.0650 C.3       3 GLC5        0.0000 
     56 CA          2.2690  115.0640   37.7410 C.3       9 GLL5        0.0000 
     57 CA          0.0580  116.9130   34.3890 C.3       6 GLP5        0.0000 
     58 N           9.1725  118.7180   51.7725 N.am      2 SEC2        0.0000 
     59 N           7.8930  118.2990   51.1010 N.am      8 SEL2        0.0000 
     60 N          10.4520  119.1370   52.4440 N.am      5 SEP2        0.0000 
     61 N           7.1275  116.2020   54.4215 N.am      2 SEC2        0.0000 
     62 N           7.1300  117.1470   53.2060 N.am      8 SEL2        0.0000 
     63 N           7.1250  115.2570   55.6370 N.am      5 SEP2        0.0000 
     64 N           8.1555  116.0760   53.4790 N.am      2 SEC2        0.0000 
     65 N           4.5660  118.5640   51.4375 N.am      2 SEC2        0.0000 
     66 N           5.5400  117.5350   51.3470 N.am      8 SEL2        0.0000 
     67 N           3.5920  119.5930   51.5280 N.am      5 SEP2        0.0000 
     68 CA          5.9830  114.5573   46.9237 C.3       3 GLC5        0.0000 
     69 CA          7.3840  115.6210   47.6640 C.3       9 GLL5        0.0000 
     70 CA          8.0655  113.0660   53.0267 C.3       3 GLC5        0.0000 
     71 CA          6.8740  112.7280   51.0700 C.3       9 GLL5        0.0000 
     72 CA          9.0110  113.9950   54.7340 C.3       6 GLP5        0.0000 
     73 CA          5.7724  110.9342   39.8663 C.3       3 GLC5        0.0000 
     74 CA          6.9000  112.5620   41.3540 C.3       9 GLL5        0.0000 
     75 CA          5.8560  109.0970   39.2500 C.3       6 GLP5        0.0000 
     76 CA          1.4235  113.4475   40.1760 C.3       3 GLC5        0.0000 
     77 CA          2.8630  112.9610   38.7400 C.3       9 GLL5        0.0000 
     78 CA          0.3970  113.5660   42.0330 C.3       6 GLP5        0.0000 
     79 CA          4.0715  113.7085   37.0730 C.3       3 GLC5        0.0000 
     80 CA          1.1310  116.1026   38.5236 C.3       3 GLC5        0.0000 
     81 CA          3.3030  115.6960   38.4310 C.3       9 GLL5        0.0000 
     82 CA         -0.4660  117.1670   38.9220 C.3       6 GLP5        0.0000 
     83 CA          2.7052  116.4155   40.0085 C.3       3 GLC5        0.0000 
     84 CA          1.9580  117.6600   41.3300 C.3       6 GLP5        0.0000 
     85 CA          4.5727  114.6295   37.2570 C.3       3 GLC5        0.0000 
@<TRIPOS>BOND
@<TRIPOS>SUBSTRUCTURE
     1 ALC1       47 GROUP        1 X    ALC  0     ROOT ALC X 1
     2 SEC2        1 GROUP        1 X    SEC  0     **** SEC X 2
     3 GLC5        7 GROUP        1 X    GLC  0     **** GLC X 6
     4 ALP1       49 GROUP        1 Y    ALP  0     ROOT ALP Y 8
     5 SEP2        3 GROUP        1 Y    SEP  0     **** SEP Y 9
     6 GLP5        9 GROUP        1 Y    GLP  0     **** GLP Y 13
     7 ALL1       48 GROUP        1 Z    ALL  0     ROOT ALL Z 15
     8 SEL2        2 GROUP        1 Z    SEL  0     **** SEL Z 16
     9 GLL5        8 GROUP        1 Z    GLL  0     **** GLL Z 20
@<TRIPOS>SET

