#    Name: 1civ_NAP_1_ligand
#    Modification time : Mon Mar 24 20:44:27 2014

@<TRIPOS>MOLECULE
1civ_NAP_1_ligand
   73    77     1     0     0
SMALL
NO_CHARGES


@<TRIPOS>ATOM
      1 PA          6.7060  118.2900   44.7940 P.3       1 NAP386      0.0000 
      2 O1A         5.5440  119.2040   44.7210 O.co2     1 NAP386      0.0000 
      3 O2A         8.0380  118.9550   44.8130 O.co2     1 NAP386      0.0000 
      4 O5B         6.6090  117.3180   46.0890 O.3       1 NAP386      0.0000 
      5 C5B         7.5460  116.2260   46.2790 C.3       1 NAP386      0.0000 
      6 C4B         7.3840  115.6210   47.6640 C.3       1 NAP386      0.0000 
      7 O4B         8.0730  114.4120   48.0420 O.3       1 NAP386      0.0000 
      8 C3B         7.7790  116.6070   48.7220 C.3       1 NAP386      0.0000 
      9 O3B         6.6640  117.4680   48.9150 O.3       1 NAP386      0.0000 
     10 C2B         8.0770  115.7140   49.9240 C.3       1 NAP386      0.0000 
     11 O2B         7.4010  115.9180   51.1630 O.3       1 NAP386      0.0000 
     12 C1B         7.6700  114.3660   49.4160 C.3       1 NAP386      0.0000 
     13 N9A         7.8870  113.2410   50.3620 N.pl3     1 NAP386      0.0000 
     14 C8A         8.9490  112.4220   50.4790 C.2       1 NAP386      0.0000 
     15 N7A         8.6410  111.3510   51.2270 N.2       1 NAP386      0.0000 
     16 C5A         7.3660  111.5460   51.5690 C.ar      1 NAP386      0.0000 
     17 C6A         6.6210  110.7510   52.4410 C.ar      1 NAP386      0.0000 
     18 N6A         7.2430  109.9470   53.2910 N.pl3     1 NAP386      0.0000 
     19 N1A         5.3600  111.1680   52.7040 N.ar      1 NAP386      0.0000 
     20 C2A         4.8810  112.3130   52.2280 C.ar      1 NAP386      0.0000 
     21 N3A         5.6210  113.0860   51.4390 N.ar      1 NAP386      0.0000 
     22 C4A         6.8740  112.7280   51.0700 C.ar      1 NAP386      0.0000 
     23 O3          6.6420  117.2340   43.5800 O.3       1 NAP386      0.0000 
     24 PN          5.5310  116.8810   42.4760 P.3       1 NAP386      0.0000 
     25 O1N         6.0870  117.0930   41.1080 O.co2     1 NAP386      0.0000 
     26 O2N         4.3810  117.6970   42.9210 O.co2     1 NAP386      0.0000 
     27 O5D         5.1510  115.3100   42.6610 O.3       1 NAP386      0.0000 
     28 C5D         6.1370  114.3010   42.9720 C.3       1 NAP386      0.0000 
     29 C4D         5.8360  112.9240   42.3750 C.3       1 NAP386      0.0000 
     30 O4D         4.5690  112.9280   41.6750 O.3       1 NAP386      0.0000 
     31 C3D         6.9000  112.5620   41.3540 C.3       1 NAP386      0.0000 
     32 O3D         7.3120  111.1900   41.3740 O.3       1 NAP386      0.0000 
     33 C2D         6.2690  113.0360   40.0480 C.3       1 NAP386      0.0000 
     34 O2D         6.8300  112.3850   38.9030 O.3       1 NAP386      0.0000 
     35 C1D         4.7930  112.7440   40.2640 C.3       1 NAP386      0.0000 
     36 N1N         3.9030  113.5840   39.4340 N.pl3     1 NAP386      0.0000 
     37 C2N         2.8630  112.9610   38.7400 C.ar      1 NAP386      0.0000 
     38 C3N         2.0370  113.6970   37.8980 C.ar      1 NAP386      0.0000 
     39 C7N         0.8780  113.0070   37.1630 C.2       1 NAP386      0.0000 
     40 O7N         0.4740  113.4320   36.0750 O.2       1 NAP386      0.0000 
     41 N7N         0.4930  111.8330   37.6560 N.am      1 NAP386      0.0000 
     42 C4N         2.2690  115.0640   37.7410 C.ar      1 NAP386      0.0000 
     43 C5N         3.3030  115.6960   38.4310 C.ar      1 NAP386      0.0000 
     44 C6N         4.1190  114.9620   39.2880 C.ar      1 NAP386      0.0000 
     45 P2B         6.9530  117.3410   51.7480 P.3       1 NAP386      0.0000 
     46 O1X         7.8930  118.2990   51.1010 O.co2     1 NAP386      0.0000 
     47 O2X         7.1300  117.1470   53.2060 O.co2     1 NAP386      0.0000 
     48 O3X         5.5400  117.5350   51.3470 O.co2     1 NAP386      0.0000 
     49 H           8.5813  116.5735   46.1749 H         1 NAP386      0.0000 
     50 H           7.3831  115.4344   45.5372 H         1 NAP386      0.0000 
     51 H           6.2806  115.4640   47.8390 H         1 NAP386      0.0000 
     52 H           8.6567  117.0924   48.4182 H         1 NAP386      0.0000 
     53 H           9.1591  115.6643   50.0401 H         1 NAP386      0.0000 
     54 H           6.4843  114.5148   49.3674 H         1 NAP386      0.0000 
     55 H           9.8274  112.5874   50.0721 H         1 NAP386      0.0000 
     56 H           7.1027  110.1400   54.2622 H         1 NAP386      0.0000 
     57 H           7.7965  109.2201   52.8844 H         1 NAP386      0.0000 
     58 H           3.9017  112.6121   52.4793 H         1 NAP386      0.0000 
     59 H           6.2391  114.1726   44.0726 H         1 NAP386      0.0000 
     60 H           7.1446  114.6076   42.6129 H         1 NAP386      0.0000 
     61 H           5.8464  112.1922   43.1516 H         1 NAP386      0.0000 
     62 H           7.7417  113.2498   41.5436 H         1 NAP386      0.0000 
     63 H           6.3827  114.1111   40.0203 H         1 NAP386      0.0000 
     64 H           4.6428  111.6875   40.0169 H         1 NAP386      0.0000 
     65 H           2.7093  111.9484   38.8549 H         1 NAP386      0.0000 
     66 H          -0.2408  111.3673   37.1613 H         1 NAP386      0.0000 
     67 H           0.9721  111.5220   38.4768 H         1 NAP386      0.0000 
     68 H           1.6680  115.6135   37.1066 H         1 NAP386      0.0000 
     69 H           3.4620  116.7033   38.3064 H         1 NAP386      0.0000 
     70 H           4.8704  115.4196   39.8084 H         1 NAP386      0.0000 
     71 H           6.5109  117.8966   48.0245 H         1 NAP386      0.0000 
     72 H           7.6177  110.9981   40.4415 H         1 NAP386      0.0000 
     73 H           7.6142  112.9485   38.6434 H         1 NAP386      0.0000 
@<TRIPOS>BOND
     1    2    1 ar   
     2    3    1 ar   
     3    4    1 1    
     4   23    1 1    
     5    5    4 1    
     6    6    5 1    
     7   49    5 1    
     8   50    5 1    
     9    7    6 1    
    10    8    6 1    
    11   51    6 1    
    12   12    7 1    
    13    9    8 1    
    14   10    8 1    
    15   52    8 1    
    16   71    9 1    
    17   11   10 1    
    18   12   10 1    
    19   53   10 1    
    20   45   11 1    
    21   13   12 1    
    22   54   12 1    
    23   14   13 1    
    24   22   13 1    
    25   15   14 2    
    26   55   14 1    
    27   16   15 1    
    28   17   16 ar   
    29   22   16 ar   
    30   18   17 1    
    31   19   17 ar   
    32   56   18 1    
    33   57   18 1    
    34   20   19 ar   
    35   21   20 ar   
    36   58   20 1    
    37   22   21 ar   
    38   24   23 1    
    39   25   24 ar   
    40   26   24 ar   
    41   27   24 1    
    42   28   27 1    
    43   29   28 1    
    44   59   28 1    
    45   60   28 1    
    46   30   29 1    
    47   31   29 1    
    48   61   29 1    
    49   35   30 1    
    50   32   31 1    
    51   33   31 1    
    52   62   31 1    
    53   72   32 1    
    54   34   33 1    
    55   35   33 1    
    56   63   33 1    
    57   73   34 1    
    58   36   35 1    
    59   64   35 1    
    60   37   36 ar   
    61   44   36 ar   
    62   38   37 ar   
    63   65   37 1    
    64   39   38 1    
    65   42   38 ar   
    66   40   39 2    
    67   41   39 am   
    68   66   41 1    
    69   67   41 1    
    70   43   42 ar   
    71   68   42 1    
    72   44   43 ar   
    73   69   43 1    
    74   70   44 1    
    75   46   45 ar   
    76   47   45 ar   
    77   48   45 ar   
@<TRIPOS>SUBSTRUCTURE
     1 NAP386      1 GROUP   
@<TRIPOS>SET

