#    Name: 1j1z_ATP_3_INTS_M
#    Modification time : Tue Mar 25 08:31:24 2014

@<TRIPOS>MOLECULE
1j1z_ATP_3_INTS_M
   60     0    12     0     0
SMALL
NO_CHARGES


@<TRIPOS>ATOM
      1 N          -0.3650   87.2700    6.4080 N.am      2 SEC2        0.0000 
      2 N          -1.2640   88.3330    6.2070 N.am     10 SEL2        0.0000 
      3 N           0.5340   86.2070    6.6090 N.am      6 SEP2        0.0000 
      4 NZ         -2.6670   86.7790   10.3995 N.4       3 LYC4        0.0000 
      5 NZ         -2.3310   88.1330   10.1710 N.4      11 LYL4        0.0000 
      6 NZ         -3.0030   85.4250   10.6280 N.4       7 LYP4        0.0000 
      7 N          -2.6670   86.7790   10.3995 N.am      2 SEC2        0.0000 
      8 N          -2.3310   88.1330   10.1710 N.am     10 SEL2        0.0000 
      9 N          -3.0030   85.4250   10.6280 N.am      6 SEP2        0.0000 
     10 NZ         -1.5125   89.1630   12.5750 N.4       3 LYC4        0.0000 
     11 NZ         -1.6170   90.1800   11.4510 N.4      11 LYL4        0.0000 
     12 NZ         -1.6750   88.7310   14.8560 N.4       7 LYP4        0.0000 
     13 N          -1.5125   89.1630   12.5750 N.am      2 SEC2        0.0000 
     14 N          -1.6170   90.1800   11.4510 N.am     10 SEL2        0.0000 
     15 N          -1.4080   88.1460   13.6990 N.am      6 SEP2        0.0000 
     16 CA         -5.8540   90.1960   14.1840 C.3       4 GLC5        0.0000 
     17 CA         -5.5190   90.9320   12.5270 C.3      12 GLL5        0.0000 
     18 CA         -6.1890   89.4600   15.8410 C.3       8 GLP5        0.0000 
     19 N          -8.2035   92.4480   12.0220 N.am      2 SEC2        0.0000 
     20 N          -7.2540   93.3030   12.8100 N.am     10 SEL2        0.0000 
     21 N          -9.1530   91.5930   11.2340 N.am      6 SEP2        0.0000 
     22 O          -7.3655   94.6040   12.6670 O.2       1 ALC1        0.0000 
     23 O          -7.2540   93.3030   12.8100 O.2       9 ALL1        0.0000 
     24 O          -7.4770   95.9050   12.5240 O.2       5 ALP1        0.0000 
     25 CA         -5.4245   91.7550   15.0590 C.3       4 GLC5        0.0000 
     26 CA         -5.0030   92.8030   13.7920 C.3      12 GLL5        0.0000 
     27 CA         -5.8460   90.7070   16.3260 C.3       8 GLP5        0.0000 
     28 CA         -2.1710   96.6165   12.7885 C.3       4 GLC5        0.0000 
     29 CA         -1.6130   96.1340   14.7500 C.3      12 GLL5        0.0000 
     30 CA         -2.7290   97.0990   10.8270 C.3       8 GLP5        0.0000 
     31 O           0.2575   97.3860   15.6500 O.2       1 ALC1        0.0000 
     32 O          -0.3430   96.4750   14.6810 O.2       9 ALL1        0.0000 
     33 O           0.8580   98.2970   16.6190 O.2       5 ALP1        0.0000 
     34 N          -2.1080   98.2025   16.0490 N.am      2 SEC2        0.0000 
     35 N          -2.5260   97.0060   15.3360 N.am     10 SEL2        0.0000 
     36 N          -1.6900   99.3990   16.7620 N.am      6 SEP2        0.0000 
     37 CA         -5.8685   96.6465   15.0930 C.3       4 GLC5        0.0000 
     38 CA         -3.8350   96.6760   15.4170 C.3      12 GLL5        0.0000 
     39 CA         -7.9020   96.6170   14.7690 C.3       8 GLP5        0.0000 
     40 CA         -3.4755   98.6310   15.3245 C.3       4 GLC5        0.0000 
     41 CA         -3.1160  100.5860   15.2320 C.3       8 GLP5        0.0000 
     42 CA         -2.5865   97.3870   17.1040 C.3       4 GLC5        0.0000 
     43 CA         -1.3380   98.0980   18.7910 C.3       8 GLP5        0.0000 
     44 CA         -4.4550   95.5615   16.9095 C.3       4 GLC5        0.0000 
     45 CA         -5.0750   94.4470   18.4020 C.3       8 GLP5        0.0000 
     46 CA         -5.5600   94.9275   14.8290 C.3       4 GLC5        0.0000 
     47 CA         -3.4270   94.6600   14.3760 C.3      12 GLL5        0.0000 
     48 CA         -7.6930   95.1950   15.2820 C.3       8 GLP5        0.0000 
     49 CA         -7.3208   91.2423   10.9862 C.3       4 GLC5        0.0000 
     50 CA         -9.0330   91.0000    9.9170 C.3       8 GLP5        0.0000 
     51 CA         -5.9333   93.5418   10.2875 C.3       4 GLC5        0.0000 
     52 CA         -5.6980   92.0370   11.5840 C.3      12 GLL5        0.0000 
     53 CA         -6.0770   94.4690    8.5160 C.3       8 GLP5        0.0000 
     54 CA         -6.5675   94.0962   14.2225 C.3       4 GLC5        0.0000 
     55 CA         -5.8810   93.1920   12.5340 C.3      12 GLL5        0.0000 
     56 CA         -2.5867   95.2308   12.3128 C.3       4 GLC5        0.0000 
     57 CA         -2.4190   95.6930   10.3210 C.3       8 GLP5        0.0000 
     58 CA         -2.4791   94.1539   16.1139 C.3       4 GLC5        0.0000 
     59 CA         -2.0820   94.8770   14.2330 C.3      12 GLL5        0.0000 
     60 CA         -2.3210   93.2250   17.7940 C.3       8 GLP5        0.0000 
@<TRIPOS>BOND
@<TRIPOS>SUBSTRUCTURE
     1 ALC1       22 GROUP        1 X    ALC  0     ROOT ALC X 1
     2 SEC2        1 GROUP        1 X    SEC  0     **** SEC X 2
     3 LYC4        4 GROUP        1 X    LYC  0     **** LYC X 4
     4 GLC5       16 GROUP        1 X    GLC  0     **** GLC X 6
     5 ALP1       24 GROUP        1 Y    ALP  0     ROOT ALP Y 8
     6 SEP2        3 GROUP        1 Y    SEP  0     **** SEP Y 9
     7 LYP4        6 GROUP        1 Y    LYP  0     **** LYP Y 11
     8 GLP5       18 GROUP        1 Y    GLP  0     **** GLP Y 13
     9 ALL1       23 GROUP        1 Z    ALL  0     ROOT ALL Z 15
    10 SEL2        2 GROUP        1 Z    SEL  0     **** SEL Z 16
    11 LYL4        5 GROUP        1 Z    LYL  0     **** LYL Z 18
    12 GLL5       17 GROUP        1 Z    GLL  0     **** GLL Z 20
@<TRIPOS>SET

