#    Name: 1j1z_ATP_3_ligand
#    Modification time : Tue Mar 25 08:31:24 2014

@<TRIPOS>MOLECULE
1j1z_ATP_3_ligand
   43    45     1     0     0
SMALL
NO_CHARGES


@<TRIPOS>ATOM
      1 PG         -1.5210   89.8010    6.0280 P.3       1 ATP3510     0.0000 
      2 O1G        -1.2640   88.3330    6.2070 O.co2     1 ATP3510     0.0000 
      3 O2G        -0.4240   90.7100    6.4830 O.co2     1 ATP3510     0.0000 
      4 O3G        -1.9100   90.0900    4.6110 O.co2     1 ATP3510     0.0000 
      5 PB         -3.0410   91.3660    8.0050 P.3       1 ATP3510     0.0000 
      6 O1B        -4.3900   91.8350    8.1340 O.co2     1 ATP3510     0.0000 
      7 O2B        -1.9480   92.1750    8.5330 O.co2     1 ATP3510     0.0000 
      8 O3B        -2.7950   90.2850    6.8690 O.3       1 ATP3510     0.0000 
      9 PA         -2.4390   89.5430   10.4150 P.3       1 ATP3510     0.0000 
     10 O1A        -2.3310   88.1330   10.1710 O.co2     1 ATP3510     0.0000 
     11 O2A        -1.6170   90.1800   11.4510 O.co2     1 ATP3510     0.0000 
     12 O3A        -3.2300   90.5340    9.4410 O.3       1 ATP3510     0.0000 
     13 O5'        -3.6700   89.6550   11.1440 O.3       1 ATP3510     0.0000 
     14 C5'        -4.5280   90.3670   11.6640 C.3       1 ATP3510     0.0000 
     15 C4'        -5.5190   90.9320   12.5270 C.3       1 ATP3510     0.0000 
     16 O4'        -4.7890   91.3420   13.6890 O.3       1 ATP3510     0.0000 
     17 C3'        -5.6980   92.0370   11.5840 C.3       1 ATP3510     0.0000 
     18 O3'        -6.6360   91.8920   10.5540 O.3       1 ATP3510     0.0000 
     19 C2'        -5.8810   93.1920   12.5340 C.3       1 ATP3510     0.0000 
     20 O2'        -7.2540   93.3030   12.8100 O.3       1 ATP3510     0.0000 
     21 C1'        -5.0030   92.8030   13.7920 C.3       1 ATP3510     0.0000 
     22 N9         -3.6640   93.4430   13.8410 N.pl3     1 ATP3510     0.0000 
     23 C8         -2.4130   92.9860   13.3900 C.2       1 ATP3510     0.0000 
     24 N7         -1.4380   93.8120   13.6040 N.2       1 ATP3510     0.0000 
     25 C5         -2.0820   94.8770   14.2330 C.ar      1 ATP3510     0.0000 
     26 C6         -1.6130   96.1340   14.7500 C.ar      1 ATP3510     0.0000 
     27 N6         -0.3430   96.4750   14.6810 N.pl3     1 ATP3510     0.0000 
     28 N1         -2.5260   97.0060   15.3360 N.ar      1 ATP3510     0.0000 
     29 C2         -3.8350   96.6760   15.4170 C.ar      1 ATP3510     0.0000 
     30 N3         -4.3920   95.5260   14.9680 N.ar      1 ATP3510     0.0000 
     31 C4         -3.4270   94.6600   14.3760 C.ar      1 ATP3510     0.0000 
     32 H          -5.2201   90.7339   10.4904 H         1 ATP3510     0.0000 
     33 H          -3.9567   91.6209   11.3604 H         1 ATP3510     0.0000 
     34 H          -6.3083   90.3656   12.6222 H         1 ATP3510     0.0000 
     35 H          -4.6544   92.2170   11.1561 H         1 ATP3510     0.0000 
     36 H          -5.4466   94.0540   12.0965 H         1 ATP3510     0.0000 
     37 H          -5.5721   93.0116   14.6671 H         1 ATP3510     0.0000 
     38 H          -2.3409   92.0882   12.9471 H         1 ATP3510     0.0000 
     39 H           0.1667   96.1174   13.8985 H         1 ATP3510     0.0000 
     40 H          -0.0039   97.0605   15.4174 H         1 ATP3510     0.0000 
     41 H          -4.4966   97.3937   15.8815 H         1 ATP3510     0.0000 
     42 H          -6.0937   91.8429    9.7153 H         1 ATP3510     0.0000 
     43 H          -7.5638   94.0862   12.2709 H         1 ATP3510     0.0000 
@<TRIPOS>BOND
     1    2    1 ar   
     2    3    1 ar   
     3    4    1 ar   
     4    8    1 1    
     5    6    5 ar   
     6    7    5 ar   
     7    8    5 1    
     8   12    5 1    
     9   10    9 ar   
    10   11    9 ar   
    11   12    9 1    
    12   13    9 1    
    13   14   13 1    
    14   15   14 1    
    15   32   14 1    
    16   33   14 1    
    17   16   15 1    
    18   17   15 1    
    19   34   15 1    
    20   21   16 1    
    21   18   17 1    
    22   19   17 1    
    23   35   17 1    
    24   42   18 1    
    25   20   19 1    
    26   21   19 1    
    27   36   19 1    
    28   43   20 1    
    29   22   21 1    
    30   37   21 1    
    31   23   22 1    
    32   31   22 1    
    33   24   23 2    
    34   38   23 1    
    35   25   24 1    
    36   26   25 ar   
    37   31   25 ar   
    38   27   26 1    
    39   28   26 ar   
    40   39   27 1    
    41   40   27 1    
    42   29   28 ar   
    43   30   29 ar   
    44   41   29 1    
    45   31   30 ar   
@<TRIPOS>SUBSTRUCTURE
     1 ATP3510     1 GROUP   
@<TRIPOS>SET

