#    Name: 3l0e_G58_1_INTS_M
#    Modification time : Mon Mar 24 20:44:14 2014

@<TRIPOS>MOLECULE
3l0e_G58_1_INTS_M
   94     0     6     0     0
SMALL
NO_CHARGES


@<TRIPOS>ATOM
      1 CA          8.4000  -29.5425   -4.4020 C.3       2 GLC5        0.0000 
      2 CA          9.9750  -29.3050   -4.6910 C.3       6 GLL5        0.0000 
      3 CA          6.8250  -29.7800   -4.1130 C.3       4 GLP5        0.0000 
      4 CA          9.6890  -28.6730   -6.5615 C.3       2 GLC5        0.0000 
      5 CA          9.4030  -28.0410   -8.4320 C.3       4 GLP5        0.0000 
      6 CA         11.8100  -29.6665   -4.8745 C.3       2 GLC5        0.0000 
      7 CA         13.6450  -30.0280   -5.0580 C.3       4 GLP5        0.0000 
      8 CA          9.3380  -27.9620   -3.7820 C.3       2 GLC5        0.0000 
      9 CA          8.7010  -26.6190   -2.8730 C.3       4 GLP5        0.0000 
     10 CA         13.9950  -34.9715   -6.8775 C.3       2 GLC5        0.0000 
     11 CA         15.1080  -34.8390   -5.4830 C.3       6 GLL5        0.0000 
     12 CA         12.8820  -35.1040   -8.2720 C.3       4 GLP5        0.0000 
     13 CA         16.0275  -34.7355   -6.8860 C.3       2 GLC5        0.0000 
     14 CA         16.9470  -34.6320   -8.2890 C.3       4 GLP5        0.0000 
     15 CA         14.6245  -33.2400   -6.1935 C.3       2 GLC5        0.0000 
     16 CA         14.1410  -31.6410   -6.9040 C.3       4 GLP5        0.0000 
     17 CA         15.6830  -35.6260    0.5000 C.3       2 GLC5        0.0000 
     18 CA         15.8840  -33.8540   -0.6030 C.3       6 GLL5        0.0000 
     19 CA         15.4820  -37.3980    1.6030 C.3       4 GLP5        0.0000 
     20 CA         17.1400  -32.4915   -1.4570 C.3       2 GLC5        0.0000 
     21 CA         18.3960  -31.1290   -2.3110 C.3       4 GLP5        0.0000 
     22 CA         16.0175  -32.3690    0.1045 C.3       2 GLC5        0.0000 
     23 CA         16.1510  -30.8840    0.8120 C.3       4 GLP5        0.0000 
     24 CA         14.4755  -33.9765    0.9295 C.3       2 GLC5        0.0000 
     25 CA         13.0670  -34.0990    2.4620 C.3       4 GLP5        0.0000 
     26 CA          8.9525  -32.9725   -2.7890 C.3       2 GLC5        0.0000 
     27 CA         10.9110  -32.3020   -2.9920 C.3       6 GLL5        0.0000 
     28 CA          6.9940  -33.6430   -2.5860 C.3       4 GLP5        0.0000 
     29 N          14.4990  -45.4160   -6.4440 N.am      1 SEC2        0.0000 
     30 N          15.0270  -44.8380   -5.1370 N.am      5 SEL2        0.0000 
     31 N          13.9710  -45.9940   -7.7510 N.am      3 SEP2        0.0000 
     32 CA         10.3825  -29.3565   -1.9945 C.3       2 GLC5        0.0000 
     33 CA         10.9310  -30.9260   -3.0420 C.3       6 GLL5        0.0000 
     34 CA          9.8340  -27.7870   -0.9470 C.3       4 GLP5        0.0000 
     35 CA         12.1810  -35.1540   -5.3350 C.3       2 GLC5        0.0000 
     36 CA         12.4590  -35.3040   -3.3680 C.3       6 GLL5        0.0000 
     37 CA         11.9030  -35.0040   -7.3020 C.3       4 GLP5        0.0000 
     38 CA         17.7230  -39.9715   -1.0690 C.3       2 GLC5        0.0000 
     39 CA         16.4410  -40.5170   -2.8060 C.3       6 GLL5        0.0000 
     40 CA         19.0050  -39.4260    0.6680 C.3       4 GLP5        0.0000 
     41 CA         17.5565  -43.6320   -4.8060 C.3       2 GLC5        0.0000 
     42 CA         16.3330  -42.8600   -3.2920 C.3       6 GLL5        0.0000 
     43 CA         18.7800  -44.4040   -6.3200 C.3       4 GLP5        0.0000 
     44 CA         12.4470  -41.0695   -4.3660 C.3       2 GLC5        0.0000 
     45 CA         14.4440  -41.4230   -3.7130 C.3       6 GLL5        0.0000 
     46 CA         10.4500  -40.7160   -5.0190 C.3       4 GLP5        0.0000 
     47 CA         11.2045  -43.0360   -5.8865 C.3       2 GLC5        0.0000 
     48 CA         12.7380  -43.4380   -5.2570 C.3       6 GLL5        0.0000 
     49 CA          9.6710  -42.6340   -6.5160 C.3       4 GLP5        0.0000 
     50 CA         13.3220  -43.0575   -6.7070 C.3       2 GLC5        0.0000 
     51 CA         13.9060  -42.6770   -8.1570 C.3       4 GLP5        0.0000 
     52 CA         11.9790  -45.0115   -5.8210 C.3       2 GLC5        0.0000 
     53 CA         11.2200  -46.5850   -6.3850 C.3       4 GLP5        0.0000 
     54 CA         13.9165  -31.7660   -4.0785 C.3       2 GLC5        0.0000 
     55 CA         14.1880  -33.5040   -3.0990 C.3       6 GLL5        0.0000 
     56 CA         15.7730  -32.1925   -3.1505 C.3       2 GLC5        0.0000 
     57 CA         17.3580  -30.8810   -3.2020 C.3       4 GLP5        0.0000 
     58 CA         18.5885  -36.9970   -5.3685 C.3       2 GLC5        0.0000 
     59 CA         16.9670  -35.7810   -4.4420 C.3       6 GLL5        0.0000 
     60 CA         20.2100  -38.2130   -6.2950 C.3       4 GLP5        0.0000 
     61 CA         19.1035  -37.4180   -4.1355 C.3       2 GLC5        0.0000 
     62 CA         17.7590  -35.9740   -3.3330 C.3       6 GLL5        0.0000 
     63 CA         20.4480  -38.8620   -4.9380 C.3       4 GLP5        0.0000 
     64 CA         17.6625  -36.8600   -0.6725 C.3       2 GLC5        0.0000 
     65 CA         17.4100  -35.3630   -2.1570 C.3       6 GLL5        0.0000 
     66 CA         17.9150  -38.3570    0.8120 C.3       4 GLP5        0.0000 
     67 CA         12.2830  -30.8210   -4.0375 C.3       2 GLC5        0.0000 
     68 CA          9.4300  -31.5630   -1.4150 C.3       2 GLC5        0.0000 
     69 CA          7.9390  -31.5120    0.1870 C.3       4 GLP5        0.0000 
     70 CA         14.8545  -37.4977   -0.2738 C.3       2 GLC5        0.0000 
     71 CA         13.9010  -36.9920   -2.1600 C.3       6 GLL5        0.0000 
     72 CA         14.3072  -40.2482   -1.3000 C.3       2 GLC5        0.0000 
     73 CA         14.5530  -38.2030   -2.1410 C.3       6 GLL5        0.0000 
     74 CA         14.0930  -41.8720    0.0830 C.3       4 GLP5        0.0000 
     75 CA         11.9455  -39.3813   -4.6795 C.3       2 GLC5        0.0000 
     76 CA         13.7640  -38.6520   -4.3260 C.3       6 GLL5        0.0000 
     77 CA         12.6419  -38.7986   -2.1867 C.3       2 GLC5        0.0000 
     78 CA         11.1410  -38.9590   -0.8690 C.3       4 GLP5        0.0000 
     79 CA         12.1212  -37.1990   -2.1089 C.3       2 GLC5        0.0000 
     80 CA         11.0030  -37.4410   -0.6710 C.3       4 GLP5        0.0000 
     81 CA         14.9430  -41.1490   -1.4697 C.3       2 GLC5        0.0000 
     82 CA         15.1450  -40.3350   -3.2390 C.3       6 GLL5        0.0000 
     83 CA         15.3872  -42.0917   -1.4892 C.3       2 GLC5        0.0000 
     84 CA         17.0300  -41.7630   -2.8310 C.3       6 GLL5        0.0000 
     85 CA         18.4603  -42.7112   -2.2877 C.3       2 GLC5        0.0000 
     86 CA         20.2390  -43.1110   -1.5140 C.3       4 GLP5        0.0000 
     87 CA         14.4180  -41.9573   -1.8213 C.3       2 GLC5        0.0000 
     88 CA         15.0420  -42.6620   -3.7380 C.3       6 GLL5        0.0000 
     89 CA         19.4548  -35.0408   -2.4235 C.3       2 GLC5        0.0000 
     90 CA         21.3250  -34.4130   -2.1020 C.3       4 GLP5        0.0000 
     91 CA         18.0933  -33.9554   -4.6204 C.3       2 GLC5        0.0000 
     92 CA         19.1050  -32.2320   -5.3710 C.3       4 GLP5        0.0000 
     93 CA         17.3256  -34.2436   -0.0086 C.3       2 GLC5        0.0000 
     94 CA         17.9060  -33.6970    1.7400 C.3       4 GLP5        0.0000 
@<TRIPOS>BOND
@<TRIPOS>SUBSTRUCTURE
     1 SEC2       29 GROUP        1 X    SEC  0     ROOT SEC X 2
     2 GLC5        1 GROUP        1 X    GLC  0     **** GLC X 6
     3 SEP2       31 GROUP        1 Y    SEP  0     ROOT SEP Y 9
     4 GLP5        3 GROUP        1 Y    GLP  0     **** GLP Y 13
     5 SEL2       30 GROUP        1 Z    SEL  0     ROOT SEL Z 16
     6 GLL5        2 GROUP        1 Z    GLL  0     **** GLL Z 20
@<TRIPOS>SET

