#    Name: 3l0e_G58_1_ligand
#    Modification time : Mon Mar 24 20:44:14 2014

@<TRIPOS>MOLECULE
3l0e_G58_1_ligand
   59    62     1     0     0
SMALL
NO_CHARGES


@<TRIPOS>ATOM
      1 C1          9.9750  -29.3050   -4.6910 C.3       1 G581        0.0000 
      2 F1         15.1080  -34.8390   -5.4830 F         1 G581        0.0000 
      3 N1         10.2330  -30.6340   -4.1750 N.pl3     1 G581        0.0000 
      4 O1         12.1660  -32.3750   -0.7680 O.2       1 G581        0.0000 
      5 S1         11.6480  -33.3010   -1.7660 S.o2      1 G581        0.0000 
      6 CL1        15.8840  -33.8540   -0.6030 Cl        1 G581        0.0000 
      7 C2          9.8280  -31.8050   -4.7520 C.2       1 G581        0.0000 
      8 N2         10.2220  -32.8430   -4.0520 N.2       1 G581        0.0000 
      9 O2         10.5200  -34.1590   -1.4570 O.2       1 G581        0.0000 
     10 S2         14.1060  -44.0490   -4.3380 S.o2      1 G581        0.0000 
     11 C3         10.9110  -32.3020   -2.9920 C.2       1 G581        0.0000 
     12 N3         12.9630  -34.2070   -2.4950 N.pl3     1 G581        0.0000 
     13 O3         15.0270  -44.8380   -5.1370 O.2       1 G581        0.0000 
     14 C4         10.9310  -30.9260   -3.0420 C.2       1 G581        0.0000 
     15 O4         13.4850  -44.5810   -3.1360 O.2       1 G581        0.0000 
     16 C5         12.4590  -35.3040   -3.3680 C.3       1 G581        0.0000 
     17 C6         13.1820  -36.6040   -3.2700 C.ar      1 G581        0.0000 
     18 C7         13.9010  -36.9920   -2.1600 C.ar      1 G581        0.0000 
     19 C8         14.5530  -38.2030   -2.1410 C.ar      1 G581        0.0000 
     20 C9         14.4900  -39.0460   -3.2250 C.ar      1 G581        0.0000 
     21 C10        13.7640  -38.6520   -4.3260 C.ar      1 G581        0.0000 
     22 C11        13.1180  -37.4410   -4.3540 C.ar      1 G581        0.0000 
     23 C12        15.1450  -40.3350   -3.2390 C.ar      1 G581        0.0000 
     24 C13        16.4410  -40.5170   -2.8060 C.ar      1 G581        0.0000 
     25 C14        17.0300  -41.7630   -2.8310 C.ar      1 G581        0.0000 
     26 C15        16.3330  -42.8600   -3.2920 C.ar      1 G581        0.0000 
     27 C16        15.0420  -42.6620   -3.7380 C.ar      1 G581        0.0000 
     28 C17        14.4440  -41.4230   -3.7130 C.ar      1 G581        0.0000 
     29 C18        12.7380  -43.4380   -5.2570 C.3       1 G581        0.0000 
     30 C19        14.1880  -33.5040   -3.0990 C.3       1 G581        0.0000 
     31 C20        15.4540  -34.3610   -3.2000 C.ar      1 G581        0.0000 
     32 C21        15.8410  -34.9860   -4.3710 C.ar      1 G581        0.0000 
     33 C22        16.9670  -35.7810   -4.4420 C.ar      1 G581        0.0000 
     34 C23        17.7590  -35.9740   -3.3330 C.ar      1 G581        0.0000 
     35 C24        17.4100  -35.3630   -2.1570 C.ar      1 G581        0.0000 
     36 C25        16.2770  -34.5810   -2.1120 C.ar      1 G581        0.0000 
     37 H           9.3057  -31.8347   -5.5905 H         1 G581        0.0000 
     38 H          11.3292  -30.3427   -2.4403 H         1 G581        0.0000 
     39 H          12.4782  -34.9582   -4.4330 H         1 G581        0.0000 
     40 H          11.3746  -35.4750   -3.1465 H         1 G581        0.0000 
     41 H          13.9499  -36.3669   -1.3356 H         1 G581        0.0000 
     42 H          15.0958  -38.4817   -1.3028 H         1 G581        0.0000 
     43 H          13.7047  -39.2846   -5.1512 H         1 G581        0.0000 
     44 H          12.5828  -37.1606   -5.1939 H         1 G581        0.0000 
     45 H          16.9825  -39.7020   -2.4552 H         1 G581        0.0000 
     46 H          18.0057  -41.8767   -2.5003 H         1 G581        0.0000 
     47 H          16.7559  -43.7847   -3.3032 H         1 G581        0.0000 
     48 H          13.4756  -41.3079   -4.0472 H         1 G581        0.0000 
     49 H          14.4138  -32.6046   -2.4936 H         1 G581        0.0000 
     50 H          13.9232  -33.1388   -4.1104 H         1 G581        0.0000 
     51 H          17.2169  -36.2359   -5.3391 H         1 G581        0.0000 
     52 H          18.5955  -36.5655   -3.3886 H         1 G581        0.0000 
     53 H          17.9872  -35.4854   -1.3133 H         1 G581        0.0000 
     54 H          10.3628  -28.5961   -4.1019 H         1 G581        0.0000 
     55 H          10.3685  -29.1772   -5.6014 H         1 G581        0.0000 
     56 H           8.9952  -29.1197   -4.7665 H         1 G581        0.0000 
     57 H          13.0300  -42.8477   -6.0095 H         1 G581        0.0000 
     58 H          12.1992  -44.1789   -5.6578 H         1 G581        0.0000 
     59 H          12.1177  -42.9000   -4.6862 H         1 G581        0.0000 
@<TRIPOS>BOND
     1    3    1 1    
     2   54    1 1    
     3   55    1 1    
     4   56    1 1    
     5   32    2 1    
     6    7    3 1    
     7   14    3 1    
     8    5    4 2    
     9    9    5 2    
    10   11    5 1    
    11   12    5 1    
    12   36    6 1    
    13    8    7 2    
    14   37    7 1    
    15   11    8 1    
    16   13   10 2    
    17   15   10 2    
    18   27   10 1    
    19   29   10 1    
    20   14   11 2    
    21   16   12 1    
    22   30   12 1    
    23   38   14 1    
    24   17   16 1    
    25   39   16 1    
    26   40   16 1    
    27   18   17 ar   
    28   22   17 ar   
    29   19   18 ar   
    30   41   18 1    
    31   20   19 ar   
    32   42   19 1    
    33   21   20 ar   
    34   23   20 1    
    35   22   21 ar   
    36   43   21 1    
    37   44   22 1    
    38   24   23 ar   
    39   28   23 ar   
    40   25   24 ar   
    41   45   24 1    
    42   26   25 ar   
    43   46   25 1    
    44   27   26 ar   
    45   47   26 1    
    46   28   27 ar   
    47   48   28 1    
    48   57   29 1    
    49   58   29 1    
    50   59   29 1    
    51   31   30 1    
    52   49   30 1    
    53   50   30 1    
    54   32   31 ar   
    55   36   31 ar   
    56   33   32 ar   
    57   34   33 ar   
    58   51   33 1    
    59   35   34 ar   
    60   52   34 1    
    61   36   35 ar   
    62   53   35 1    
@<TRIPOS>SUBSTRUCTURE
     1 G581        1 GROUP   
@<TRIPOS>SET

