#    Name: 4byj_FH5_1_INTS_M
#    Modification time : Tue Mar 25 08:31:22 2014

@<TRIPOS>MOLECULE
4byj_FH5_1_INTS_M
   56     0     9     0     0
SMALL
NO_CHARGES


@<TRIPOS>ATOM
      1 CA          3.6955  -26.7360  -10.0170 C.3       3 GLC5        0.0000 
      2 CA          3.4990  -28.1820   -8.7240 C.3       9 GLL5        0.0000 
      3 CA          3.8920  -25.2900  -11.3100 C.3       6 GLP5        0.0000 
      4 CA          0.4405  -31.0280  -10.4500 C.3       3 GLC5        0.0000 
      5 CA          1.7230  -30.1970   -9.0230 C.3       9 GLL5        0.0000 
      6 CA         -0.8420  -31.8590  -11.8770 C.3       6 GLP5        0.0000 
      7 CA          1.6480  -33.2305   -8.6085 C.3       3 GLC5        0.0000 
      8 CA          0.9270  -31.6120   -7.2800 C.3       9 GLL5        0.0000 
      9 CA          2.3690  -34.8490   -9.9370 C.3       6 GLP5        0.0000 
     10 O           0.1950  -33.8055   -7.3380 O.2       1 ALC1        0.0000 
     11 O           0.2300  -32.6170   -6.6110 O.2       7 ALL1        0.0000 
     12 O           0.1600  -34.9940   -8.0650 O.2       4 ALP1        0.0000 
     13 CA         -1.2855  -32.0130   -4.3350 C.3       3 GLC5        0.0000 
     14 CA          0.1060  -33.4360   -4.1820 C.3       9 GLL5        0.0000 
     15 CA         -2.6770  -30.5900   -4.4880 C.3       6 GLP5        0.0000 
     16 CA         -2.3430  -34.0150   -6.8015 C.3       3 GLC5        0.0000 
     17 CA         -1.6850  -34.9190   -5.3920 C.3       9 GLL5        0.0000 
     18 CA         -3.0010  -33.1110   -8.2110 C.3       6 GLP5        0.0000 
     19 CA         -1.7620  -35.9420   -7.0230 C.3       3 GLC5        0.0000 
     20 CA         -1.8390  -36.9650   -8.6540 C.3       6 GLP5        0.0000 
     21 CA          0.1975  -35.6190   -4.9335 C.3       3 GLC5        0.0000 
     22 CA          2.0800  -36.3190   -4.4750 C.3       6 GLP5        0.0000 
     23 CA          2.0110  -26.4320   -5.4615 C.3       3 GLC5        0.0000 
     24 CA          3.1380  -27.8210   -5.4260 C.3       9 GLL5        0.0000 
     25 CA          0.8840  -25.0430   -5.4970 C.3       6 GLP5        0.0000 
     26 CA          3.3700  -25.8890   -5.4140 C.3       3 GLC5        0.0000 
     27 CA          4.5310  -27.4110   -5.0490 C.3       9 GLL5        0.0000 
     28 CA          2.2090  -24.3670   -5.7790 C.3       6 GLP5        0.0000 
     29 CA          5.9075  -23.7595   -2.2035 C.3       3 GLC5        0.0000 
     30 CA          5.6230  -23.8940   -3.9060 C.3       9 GLL5        0.0000 
     31 CA          6.1920  -23.6250   -0.5010 C.3       6 GLP5        0.0000 
     32 CA          3.9160  -24.1305   -4.8425 C.3       3 GLC5        0.0000 
     33 CA          5.8115  -23.2495   -5.5545 C.3       3 GLC5        0.0000 
     34 CA          6.0000  -22.6050   -7.2030 C.3       6 GLP5        0.0000 
     35 N           6.7170  -24.4860   -6.5080 N.am      2 SEC2        0.0000 
     36 N           6.3210  -25.4030   -5.5860 N.am      8 SEL2        0.0000 
     37 N           7.1130  -23.5690   -7.4300 N.am      5 SEP2        0.0000 
     38 CA          4.9510  -31.5640   -3.9050 C.3       3 GLC5        0.0000 
     39 CA          4.5110  -29.7050   -5.0350 C.3       9 GLL5        0.0000 
     40 CA          5.3910  -33.4230   -2.7750 C.3       6 GLP5        0.0000 
     41 CA          5.4455  -31.0925   -5.9485 C.3       3 GLC5        0.0000 
     42 CA          6.3800  -32.4800   -6.8620 C.3       6 GLP5        0.0000 
     43 CA          1.7073  -27.3185   -7.5740 C.3       3 GLC5        0.0000 
     44 CA          2.5280  -29.4920   -8.1160 C.3       9 GLL5        0.0000 
     45 CA          0.4010  -25.8000   -6.7280 C.3       6 GLP5        0.0000 
     46 CA          0.9446  -28.7045   -9.4083 C.3       3 GLC5        0.0000 
     47 CA         -0.4790  -27.8920  -10.0950 C.3       6 GLP5        0.0000 
     48 CA          3.5696  -29.7325  -10.1698 C.3       3 GLC5        0.0000 
     49 CA          4.7710  -29.9480  -11.6180 C.3       6 GLP5        0.0000 
     50 CA          3.3596  -30.9060   -8.4902 C.3       3 GLC5        0.0000 
     51 CA          4.3510  -32.2950   -8.2590 C.3       6 GLP5        0.0000 
     52 CA         -0.3023  -30.2305   -6.6095 C.3       3 GLC5        0.0000 
     53 CA          1.6940  -30.9600   -6.3480 C.3       9 GLL5        0.0000 
     54 CA         -1.9150  -29.1750   -6.4050 C.3       6 GLP5        0.0000 
     55 CA          1.2130  -34.8593   -4.0060 C.3       3 GLC5        0.0000 
     56 CA          3.1341  -31.4352   -7.5183 C.3       3 GLC5        0.0000 
@<TRIPOS>BOND
@<TRIPOS>SUBSTRUCTURE
     1 ALC1       10 GROUP        1 X    ALC  0     ROOT ALC X 1
     2 SEC2       35 GROUP        1 X    SEC  0     **** SEC X 2
     3 GLC5        1 GROUP        1 X    GLC  0     **** GLC X 6
     4 ALP1       12 GROUP        1 Y    ALP  0     ROOT ALP Y 8
     5 SEP2       37 GROUP        1 Y    SEP  0     **** SEP Y 9
     6 GLP5        3 GROUP        1 Y    GLP  0     **** GLP Y 13
     7 ALL1       11 GROUP        1 Z    ALL  0     ROOT ALL Z 15
     8 SEL2       36 GROUP        1 Z    SEL  0     **** SEL Z 16
     9 GLL5        2 GROUP        1 Z    GLL  0     **** GLL Z 20
@<TRIPOS>SET

