#    Name: 4byj_FH5_1_ligand
#    Modification time : Tue Mar 25 08:31:22 2014

@<TRIPOS>MOLECULE
4byj_FH5_1_ligand
   47    50     1     0     0
SMALL
NO_CHARGES


@<TRIPOS>ATOM
      1 CL          3.4990  -28.1820   -8.7240 Cl        1 FH51        0.0000 
      2 C02         2.5280  -29.4920   -8.1160 C.ar      1 FH51        0.0000 
      3 C03         1.7230  -30.1970   -9.0230 C.ar      1 FH51        0.0000 
      4 N04         0.9500  -31.2210   -8.6070 N.pl3     1 FH51        0.0000 
      5 C05         0.9270  -31.6120   -7.2800 C.ar      1 FH51        0.0000 
      6 N06         0.2300  -32.6170   -6.6110 N.pl3     1 FH51        0.0000 
      7 C07         0.5720  -32.5760   -5.2890 C.2       1 FH51        0.0000 
      8 C08         0.1060  -33.4360   -4.1820 C.2       1 FH51        0.0000 
      9 C09         0.5860  -33.3630   -2.8920 C.2       1 FH51        0.0000 
     10 N10        -0.0480  -34.2740   -2.1770 N.pl3     1 FH51        0.0000 
     11 C11         0.1610  -34.5120   -0.8100 C.3       1 FH51        0.0000 
     12 N12        -0.9470  -34.9590   -2.9600 N.2       1 FH51        0.0000 
     13 C13        -0.8650  -34.4540   -4.2070 C.2       1 FH51        0.0000 
     14 C14        -1.6850  -34.9190   -5.3920 C.3       1 FH51        0.0000 
     15 N15         1.4670  -31.5690   -5.1250 N.2       1 FH51        0.0000 
     16 C16         1.6940  -30.9600   -6.3480 C.ar      1 FH51        0.0000 
     17 C17         2.5240  -29.8650   -6.7410 C.ar      1 FH51        0.0000 
     18 N18         3.3200  -29.2400   -5.7170 N.3       1 FH51        0.0000 
     19 C19         3.1380  -27.8210   -5.4260 C.3       1 FH51        0.0000 
     20 C20         4.5310  -27.4110   -5.0490 C.3       1 FH51        0.0000 
     21 N21         4.5620  -26.1990   -4.2930 N.am      1 FH51        0.0000 
     22 C22         5.5470  -25.1920   -4.6580 C.2       1 FH51        0.0000 
     23 C23         5.6230  -23.8940   -3.9060 C.3       1 FH51        0.0000 
     24 O24         6.3210  -25.4030   -5.5860 O.2       1 FH51        0.0000 
     25 C25         5.0260  -28.5430   -4.2960 C.3       1 FH51        0.0000 
     26 C26         4.5110  -29.7050   -5.0350 C.3       1 FH51        0.0000 
     27 H           1.7391  -29.9090  -10.0207 H         1 FH51        0.0000 
     28 H           0.3507  -31.7394   -9.2893 H         1 FH51        0.0000 
     29 H          -0.3807  -33.2243   -7.0224 H         1 FH51        0.0000 
     30 H           1.2627  -32.7463   -2.5993 H         1 FH51        0.0000 
     31 H           2.4875  -27.6775   -4.5978 H         1 FH51        0.0000 
     32 H           2.8307  -27.2861   -6.2916 H         1 FH51        0.0000 
     33 H           5.1005  -27.3283   -5.9687 H         1 FH51        0.0000 
     34 H           3.9336  -26.0366   -3.5368 H         1 FH51        0.0000 
     35 H           4.6342  -28.5404   -3.2940 H         1 FH51        0.0000 
     36 H           6.1017  -28.5593   -4.2870 H         1 FH51        0.0000 
     37 H           5.2524  -30.0473   -5.7470 H         1 FH51        0.0000 
     38 H           4.2707  -30.5043   -4.3443 H         1 FH51        0.0000 
     39 H           1.1057  -34.7790   -0.6197 H         1 FH51        0.0000 
     40 H          -0.0311  -33.7005   -0.2581 H         1 FH51        0.0000 
     41 H          -0.4257  -35.2455   -0.4668 H         1 FH51        0.0000 
     42 H          -1.1065  -35.2590   -6.1335 H         1 FH51        0.0000 
     43 H          -2.3092  -35.6599   -5.1439 H         1 FH51        0.0000 
     44 H          -2.2427  -34.1803   -5.7705 H         1 FH51        0.0000 
     45 H           5.8169  -24.0378   -2.9356 H         1 FH51        0.0000 
     46 H           6.3428  -23.2991   -4.2637 H         1 FH51        0.0000 
     47 H           4.7656  -23.3822   -3.9609 H         1 FH51        0.0000 
@<TRIPOS>BOND
     1    2    1 1    
     2    3    2 ar   
     3   17    2 ar   
     4    4    3 ar   
     5   27    3 1    
     6    5    4 ar   
     7   28    4 1    
     8    6    5 1    
     9   16    5 ar   
    10    7    6 1    
    11   29    6 1    
    12    8    7 1    
    13   15    7 2    
    14    9    8 2    
    15   13    8 1    
    16   10    9 1    
    17   30    9 1    
    18   11   10 1    
    19   12   10 1    
    20   39   11 1    
    21   40   11 1    
    22   41   11 1    
    23   13   12 2    
    24   14   13 1    
    25   42   14 1    
    26   43   14 1    
    27   44   14 1    
    28   16   15 1    
    29   17   16 ar   
    30   18   17 1    
    31   19   18 1    
    32   26   18 1    
    33   20   19 1    
    34   31   19 1    
    35   32   19 1    
    36   21   20 1    
    37   25   20 1    
    38   33   20 1    
    39   22   21 am   
    40   34   21 1    
    41   23   22 1    
    42   24   22 2    
    43   45   23 1    
    44   46   23 1    
    45   47   23 1    
    46   26   25 1    
    47   35   25 1    
    48   36   25 1    
    49   37   26 1    
    50   38   26 1    
@<TRIPOS>SUBSTRUCTURE
     1 FH51        1 GROUP   
@<TRIPOS>SET

