#    Name: 1jlq_SBN_1_INTS_M
#    Modification time : Tue Mar 25 09:05:05 2014

@<TRIPOS>MOLECULE
1jlq_SBN_1_INTS_M
   50     0     6     0     0
SMALL
NO_CHARGES


@<TRIPOS>ATOM
      1 CA         -3.4895  -31.7010   23.6720 C.3       2 GLC5        0.0000 
      2 CA         -3.9010  -33.5840   22.5330 C.3       6 GLL5        0.0000 
      3 CA         -3.0780  -29.8180   24.8110 C.3       4 GLP5        0.0000 
      4 CA         -5.6960  -33.9680   21.6680 C.3       2 GLC5        0.0000 
      5 CA         -7.4910  -34.3520   20.8030 C.3       4 GLP5        0.0000 
      6 CA         -4.2475  -31.9560   24.6890 C.3       2 GLC5        0.0000 
      7 CA         -4.0550  -33.7710   23.9240 C.3       6 GLL5        0.0000 
      8 CA         -4.4400  -30.1410   25.4540 C.3       4 GLP5        0.0000 
      9 CA          1.8510  -37.9345   23.6965 C.3       2 GLC5        0.0000 
     10 CA          1.4720  -36.1590   24.4930 C.3       6 GLL5        0.0000 
     11 CA          2.2300  -39.7100   22.9000 C.3       4 GLP5        0.0000 
     12 O          -2.1155  -34.8415   19.2165 O.2       1 ALC1        0.0000 
     13 O          -2.7780  -34.1260   20.4120 O.2       5 ALL1        0.0000 
     14 O          -1.4530  -35.5570   18.0210 O.2       3 ALP1        0.0000 
     15 CA          2.9375  -33.9315   27.6600 C.3       2 GLC5        0.0000 
     16 CA          1.5710  -32.7000   27.1980 C.3       6 GLL5        0.0000 
     17 CA          4.3040  -35.1630   28.1220 C.3       4 GLP5        0.0000 
     18 CA          0.3105  -33.8430   28.4505 C.3       2 GLC5        0.0000 
     19 CA         -0.9500  -34.9860   29.7030 C.3       4 GLP5        0.0000 
     20 CA          2.2640  -31.0605   27.6660 C.3       2 GLC5        0.0000 
     21 CA          2.9570  -29.4210   28.1340 C.3       4 GLP5        0.0000 
     22 CA         -0.1970  -31.5480   26.4275 C.3       2 GLC5        0.0000 
     23 CA         -1.9650  -30.3960   25.6570 C.3       4 GLP5        0.0000 
     24 CA          3.4050  -34.5190   22.8995 C.3       2 GLC5        0.0000 
     25 CA          3.9780  -35.9500   23.9690 C.3       6 GLL5        0.0000 
     26 CA          2.8320  -33.0880   21.8300 C.3       4 GLP5        0.0000 
     27 CA          3.1040  -37.8300   23.4345 C.3       2 GLC5        0.0000 
     28 CA          5.4345  -35.4380   22.8585 C.3       2 GLC5        0.0000 
     29 CA          6.8910  -34.9260   21.7480 C.3       4 GLP5        0.0000 
     30 CA         -4.9890  -35.4703   23.4273 C.3       2 GLC5        0.0000 
     31 CA         -6.0000  -37.2630   23.6260 C.3       4 GLP5        0.0000 
     32 CA         -3.6963  -36.1695   25.0320 C.3       2 GLC5        0.0000 
     33 CA         -2.1770  -35.4350   23.9750 C.3       6 GLL5        0.0000 
     34 CA         -4.6990  -37.2830   25.7620 C.3       4 GLP5        0.0000 
     35 CA          0.7411  -33.3692   24.1750 C.3       2 GLC5        0.0000 
     36 CA          0.2830  -35.7500   25.1550 C.3       6 GLL5        0.0000 
     37 CA          0.5490  -32.1950   22.4260 C.3       4 GLP5        0.0000 
     38 CA          3.0965  -35.8110   26.5628 C.3       2 GLC5        0.0000 
     39 CA          1.5550  -33.9050   26.2480 C.3       6 GLL5        0.0000 
     40 CA          4.0480  -37.5040   27.2210 C.3       4 GLP5        0.0000 
     41 CA          0.5131  -35.7982   27.3355 C.3       2 GLC5        0.0000 
     42 CA          0.0930  -37.0530   28.7470 C.3       4 GLP5        0.0000 
     43 CA          2.4649  -34.3084   23.3182 C.3       2 GLC5        0.0000 
     44 CA         -0.6021  -33.7694   22.2052 C.3       2 GLC5        0.0000 
     45 CA         -1.0370  -35.9250   21.7910 C.3       6 GLL5        0.0000 
     46 CA         -2.4866  -36.7239   20.9988 C.3       2 GLC5        0.0000 
     47 CA         -2.0400  -35.2210   22.5310 C.3       6 GLL5        0.0000 
     48 CA         -3.2200  -38.1040   20.0130 C.3       4 GLP5        0.0000 
     49 CA          3.5415  -36.6926   25.7492 C.3       2 GLC5        0.0000 
     50 CA          2.7120  -35.4660   24.6790 C.3       6 GLL5        0.0000 
@<TRIPOS>BOND
@<TRIPOS>SUBSTRUCTURE
     1 ALC1       12 GROUP        1 X    ALC  0     ROOT ALC X 1
     2 GLC5        1 GROUP        1 X    GLC  0     **** GLC X 6
     3 ALP1       14 GROUP        1 Y    ALP  0     ROOT ALP Y 8
     4 GLP5        3 GROUP        1 Y    GLP  0     **** GLP Y 13
     5 ALL1       13 GROUP        1 Z    ALL  0     ROOT ALL Z 15
     6 GLL5        2 GROUP        1 Z    GLL  0     **** GLL Z 20
@<TRIPOS>SET

