#    Name: 1jlq_SBN_1_ligand
#    Modification time : Tue Mar 25 09:05:05 2014

@<TRIPOS>MOLECULE
1jlq_SBN_1_ligand
   34    35     1     0     0
SMALL
NO_CHARGES


@<TRIPOS>ATOM
      1 C1         -3.9010  -33.5840   22.5330 C.ar      1 SBN999      0.0000 
      2 C2         -2.8990  -34.3040   21.8250 C.ar      1 SBN999      0.0000 
      3 C3         -2.0400  -35.2210   22.5310 C.ar      1 SBN999      0.0000 
      4 C4         -2.1770  -35.4350   23.9750 C.ar      1 SBN999      0.0000 
      5 C5         -3.2100  -34.6770   24.6290 C.ar      1 SBN999      0.0000 
      6 C6         -4.0550  -33.7710   23.9240 C.ar      1 SBN999      0.0000 
      7 S          -1.2120  -36.5520   24.8930 S.o2      1 SBN999      0.0000 
      8 O1         -1.8200  -36.7460   26.2190 O.2       1 SBN999      0.0000 
      9 O2         -0.9970  -37.7880   24.1380 O.2       1 SBN999      0.0000 
     10 C7          0.2830  -35.7500   25.1550 C.ar      1 SBN999      0.0000 
     11 C8          0.3400  -34.6140   26.0450 C.ar      1 SBN999      0.0000 
     12 C9          1.5550  -33.9050   26.2480 C.ar      1 SBN999      0.0000 
     13 C10         2.7350  -34.3310   25.5610 C.ar      1 SBN999      0.0000 
     14 C11         2.7120  -35.4660   24.6790 C.ar      1 SBN999      0.0000 
     15 C12         1.4720  -36.1590   24.4930 C.ar      1 SBN999      0.0000 
     16 N2         -0.2340  -36.4910   21.2010 N.1       1 SBN999      0.0000 
     17 C13        -1.0370  -35.9250   21.7910 C.1       1 SBN999      0.0000 
     18 N1         -2.7780  -34.1260   20.4120 N.pl3     1 SBN999      0.0000 
     19 C14         1.5710  -32.7000   27.1980 C.3       1 SBN999      0.0000 
     20 C15         3.9780  -35.9500   23.9690 C.3       1 SBN999      0.0000 
     21 H          -4.5056  -32.9340   22.0317 H         1 SBN999      0.0000 
     22 H          -3.3397  -34.7973   25.6456 H         1 SBN999      0.0000 
     23 H          -4.7755  -33.2560   24.4343 H         1 SBN999      0.0000 
     24 H          -0.5100  -34.3239   26.5307 H         1 SBN999      0.0000 
     25 H           3.6106  -33.8221   25.6973 H         1 SBN999      0.0000 
     26 H           1.4469  -36.9717   23.8640 H         1 SBN999      0.0000 
     27 H          -3.0626  -33.2365   20.0546 H         1 SBN999      0.0000 
     28 H          -2.4189  -34.9059   19.8994 H         1 SBN999      0.0000 
     29 H           2.4790  -32.2852   27.2564 H         1 SBN999      0.0000 
     30 H           0.9401  -31.9837   26.8999 H         1 SBN999      0.0000 
     31 H           1.3055  -32.9563   28.1274 H         1 SBN999      0.0000 
     32 H           4.3684  -35.2412   23.3815 H         1 SBN999      0.0000 
     33 H           4.6896  -36.2165   24.6191 H         1 SBN999      0.0000 
     34 H           3.7980  -36.7447   23.3894 H         1 SBN999      0.0000 
@<TRIPOS>BOND
     1    2    1 ar   
     2    6    1 ar   
     3   21    1 1    
     4    3    2 ar   
     5   18    2 1    
     6    4    3 ar   
     7   17    3 1    
     8    5    4 ar   
     9    7    4 1    
    10    6    5 ar   
    11   22    5 1    
    12   23    6 1    
    13    8    7 2    
    14    9    7 2    
    15   10    7 1    
    16   11   10 ar   
    17   15   10 ar   
    18   12   11 ar   
    19   24   11 1    
    20   13   12 ar   
    21   19   12 1    
    22   14   13 ar   
    23   25   13 1    
    24   15   14 ar   
    25   20   14 1    
    26   26   15 1    
    27   17   16 3    
    28   27   18 1    
    29   28   18 1    
    30   29   19 1    
    31   30   19 1    
    32   31   19 1    
    33   32   20 1    
    34   33   20 1    
    35   34   20 1    
@<TRIPOS>SUBSTRUCTURE
     1 SBN999      1 GROUP   
@<TRIPOS>SET

