#    Name: 2vhw_NAI_3_INTS_M
#    Modification time : Tue Mar 25 01:45:39 2014

@<TRIPOS>MOLECULE
2vhw_NAI_3_INTS_M
  109     0     9     0     0
SMALL
NO_CHARGES


@<TRIPOS>ATOM
      1 N         -29.3975   27.2430   13.9650 N.am      2 SEC2        0.0000 
      2 N         -28.3550   26.2370   13.7110 N.am      8 SEL2        0.0000 
      3 N         -30.4400   28.2490   14.2190 N.am      5 SEP2        0.0000 
      4 CA        -28.3575   23.9020    9.7470 C.3       3 GLC5        0.0000 
      5 CA        -29.9030   24.0840   10.8360 C.3       9 GLL5        0.0000 
      6 CA        -26.8120   23.7200    8.6580 C.3       6 GLP5        0.0000 
      7 CA        -33.0375   23.9985   10.1170 C.3       3 GLC5        0.0000 
      8 CA        -31.2320   23.3790   10.9730 C.3       9 GLL5        0.0000 
      9 CA        -34.8430   24.6180    9.2610 C.3       6 GLP5        0.0000 
     10 N         -30.2995   22.9785    8.6725 N.am      2 SEC2        0.0000 
     11 N         -31.6120   22.7800    9.7260 N.am      8 SEL2        0.0000 
     12 N         -28.9870   23.1770    7.6190 N.am      5 SEP2        0.0000 
     13 N         -31.4935   22.5215   14.4030 N.am      2 SEC2        0.0000 
     14 N         -32.1240   22.5190   13.0540 N.am      8 SEL2        0.0000 
     15 N         -30.8630   22.5240   15.7520 N.am      5 SEP2        0.0000 
     16 O         -33.4890   22.4345   12.5805 O.2       1 ALC1        0.0000 
     17 O         -32.1240   22.5190   13.0540 O.2       7 ALL1        0.0000 
     18 O         -34.8540   22.3500   12.1070 O.2       4 ALP1        0.0000 
     19 O         -33.6550   20.1155   12.0550 O.2       1 ALC1        0.0000 
     20 O         -32.3160   20.0820   12.0790 O.2       7 ALL1        0.0000 
     21 O         -34.9940   20.1490   12.0310 O.2       4 ALP1        0.0000 
     22 O         -33.5850   21.2160   12.0930 O.2       1 ALC1        0.0000 
     23 CA        -33.5880   23.1045    9.6575 C.3       3 GLC5        0.0000 
     24 CA        -32.3330   21.5910   10.0540 C.3       9 GLL5        0.0000 
     25 CA        -31.6505   22.8840    8.3675 C.3       3 GLC5        0.0000 
     26 CA        -30.9680   24.1770    6.6810 C.3       6 GLP5        0.0000 
     27 CA        -35.5515   17.4105    7.7605 C.3       3 GLC5        0.0000 
     28 CA        -34.5950   18.8540    6.5260 C.3       9 GLL5        0.0000 
     29 CA        -36.5080   15.9670    8.9950 C.3       6 GLP5        0.0000 
     30 N         -37.3175   19.2895    6.5145 N.am      2 SEC2        0.0000 
     31 N         -35.7920   19.4620    6.7000 N.am      8 SEL2        0.0000 
     32 N         -38.8430   19.1170    6.3290 N.am      5 SEP2        0.0000 
     33 CA        -36.2915   21.7995    6.3045 C.3       3 GLC5        0.0000 
     34 CA        -35.9390   20.4420    7.6110 C.3       9 GLL5        0.0000 
     35 CA        -36.6440   23.1570    4.9980 C.3       6 GLP5        0.0000 
     36 CA        -36.7715   20.5725    9.1665 C.3       3 GLC5        0.0000 
     37 CA        -37.6040   20.7030   10.7220 C.3       6 GLP5        0.0000 
     38 CA        -37.5240   19.5145    7.6155 C.3       3 GLC5        0.0000 
     39 CA        -39.1090   18.5870    7.6200 C.3       6 GLP5        0.0000 
     40 CA        -34.4850   21.7605    6.6995 C.3       3 GLC5        0.0000 
     41 CA        -33.0310   23.0790    5.7880 C.3       6 GLP5        0.0000 
     42 CA        -34.2695   22.4940    8.7945 C.3       3 GLC5        0.0000 
     43 CA        -33.6960   20.3700    8.3280 C.3       9 GLL5        0.0000 
     44 N         -26.2330   29.6285   11.7325 N.am      2 SEC2        0.0000 
     45 N         -26.7310   28.4000   11.9850 N.am      8 SEL2        0.0000 
     46 N         -25.7350   30.8570   11.4800 N.am      5 SEP2        0.0000 
     47 N         -29.8430   29.2940   11.7780 N.am      2 SEC2        0.0000 
     48 N         -29.2380   28.2050   11.3330 N.am      8 SEL2        0.0000 
     49 N         -30.4480   30.3830   12.2230 N.am      5 SEP2        0.0000 
     50 CA        -29.1775   29.2245    9.1835 C.3       3 GLC5        0.0000 
     51 CA        -28.1840   27.4910    8.4790 C.3       9 GLL5        0.0000 
     52 CA        -30.1710   30.9580    9.8880 C.3       6 GLP5        0.0000 
     53 CA        -30.1485   27.6360    7.4285 C.3       3 GLC5        0.0000 
     54 CA        -32.1130   27.7810    6.3780 C.3       6 GLP5        0.0000 
     55 CA        -27.6360   27.9020    5.0480 C.3       3 GLC5        0.0000 
     56 CA        -27.4660   27.7680    7.1560 C.3       9 GLL5        0.0000 
     57 CA        -27.8060   28.0360    2.9400 C.3       6 GLP5        0.0000 
     58 CA        -25.2350   25.5650    7.5410 C.3       3 GLC5        0.0000 
     59 CA        -26.0420   27.2090    7.1730 C.3       9 GLL5        0.0000 
     60 CA        -24.4280   23.9210    7.9090 C.3       6 GLP5        0.0000 
     61 N         -24.9275   27.7030    4.9220 N.am      2 SEC2        0.0000 
     62 N         -25.7340   26.6170    5.9040 N.am      8 SEL2        0.0000 
     63 N         -24.1210   28.7890    3.9400 N.am      5 SEP2        0.0000 
     64 O         -24.9275   27.7030    4.9220 O.2       1 ALC1        0.0000 
     65 O         -25.7340   26.6170    5.9040 O.2       7 ALL1        0.0000 
     66 O         -24.1210   28.7890    3.9400 O.2       4 ALP1        0.0000 
     67 N         -24.0005   28.5140    5.3910 N.am      2 SEC2        0.0000 
     68 N         -23.8800   28.2390    6.8420 N.am      8 SEL2        0.0000 
     69 O         -23.2880   29.1195    5.9745 O.2       1 ALC1        0.0000 
     70 O         -23.8800   28.2390    6.8420 O.2       7 ALL1        0.0000 
     71 O         -22.6960   30.0000    5.1070 O.2       4 ALP1        0.0000 
     72 CA        -27.4455   30.6730    6.2280 C.3       3 GLC5        0.0000 
     73 CA        -25.9800   29.4790    6.6450 C.3       9 GLL5        0.0000 
     74 CA        -28.9110   31.8670    5.8110 C.3       6 GLP5        0.0000 
     75 CA        -26.8930   28.7575    4.7925 C.3       3 GLC5        0.0000 
     76 N         -24.6780   36.2700    4.0450 N.am      2 SEC2        0.0000 
     77 N         -24.7460   34.9080    4.5100 N.am      8 SEL2        0.0000 
     78 N         -24.6100   37.6320    3.5800 N.am      5 SEP2        0.0000 
     79 O         -26.5615   32.0605    3.4385 O.2       1 ALC1        0.0000 
     80 O         -25.8660   33.3360    3.4310 O.2       7 ALL1        0.0000 
     81 O         -27.2570   30.7850    3.4460 O.2       4 ALP1        0.0000 
     82 O         -26.0600   34.2135    2.0945 O.2       1 ALC1        0.0000 
     83 O         -26.2540   35.0910    0.7580 O.2       4 ALP1        0.0000 
     84 CA        -24.4755   35.6000    6.7540 C.3       3 GLC5        0.0000 
     85 CA        -24.7760   33.5380    7.0080 C.3       9 GLL5        0.0000 
     86 CA        -24.1750   37.6620    6.5000 C.3       6 GLP5        0.0000 
     87 CA        -23.6190   33.9905    9.5585 C.3       3 GLC5        0.0000 
     88 CA        -24.7720   32.7170    8.1520 C.3       9 GLL5        0.0000 
     89 CA        -22.4660   35.2640   10.9650 C.3       6 GLP5        0.0000 
     90 CA        -27.0420   31.6230    6.9350 C.3       3 GLC5        0.0000 
     91 CA        -25.1730   31.3790    8.0590 C.3       9 GLL5        0.0000 
     92 CA        -30.7677   23.9542    8.7927 C.3       3 GLC5        0.0000 
     93 CA        -31.3661   24.6514   12.6379 C.3       3 GLC5        0.0000 
     94 CA        -31.8590   26.3060   13.8180 C.3       6 GLP5        0.0000 
     95 CA        -34.0115   18.3152    9.0735 C.3       3 GLC5        0.0000 
     96 CA        -34.4540   16.8000   10.3040 C.3       6 GLP5        0.0000 
     97 CA        -33.3000   21.4548    6.8155 C.3       3 GLC5        0.0000 
     98 CA        -33.4420   19.2910    7.3580 C.3       9 GLL5        0.0000 
     99 CA        -34.0922   19.7308    5.1585 C.3       3 GLC5        0.0000 
    100 CA        -34.1660   20.3890    3.3750 C.3       6 GLP5        0.0000 
    101 CA        -27.3185   25.6747    8.2378 C.3       3 GLC5        0.0000 
    102 CA        -27.1455   32.0945    5.7940 C.3       3 GLC5        0.0000 
    103 CA        -25.5710   31.6510    5.7640 C.3       9 GLL5        0.0000 
    104 CA        -23.4147   31.2685    9.4127 C.3       3 GLC5        0.0000 
    105 CA        -21.8570   30.4890   10.7200 C.3       6 GLP5        0.0000 
    106 CA        -25.7797   32.5775    9.8268 C.3       3 GLC5        0.0000 
    107 CA        -26.5870   33.1070   11.5480 C.3       6 GLP5        0.0000 
    108 CA        -26.3406   34.1106    7.5187 C.3       3 GLC5        0.0000 
    109 CA        -27.8040   35.2300    7.7620 C.3       6 GLP5        0.0000 
@<TRIPOS>BOND
@<TRIPOS>SUBSTRUCTURE
     1 ALC1       16 GROUP        1 X    ALC  0     ROOT ALC X 1
     2 SEC2        1 GROUP        1 X    SEC  0     **** SEC X 2
     3 GLC5        4 GROUP        1 X    GLC  0     **** GLC X 6
     4 ALP1       18 GROUP        1 Y    ALP  0     ROOT ALP Y 8
     5 SEP2        3 GROUP        1 Y    SEP  0     **** SEP Y 9
     6 GLP5        6 GROUP        1 Y    GLP  0     **** GLP Y 13
     7 ALL1       17 GROUP        1 Z    ALL  0     ROOT ALL Z 15
     8 SEL2        2 GROUP        1 Z    SEL  0     **** SEL Z 16
     9 GLL5        5 GROUP        1 Z    GLL  0     **** GLL Z 20
@<TRIPOS>SET

