#    Name: 2vhw_NAI_3_ligand
#    Modification time : Tue Mar 25 01:45:39 2014

@<TRIPOS>MOLECULE
2vhw_NAI_3_ligand
   71    75     1     0     0
SMALL
NO_CHARGES


@<TRIPOS>ATOM
      1 PA        -28.2960   25.3260   12.4960 P.3       1 NAI1372     0.0000 
      2 O1A       -27.4700   24.0490   12.5730 O.co2     1 NAI1372     0.0000 
      3 O2A       -28.3550   26.2370   13.7110 O.co2     1 NAI1372     0.0000 
      4 O5B       -29.7290   24.8540   12.0100 O.3       1 NAI1372     0.0000 
      5 C5B       -29.9030   24.0840   10.8360 C.3       1 NAI1372     0.0000 
      6 C4B       -31.2320   23.3790   10.9730 C.3       1 NAI1372     0.0000 
      7 O4B       -31.6120   22.7800    9.7260 O.3       1 NAI1372     0.0000 
      8 C3B       -31.1790   22.2620   12.0110 C.3       1 NAI1372     0.0000 
      9 O3B       -32.1240   22.5190   13.0540 O.3       1 NAI1372     0.0000 
     10 C2B       -31.5700   21.0030   11.2570 C.3       1 NAI1372     0.0000 
     11 O2B       -32.3160   20.0820   12.0790 O.3       1 NAI1372     0.0000 
     12 C1B       -32.3330   21.5910   10.0540 C.3       1 NAI1372     0.0000 
     13 N9A       -32.5320   20.6090    8.9470 N.pl3     1 NAI1372     0.0000 
     14 C8A       -31.6020   19.7510    8.4450 C.2       1 NAI1372     0.0000 
     15 N7A       -32.1400   18.9590    7.4850 N.2       1 NAI1372     0.0000 
     16 C5A       -33.4420   19.2910    7.3580 C.ar      1 NAI1372     0.0000 
     17 C6A       -34.5950   18.8540    6.5260 C.ar      1 NAI1372     0.0000 
     18 N6A       -34.4640   17.8670    5.6050 N.pl3     1 NAI1372     0.0000 
     19 N1A       -35.7920   19.4620    6.7000 N.ar      1 NAI1372     0.0000 
     20 C2A       -35.9390   20.4420    7.6110 C.ar      1 NAI1372     0.0000 
     21 N3A       -34.9480   20.8790    8.4010 N.ar      1 NAI1372     0.0000 
     22 C4A       -33.6960   20.3700    8.3280 C.ar      1 NAI1372     0.0000 
     23 O3        -27.7680   26.1770   11.2340 O.3       1 NAI1372     0.0000 
     24 PN        -27.8050   27.7860   11.1260 P.3       1 NAI1372     0.0000 
     25 O1N       -26.7310   28.4000   11.9850 O.co2     1 NAI1372     0.0000 
     26 O2N       -29.2380   28.2050   11.3330 O.co2     1 NAI1372     0.0000 
     27 O5D       -27.4200   28.0340    9.5650 O.3       1 NAI1372     0.0000 
     28 C5D       -28.1840   27.4910    8.4790 C.3       1 NAI1372     0.0000 
     29 C4D       -27.4660   27.7680    7.1560 C.3       1 NAI1372     0.0000 
     30 O4D       -27.3470   29.1800    6.9360 O.3       1 NAI1372     0.0000 
     31 C3D       -26.0420   27.2090    7.1730 C.3       1 NAI1372     0.0000 
     32 O3D       -25.7340   26.6170    5.9040 O.3       1 NAI1372     0.0000 
     33 C2D       -25.1760   28.4210    7.3970 C.3       1 NAI1372     0.0000 
     34 O2D       -23.8800   28.2390    6.8420 O.3       1 NAI1372     0.0000 
     35 C1D       -25.9800   29.4790    6.6450 C.3       1 NAI1372     0.0000 
     36 N1N       -25.5600   30.8720    6.8640 N.pl3     1 NAI1372     0.0000 
     37 C2N       -25.5710   31.6510    5.7640 C.2       1 NAI1372     0.0000 
     38 C3N       -25.1890   32.9930    5.7900 C.2       1 NAI1372     0.0000 
     39 C7N       -25.2470   33.8060    4.5210 C.2       1 NAI1372     0.0000 
     40 O7N       -24.7460   34.9080    4.5100 O.2       1 NAI1372     0.0000 
     41 N7N       -25.8660   33.3360    3.4310 N.am      1 NAI1372     0.0000 
     42 C4N       -24.7760   33.5380    7.0080 C.3       1 NAI1372     0.0000 
     43 C5N       -24.7720   32.7170    8.1520 C.2       1 NAI1372     0.0000 
     44 C6N       -25.1730   31.3790    8.0590 C.2       1 NAI1372     0.0000 
     45 H         -29.1280   23.3302   10.7212 H         1 NAI1372     0.0000 
     46 H         -29.9357   24.7013    9.9417 H         1 NAI1372     0.0000 
     47 H         -31.9805   24.0909   11.2907 H         1 NAI1372     0.0000 
     48 H         -30.1872   22.1635   12.3555 H         1 NAI1372     0.0000 
     49 H         -30.6537   20.5792   10.8679 H         1 NAI1372     0.0000 
     50 H         -33.3248   21.8802   10.4653 H         1 NAI1372     0.0000 
     51 H         -30.6695   19.7132    8.7399 H         1 NAI1372     0.0000 
     52 H         -35.2786   17.6598    5.0632 H         1 NAI1372     0.0000 
     53 H         -33.5644   17.4338    5.5492 H         1 NAI1372     0.0000 
     54 H         -36.9023   20.8965    7.7084 H         1 NAI1372     0.0000 
     55 H         -29.1798   27.9416    8.4201 H         1 NAI1372     0.0000 
     56 H         -28.3065   26.4073    8.5729 H         1 NAI1372     0.0000 
     57 H         -28.0016   27.2966    6.3576 H         1 NAI1372     0.0000 
     58 H         -25.9451   26.5516    7.9846 H         1 NAI1372     0.0000 
     59 H         -25.1936   28.6619    8.4216 H         1 NAI1372     0.0000 
     60 H         -25.8149   29.2241    5.5526 H         1 NAI1372     0.0000 
     61 H         -25.8763   31.2503    4.8398 H         1 NAI1372     0.0000 
     62 H         -25.8725   33.9398    2.6339 H         1 NAI1372     0.0000 
     63 H         -26.2664   32.4232    3.5116 H         1 NAI1372     0.0000 
     64 H         -25.3983   34.4804    7.2312 H         1 NAI1372     0.0000 
     65 H         -23.7292   33.9997    6.8803 H         1 NAI1372     0.0000 
     66 H         -24.4741   33.1034    9.0534 H         1 NAI1372     0.0000 
     67 H         -25.1666   30.7967    8.9111 H         1 NAI1372     0.0000 
     68 H         -33.0201   22.4245   12.6203 H         1 NAI1372     0.0000 
     69 H         -33.2765   20.2975   11.9027 H         1 NAI1372     0.0000 
     70 H         -24.8939   27.0692    5.6046 H         1 NAI1372     0.0000 
     71 H         -23.5117   29.1627    6.7367 H         1 NAI1372     0.0000 
@<TRIPOS>BOND
     1    2    1 ar   
     2    3    1 ar   
     3    4    1 1    
     4   23    1 1    
     5    5    4 1    
     6    6    5 1    
     7   45    5 1    
     8   46    5 1    
     9    7    6 1    
    10    8    6 1    
    11   47    6 1    
    12   12    7 1    
    13    9    8 1    
    14   10    8 1    
    15   48    8 1    
    16   68    9 1    
    17   11   10 1    
    18   12   10 1    
    19   49   10 1    
    20   69   11 1    
    21   13   12 1    
    22   50   12 1    
    23   14   13 1    
    24   22   13 1    
    25   15   14 2    
    26   51   14 1    
    27   16   15 1    
    28   17   16 ar   
    29   22   16 ar   
    30   18   17 1    
    31   19   17 ar   
    32   52   18 1    
    33   53   18 1    
    34   20   19 ar   
    35   21   20 ar   
    36   54   20 1    
    37   22   21 ar   
    38   24   23 1    
    39   25   24 ar   
    40   26   24 ar   
    41   27   24 1    
    42   28   27 1    
    43   29   28 1    
    44   55   28 1    
    45   56   28 1    
    46   30   29 1    
    47   31   29 1    
    48   57   29 1    
    49   35   30 1    
    50   32   31 1    
    51   33   31 1    
    52   58   31 1    
    53   70   32 1    
    54   34   33 1    
    55   35   33 1    
    56   59   33 1    
    57   71   34 1    
    58   36   35 1    
    59   60   35 1    
    60   37   36 1    
    61   44   36 1    
    62   38   37 2    
    63   61   37 1    
    64   39   38 1    
    65   42   38 1    
    66   40   39 2    
    67   41   39 am   
    68   62   41 1    
    69   63   41 1    
    70   43   42 1    
    71   64   42 1    
    72   65   42 1    
    73   44   43 2    
    74   66   43 1    
    75   67   44 1    
@<TRIPOS>SUBSTRUCTURE
     1 NAI1372     1 GROUP   
@<TRIPOS>SET

