#    Name: 1klm_SPP_1_INTS_M
#    Modification time : Tue Mar 25 10:14:58 2014

@<TRIPOS>MOLECULE
1klm_SPP_1_INTS_M
   77     0     9     0     0
SMALL
NO_CHARGES


@<TRIPOS>ATOM
      1 CA         -3.1825  -36.1940   24.5255 C.3       3 GLC5        0.0000 
      2 CA         -1.4020  -35.2070   23.5790 C.3       9 GLL5        0.0000 
      3 CA         -4.9630  -37.1810   25.4720 C.3       6 GLP5        0.0000 
      4 CA          1.2595  -38.3940   22.8325 C.3       3 GLC5        0.0000 
      5 CA         -0.2670  -37.1880   23.7330 C.3       9 GLL5        0.0000 
      6 CA          2.7860  -39.6000   21.9320 C.3       6 GLP5        0.0000 
      7 CA         -1.6370  -38.9335   23.5575 C.3       3 GLC5        0.0000 
      8 CA         -3.0070  -40.6790   23.3820 C.3       6 GLP5        0.0000 
      9 CA         -4.1810  -35.9190   22.2975 C.3       3 GLC5        0.0000 
     10 CA         -2.5540  -34.6030   21.4860 C.3       9 GLL5        0.0000 
     11 CA         -5.8080  -37.2350   23.1090 C.3       6 GLP5        0.0000 
     12 CA         -3.6890  -34.2245   18.8180 C.3       3 GLC5        0.0000 
     13 CA         -3.3940  -33.4980   20.9040 C.3       9 GLL5        0.0000 
     14 CA         -3.9840  -34.9510   16.7320 C.3       6 GLP5        0.0000 
     15 CA         -3.5635  -31.8520   20.5255 C.3       3 GLC5        0.0000 
     16 CA         -3.7330  -30.2060   20.1470 C.3       6 GLP5        0.0000 
     17 CA         -4.8920  -31.8550   21.6260 C.3       3 GLC5        0.0000 
     18 CA         -4.6800  -33.4090   22.9670 C.3       9 GLL5        0.0000 
     19 CA         -5.1040  -30.3010   20.2850 C.3       6 GLP5        0.0000 
     20 CA         -8.7865  -31.8020   22.5440 C.3       3 GLC5        0.0000 
     21 CA         -7.6660  -33.6670   22.6090 C.3       9 GLL5        0.0000 
     22 CA         -9.9070  -29.9370   22.4790 C.3       6 GLP5        0.0000 
     23 CA         -9.9260  -32.0175   23.1390 C.3       3 GLC5        0.0000 
     24 CA         -9.9450  -34.0980   23.7990 C.3       9 GLL5        0.0000 
     25 CA          0.2780  -30.5780   26.4715 C.3       3 GLC5        0.0000 
     26 CA         -0.1500  -32.5680   26.0560 C.3       9 GLL5        0.0000 
     27 CA          0.7060  -28.5880   26.8870 C.3       6 GLP5        0.0000 
     28 CA         -1.7125  -31.4115   25.0900 C.3       3 GLC5        0.0000 
     29 CA         -3.2750  -30.2550   24.1240 C.3       6 GLP5        0.0000 
     30 CA          2.2125  -33.7515   26.9890 C.3       3 GLC5        0.0000 
     31 CA          1.3120  -32.5680   25.6730 C.3       9 GLL5        0.0000 
     32 CA          3.1130  -34.9350   28.3050 C.3       6 GLP5        0.0000 
     33 CA          2.1615  -30.9620   26.3065 C.3       3 GLC5        0.0000 
     34 CA          3.0110  -29.3560   26.9400 C.3       6 GLP5        0.0000 
     35 CA          1.3895  -34.0080   27.8785 C.3       3 GLC5        0.0000 
     36 CA         -0.3340  -33.0810   27.4520 C.3       9 GLL5        0.0000 
     37 CA         -1.0860  -34.0805   28.5370 C.3       3 GLC5        0.0000 
     38 CA         -1.8380  -35.0800   29.6220 C.3       6 GLP5        0.0000 
     39 CA          0.1120  -31.0510   27.8320 C.3       3 GLC5        0.0000 
     40 CA          0.5580  -29.0210   28.2120 C.3       6 GLP5        0.0000 
     41 CA        -11.8455  -33.2765   28.5940 C.3       3 GLC5        0.0000 
     42 CA        -11.0570  -34.2950   27.1110 C.3       9 GLL5        0.0000 
     43 CA        -12.6340  -32.2580   30.0770 C.3       6 GLP5        0.0000 
     44 CA        -10.6995  -32.2335   27.4485 C.3       3 GLC5        0.0000 
     45 CA        -10.3420  -30.1720   27.7860 C.3       6 GLP5        0.0000 
     46 CA         -9.3945  -34.8700   27.6625 C.3       3 GLC5        0.0000 
     47 CA         -7.7320  -35.4450   28.2140 C.3       6 GLP5        0.0000 
     48 O          -7.4205  -36.4955   20.2995 O.2       1 ALC1        0.0000 
     49 O          -7.8870  -35.3440   21.1490 O.2       7 ALL1        0.0000 
     50 O          -6.9540  -37.6470   19.4500 O.2       4 ALP1        0.0000 
     51 N          -5.0930  -35.6650   18.9205 N.am      2 SEC2        0.0000 
     52 N          -5.6410  -34.5230   19.6460 N.am      8 SEL2        0.0000 
     53 N          -4.5450  -36.8070   18.1950 N.am      5 SEP2        0.0000 
     54 CA          0.4696  -34.1615   23.3940 C.3       3 GLC5        0.0000 
     55 CA          0.2490  -35.4580   25.2840 C.3       9 GLL5        0.0000 
     56 CA          1.3410  -33.1290   22.0820 C.3       6 GLP5        0.0000 
     57 CA          1.8807  -36.5980   26.0460 C.3       3 GLC5        0.0000 
     58 CA          3.3950  -37.0950   27.0350 C.3       6 GLP5        0.0000 
     59 CA         -0.1427  -36.3304   26.6446 C.3       3 GLC5        0.0000 
     60 CA          0.4840  -36.7440   24.8300 C.3       9 GLL5        0.0000 
     61 CA         -0.4140  -36.7610   28.3840 C.3       6 GLP5        0.0000 
     62 CA         -1.3755  -32.9428   20.7410 C.3       3 GLC5        0.0000 
     63 CA          0.2230  -31.8350   20.2870 C.3       6 GLP5        0.0000 
     64 CA         -5.0057  -35.5710   23.1925 C.3       3 GLC5        0.0000 
     65 CA         -3.7270  -34.4050   23.5850 C.3       9 GLL5        0.0000 
     66 CA         -3.7393  -32.0810   23.7000 C.3       3 GLC5        0.0000 
     67 CA        -11.1342  -33.2710   22.6448 C.3       3 GLC5        0.0000 
     68 CA        -11.7750  -32.0150   21.5130 C.3       6 GLP5        0.0000 
     69 CA        -10.9893  -34.8982   21.1482 C.3       3 GLC5        0.0000 
     70 CA        -11.1400  -35.9850   22.8280 C.3       9 GLL5        0.0000 
     71 CA        -11.3420  -33.6930   19.9330 C.3       6 GLP5        0.0000 
     72 CA          0.1905  -31.9160   24.2662 C.3       3 GLC5        0.0000 
     73 CA         -0.2000  -31.2640   22.6680 C.3       6 GLP5        0.0000 
     74 CA         -6.9857  -35.8271   22.6746 C.3       3 GLC5        0.0000 
     75 CA         -9.1297  -33.6126   21.0926 C.3       3 GLC5        0.0000 
     76 CA         -7.0640  -34.3230   21.5580 C.3       9 GLL5        0.0000 
     77 CA        -10.0960  -32.8060   19.9450 C.3       6 GLP5        0.0000 
@<TRIPOS>BOND
@<TRIPOS>SUBSTRUCTURE
     1 ALC1       48 GROUP        1 X    ALC  0     ROOT ALC X 1
     2 SEC2       51 GROUP        1 X    SEC  0     **** SEC X 2
     3 GLC5        1 GROUP        1 X    GLC  0     **** GLC X 6
     4 ALP1       50 GROUP        1 Y    ALP  0     ROOT ALP Y 8
     5 SEP2       53 GROUP        1 Y    SEP  0     **** SEP Y 9
     6 GLP5        3 GROUP        1 Y    GLP  0     **** GLP Y 13
     7 ALL1       49 GROUP        1 Z    ALL  0     ROOT ALL Z 15
     8 SEL2       52 GROUP        1 Z    SEL  0     **** SEL Z 16
     9 GLL5        2 GROUP        1 Z    GLL  0     **** GLL Z 20
@<TRIPOS>SET

