#    Name: 1klm_SPP_1_ligand
#    Modification time : Tue Mar 25 10:14:58 2014

@<TRIPOS>MOLECULE
1klm_SPP_1_ligand
   60    63     1     0     0
SMALL
NO_CHARGES


@<TRIPOS>ATOM
      1 C2         -1.4020  -35.2070   23.5790 C.ar      1 SPP999      0.0000 
      2 C3         -0.7030  -34.6530   24.6770 C.ar      1 SPP999      0.0000 
      3 C4          0.2490  -35.4580   25.2840 C.ar      1 SPP999      0.0000 
      4 C5          0.4840  -36.7440   24.8300 C.ar      1 SPP999      0.0000 
      5 C6         -0.2670  -37.1880   23.7330 C.ar      1 SPP999      0.0000 
      6 C8         -2.5540  -34.6030   21.4860 C.3       1 SPP999      0.0000 
      7 C9         -3.3940  -33.4980   20.9040 C.3       1 SPP999      0.0000 
      8 C11        -4.6800  -33.4090   22.9670 C.3       1 SPP999      0.0000 
      9 C12        -3.7270  -34.4050   23.5850 C.3       1 SPP999      0.0000 
     10 C          -5.7380  -34.1570   20.8450 C.2       1 SPP999      0.0000 
     11 C14        -7.0640  -34.3230   21.5580 C.2       1 SPP999      0.0000 
     12 C15        -7.6660  -33.6670   22.6090 C.2       1 SPP999      0.0000 
     13 C16        -9.9450  -34.0980   23.7990 C.ar      1 SPP999      0.0000 
     14 C17       -11.0420  -34.9560   23.7540 C.ar      1 SPP999      0.0000 
     15 C18       -11.1400  -35.9850   22.8280 C.ar      1 SPP999      0.0000 
     16 C19       -10.1330  -36.2220   21.8990 C.ar      1 SPP999      0.0000 
     17 C20        -9.0120  -35.3670   21.9290 C.ar      1 SPP999      0.0000 
     18 C21        -8.9120  -34.3200   22.8650 C.ar      1 SPP999      0.0000 
     19 CA         -0.1500  -32.5680   26.0560 C.3       1 SPP999      0.0000 
     20 CB          1.3120  -32.5680   25.6730 C.3       1 SPP999      0.0000 
     21 CC         -0.3340  -33.0810   27.4520 C.3       1 SPP999      0.0000 
     22 CE        -11.0570  -34.2950   27.1110 C.3       1 SPP999      0.0000 
     23 N          -0.9720  -33.3400   25.0970 N.pl3     1 SPP999      0.0000 
     24 N1         -1.2000  -36.4390   23.1180 N.ar      1 SPP999      0.0000 
     25 N7         -2.3860  -34.4100   22.9470 N.3       1 SPP999      0.0000 
     26 N10        -4.7230  -33.6310   21.5140 N.am      1 SPP999      0.0000 
     27 N13        -7.8870  -35.3440   21.1490 N.pl3     1 SPP999      0.0000 
     28 ND        -12.0940  -34.7800   24.6560 N.pl3     1 SPP999      0.0000 
     29 O          -5.6410  -34.5230   19.6460 O.2       1 SPP999      0.0000 
     30 OS1       -13.5120  -33.7540   26.4110 O.2       1 SPP999      0.0000 
     31 OS2       -11.7450  -32.4330   25.4180 O.2       1 SPP999      0.0000 
     32 S         -12.1850  -33.7140   25.8770 S.o2      1 SPP999      0.0000 
     33 H           0.7904  -35.0911   26.0872 H         1 SPP999      0.0000 
     34 H           1.1676  -37.3453   25.2660 H         1 SPP999      0.0000 
     35 H          -0.0721  -38.1699   23.3868 H         1 SPP999      0.0000 
     36 H          -1.5764  -34.6076   20.9940 H         1 SPP999      0.0000 
     37 H          -3.0387  -35.5642   21.2885 H         1 SPP999      0.0000 
     38 H          -3.4501  -33.6190   19.8334 H         1 SPP999      0.0000 
     39 H          -2.9521  -32.5457   21.1525 H         1 SPP999      0.0000 
     40 H          -4.3322  -32.4015   23.1900 H         1 SPP999      0.0000 
     41 H          -5.6677  -33.5463   23.4045 H         1 SPP999      0.0000 
     42 H          -4.1758  -35.4138   23.5181 H         1 SPP999      0.0000 
     43 H          -3.6265  -34.1779   24.6629 H         1 SPP999      0.0000 
     44 H          -7.3438  -32.9270   23.0879 H         1 SPP999      0.0000 
     45 H          -9.8848  -33.3489   24.4670 H         1 SPP999      0.0000 
     46 H         -11.9831  -36.5916   22.8280 H         1 SPP999      0.0000 
     47 H         -10.1928  -36.9701   21.2292 H         1 SPP999      0.0000 
     48 H          -0.4942  -31.5176   26.0409 H         1 SPP999      0.0000 
     49 H          -1.8141  -32.8421   24.7186 H         1 SPP999      0.0000 
     50 H          -7.6988  -35.9506   20.4230 H         1 SPP999      0.0000 
     51 H         -12.9655  -35.3668   24.6064 H         1 SPP999      0.0000 
     52 H           1.8556  -31.9908   26.2824 H         1 SPP999      0.0000 
     53 H           1.7058  -33.4864   25.7106 H         1 SPP999      0.0000 
     54 H           1.4524  -32.2267   24.7436 H         1 SPP999      0.0000 
     55 H           0.0045  -34.0167   27.5515 H         1 SPP999      0.0000 
     56 H           0.1537  -32.5202   28.1211 H         1 SPP999      0.0000 
     57 H          -1.2970  -33.0875   27.7214 H         1 SPP999      0.0000 
     58 H         -10.1207  -34.3462   26.7637 H         1 SPP999      0.0000 
     59 H         -11.0405  -33.6952   27.9110 H         1 SPP999      0.0000 
     60 H         -11.2998  -35.2093   27.4351 H         1 SPP999      0.0000 
@<TRIPOS>BOND
     1    2    1 ar   
     2   24    1 ar   
     3   25    1 1    
     4    3    2 ar   
     5   23    2 1    
     6    4    3 ar   
     7   33    3 1    
     8    5    4 ar   
     9   34    4 1    
    10   24    5 ar   
    11   35    5 1    
    12    7    6 1    
    13   25    6 1    
    14   36    6 1    
    15   37    6 1    
    16   26    7 1    
    17   38    7 1    
    18   39    7 1    
    19    9    8 1    
    20   26    8 1    
    21   40    8 1    
    22   41    8 1    
    23   25    9 1    
    24   42    9 1    
    25   43    9 1    
    26   11   10 1    
    27   26   10 am   
    28   29   10 2    
    29   12   11 2    
    30   27   11 1    
    31   18   12 1    
    32   44   12 1    
    33   14   13 ar   
    34   18   13 ar   
    35   45   13 1    
    36   15   14 ar   
    37   28   14 1    
    38   16   15 ar   
    39   46   15 1    
    40   17   16 ar   
    41   47   16 1    
    42   18   17 ar   
    43   27   17 1    
    44   20   19 1    
    45   21   19 1    
    46   23   19 1    
    47   48   19 1    
    48   52   20 1    
    49   53   20 1    
    50   54   20 1    
    51   55   21 1    
    52   56   21 1    
    53   57   21 1    
    54   32   22 1    
    55   58   22 1    
    56   59   22 1    
    57   60   22 1    
    58   49   23 1    
    59   50   27 1    
    60   32   28 1    
    61   51   28 1    
    62   32   30 2    
    63   32   31 2    
@<TRIPOS>SUBSTRUCTURE
     1 SPP999      1 GROUP   
@<TRIPOS>SET

