#    Name: 2gj3_FAD_2_INTS_M
#    Modification time : Tue Mar 25 14:36:00 2014

@<TRIPOS>MOLECULE
2gj3_FAD_2_INTS_M
   93     0    12     0     0
SMALL
NO_CHARGES


@<TRIPOS>ATOM
      1 NZ         29.9065    7.2570   -2.3480 N.4       3 LYC4        0.0000 
      2 NZ         29.9630    6.2270   -1.6390 N.4      11 LYL4        0.0000 
      3 NZ         31.1300    8.7900   -3.0870 N.4       7 LYP4        0.0000 
      4 N          29.9065    7.2570   -2.3480 N.am      2 SEC2        0.0000 
      5 N          29.9630    6.2270   -1.6390 N.am     10 SEL2        0.0000 
      6 N          29.8500    8.2870   -3.0570 N.am      6 SEP2        0.0000 
      7 CA         31.9275    7.5075    2.2200 C.3       4 GLC5        0.0000 
      8 CA         31.7940    6.3420    0.7510 C.3      12 GLL5        0.0000 
      9 CA         32.0610    8.6730    3.6890 C.3       8 GLP5        0.0000 
     10 CA         33.5150    6.2895    2.4125 C.3       4 GLC5        0.0000 
     11 CA         33.1730    5.6080    0.7950 C.3      12 GLL5        0.0000 
     12 CA         33.8570    6.9710    4.0300 C.3       8 GLP5        0.0000 
     13 N          33.1675    6.9055   -2.0910 N.am      2 SEC2        0.0000 
     14 N          34.0590    5.6750   -1.4490 N.am     10 SEL2        0.0000 
     15 N          32.2760    8.1360   -2.7330 N.am      6 SEP2        0.0000 
     16 CA         33.9405    5.3010    2.8150 C.3       4 GLC5        0.0000 
     17 CA         34.0240    3.6310    1.6000 C.3      12 GLL5        0.0000 
     18 CA         33.8985    3.1585    3.2540 C.3       4 GLC5        0.0000 
     19 CA         33.7730    2.6860    4.9080 C.3       8 GLP5        0.0000 
     20 CA         35.4070    0.3535    3.2695 C.3       4 GLC5        0.0000 
     21 CA         34.8090   -0.6950    1.9320 C.3      12 GLL5        0.0000 
     22 CA         36.0050    1.4020    4.6070 C.3       8 GLP5        0.0000 
     23 CA         34.7390    1.3110    3.1690 C.3       4 GLC5        0.0000 
     24 CA         33.4730    1.2200    1.7310 C.3      12 GLL5        0.0000 
     25 N          28.8525    9.3300    7.0260 N.am      2 SEC2        0.0000 
     26 N          28.1720    8.7900    8.0480 N.am     10 SEL2        0.0000 
     27 N          29.5330    9.8700    6.0040 N.am      6 SEP2        0.0000 
     28 O          27.6145    9.2625   10.7145 O.2       1 ALC1        0.0000 
     29 O          28.0240    7.9610   10.1750 O.2       9 ALL1        0.0000 
     30 O          27.2050   10.5640   11.2540 O.2       5 ALP1        0.0000 
     31 N          27.2830    8.4670   12.8035 N.am      2 SEC2        0.0000 
     32 N          27.8660    7.1390   12.3120 N.am     10 SEL2        0.0000 
     33 N          26.7000    9.7950   13.2950 N.am      6 SEP2        0.0000 
     34 CA         30.4860    4.9740   11.7405 C.3       4 GLC5        0.0000 
     35 CA         29.2720    3.4930   10.9830 C.3      12 GLL5        0.0000 
     36 CA         31.7000    6.4550   12.4980 C.3       8 GLP5        0.0000 
     37 CA         28.0980   -0.9255   11.8910 C.3       4 GLC5        0.0000 
     38 CA         29.7500   -0.0340   12.2130 C.3      12 GLL5        0.0000 
     39 CA         26.4460   -1.8170   11.5690 C.3       8 GLP5        0.0000 
     40 CA         30.5615   -1.6950   12.1080 C.3       4 GLC5        0.0000 
     41 CA         31.3730   -3.3560   12.0030 C.3       8 GLP5        0.0000 
     42 CA         31.0565   -0.7370    7.7235 C.3       4 GLC5        0.0000 
     43 CA         30.6590   -0.3320    9.6480 C.3      12 GLL5        0.0000 
     44 CA         31.4540   -1.1420    5.7990 C.3       8 GLP5        0.0000 
     45 CA         32.6370   -0.5115    9.5225 C.3       4 GLC5        0.0000 
     46 CA         34.6150   -0.6910    9.3970 C.3       8 GLP5        0.0000 
     47 CA         31.2180   -2.1315    9.6290 C.3       4 GLC5        0.0000 
     48 CA         31.7770   -3.9310    9.6100 C.3       8 GLP5        0.0000 
     49 CA         32.2330    2.4615    8.9990 C.3       4 GLC5        0.0000 
     50 CA         30.0820    2.0840    9.2370 C.3      12 GLL5        0.0000 
     51 CA         34.3840    2.8390    8.7610 C.3       8 GLP5        0.0000 
     52 CA         31.6125    4.2635    9.4415 C.3       4 GLC5        0.0000 
     53 CA         29.6460    3.3550    9.6140 C.3      12 GLL5        0.0000 
     54 CA         33.5790    5.1720    9.2690 C.3       8 GLP5        0.0000 
     55 CA         30.5830    6.3640    6.8345 C.3       4 GLC5        0.0000 
     56 CA         29.9260    4.3870    7.3410 C.3      12 GLL5        0.0000 
     57 CA         31.2400    8.3410    6.3280 C.3       8 GLP5        0.0000 
     58 CA         31.7525    4.7795    8.3050 C.3       4 GLC5        0.0000 
     59 CA         26.8760    4.8460    6.1880 C.3       4 GLC5        0.0000 
     60 CA         28.7340    4.0560    6.4970 C.3      12 GLL5        0.0000 
     61 CA         25.0180    5.6360    5.8790 C.3       8 GLP5        0.0000 
     62 O          26.9880    2.2840    5.9505 O.2       1 ALC1        0.0000 
     63 O          28.4620    2.6710    6.6850 O.2       9 ALL1        0.0000 
     64 O          25.5140    1.8970    5.2160 O.2       5 ALP1        0.0000 
     65 N          31.2325    3.0705    4.7675 N.am      2 SEC2        0.0000 
     66 N          30.0030    3.7670    4.4050 N.am     10 SEL2        0.0000 
     67 N          32.4620    2.3740    5.1300 N.am      6 SEP2        0.0000 
     68 CA         30.1375    7.1425    5.5830 C.3       4 GLC5        0.0000 
     69 CA         29.0350    5.9440    4.8380 C.3      12 GLL5        0.0000 
     70 CA         27.1190    5.8585    3.8730 C.3       4 GLC5        0.0000 
     71 CA         29.1040    6.4720    3.3680 C.3      12 GLL5        0.0000 
     72 CA         25.1340    5.2450    4.3780 C.3       8 GLP5        0.0000 
     73 CA         30.0495    7.9440    3.7425 C.3       4 GLC5        0.0000 
     74 CA         30.9950    9.4160    4.1170 C.3       8 GLP5        0.0000 
     75 CA         33.5591    7.1458   -0.5122 C.3       4 GLC5        0.0000 
     76 CA         34.1040    8.9060   -1.1920 C.3       8 GLP5        0.0000 
     77 CA         27.8345    3.2070    9.8338 C.3       4 GLC5        0.0000 
     78 CA         26.2100    2.9900    9.3690 C.3       8 GLP5        0.0000 
     79 CA         31.0943    2.8075   12.2000 C.3       4 GLC5        0.0000 
     80 CA         32.8830    2.6470   13.0030 C.3       8 GLP5        0.0000 
     81 CA         27.9748    1.3434   11.1019 C.3       4 GLC5        0.0000 
     82 CA         29.3390    2.4430   11.8110 C.3      12 GLL5        0.0000 
     83 CA         26.2870    1.7970   10.3040 C.3       8 GLP5        0.0000 
     84 CA         29.6767    1.1474   13.7899 C.3       4 GLC5        0.0000 
     85 CA         29.6910    1.4050   15.6800 C.3       8 GLP5        0.0000 
     86 CA         28.2078    1.6790    9.9938 C.3       4 GLC5        0.0000 
     87 CA         30.1750    1.0380   10.1300 C.3      12 GLL5        0.0000 
     88 CA         31.4304    1.7267   11.9809 C.3       4 GLC5        0.0000 
     89 CA         29.1018    0.3263    8.4030 C.3       4 GLC5        0.0000 
     90 CA         27.9540   -0.5660    7.2430 C.3       8 GLP5        0.0000 
     91 CA         27.7700    3.6058    8.1440 C.3       4 GLC5        0.0000 
     92 CA         27.0575    5.2103    4.6545 C.3       4 GLC5        0.0000 
     93 CA         28.9270    4.4070    5.0240 C.3      12 GLL5        0.0000 
@<TRIPOS>BOND
@<TRIPOS>SUBSTRUCTURE
     1 ALC1       28 GROUP        1 X    ALC  0     ROOT ALC X 1
     2 SEC2        4 GROUP        1 X    SEC  0     **** SEC X 2
     3 LYC4        1 GROUP        1 X    LYC  0     **** LYC X 4
     4 GLC5        7 GROUP        1 X    GLC  0     **** GLC X 6
     5 ALP1       30 GROUP        1 Y    ALP  0     ROOT ALP Y 8
     6 SEP2        6 GROUP        1 Y    SEP  0     **** SEP Y 9
     7 LYP4        3 GROUP        1 Y    LYP  0     **** LYP Y 11
     8 GLP5        9 GROUP        1 Y    GLP  0     **** GLP Y 13
     9 ALL1       29 GROUP        1 Z    ALL  0     ROOT ALL Z 15
    10 SEL2        5 GROUP        1 Z    SEL  0     **** SEL Z 16
    11 LYL4        2 GROUP        1 Z    LYL  0     **** LYL Z 18
    12 GLL5        8 GROUP        1 Z    GLL  0     **** GLL Z 20
@<TRIPOS>SET

