#    Name: 2gj3_FAD_2_ligand
#    Modification time : Tue Mar 25 14:36:00 2014

@<TRIPOS>MOLECULE
2gj3_FAD_2_ligand
   84    89     1     0     0
SMALL
NO_CHARGES


@<TRIPOS>ATOM
      1 PA         29.5730    5.6310   -0.3430 P.3       1 FAD501      0.0000 
      2 O1A        29.9630    6.2270   -1.6390 O.co2     1 FAD501      0.0000 
      3 O2A        28.6670    4.3920   -0.3400 O.co2     1 FAD501      0.0000 
      4 O5B        30.8400    5.3060    0.5900 O.3       1 FAD501      0.0000 
      5 C5B        31.7940    6.3420    0.7510 C.3       1 FAD501      0.0000 
      6 C4B        33.1730    5.6080    0.7950 C.3       1 FAD501      0.0000 
      7 O4B        33.2830    4.7710    1.9250 O.3       1 FAD501      0.0000 
      8 C3B        33.5450    4.7960   -0.4380 C.3       1 FAD501      0.0000 
      9 O3B        34.0590    5.6750   -1.4490 O.3       1 FAD501      0.0000 
     10 C2B        34.5430    3.9010    0.2390 C.3       1 FAD501      0.0000 
     11 O2B        35.8080    4.5800    0.4050 O.3       1 FAD501      0.0000 
     12 C1B        34.0240    3.6310    1.6000 C.3       1 FAD501      0.0000 
     13 N9A        33.1180    2.4810    1.5270 N.pl3     1 FAD501      0.0000 
     14 C8A        31.7280    2.5130    1.5580 C.2       1 FAD501      0.0000 
     15 N7A        31.2060    1.2910    1.6790 N.2       1 FAD501      0.0000 
     16 C5A        32.2790    0.4770    1.8020 C.ar      1 FAD501      0.0000 
     17 C6A        32.4030   -0.9290    1.8900 C.ar      1 FAD501      0.0000 
     18 N6A        31.3290   -1.7320    2.1820 N.pl3     1 FAD501      0.0000 
     19 N1A        33.6500   -1.4270    2.0320 N.ar      1 FAD501      0.0000 
     20 C2A        34.8090   -0.6950    1.9320 C.ar      1 FAD501      0.0000 
     21 N3A        34.7560    0.6890    1.7690 N.ar      1 FAD501      0.0000 
     22 C4A        33.4730    1.2200    1.7310 C.ar      1 FAD501      0.0000 
     23 N1         28.8060    6.6490    8.3190 N.2       1 FAD501      0.0000 
     24 C2         28.2990    7.8730    8.8380 C.2       1 FAD501      0.0000 
     25 O2         28.1720    8.7900    8.0480 O.2       1 FAD501      0.0000 
     26 N3         28.0240    7.9610   10.1750 N.am      1 FAD501      0.0000 
     27 C4         28.1310    6.9700   11.0800 C.2       1 FAD501      0.0000 
     28 O4         27.8660    7.1390   12.3120 O.2       1 FAD501      0.0000 
     29 C4X        28.7050    5.7760   10.4500 C.2       1 FAD501      0.0000 
     30 N5         28.8290    4.7460   11.4470 N.2       1 FAD501      0.0000 
     31 C5X        29.2720    3.4930   10.9830 C.ar      1 FAD501      0.0000 
     32 C6         29.3390    2.4430   11.8110 C.ar      1 FAD501      0.0000 
     33 C7         29.8110    1.1840   11.3620 C.ar      1 FAD501      0.0000 
     34 C7M        29.7500   -0.0340   12.2130 C.3       1 FAD501      0.0000 
     35 C8         30.1750    1.0380   10.1300 C.ar      1 FAD501      0.0000 
     36 C8M        30.6590   -0.3320    9.6480 C.3       1 FAD501      0.0000 
     37 C9         30.0820    2.0840    9.2370 C.ar      1 FAD501      0.0000 
     38 C9A        29.6460    3.3550    9.6140 C.ar      1 FAD501      0.0000 
     39 N10        29.4910    4.4300    8.7340 N.pl3     1 FAD501      0.0000 
     40 C10        28.9790    5.6700    9.1490 C.2       1 FAD501      0.0000 
     41 C1'        29.9260    4.3870    7.3410 C.3       1 FAD501      0.0000 
     42 C2'        28.7340    4.0560    6.4970 C.3       1 FAD501      0.0000 
     43 O2'        28.4620    2.6710    6.6850 O.3       1 FAD501      0.0000 
     44 C3'        28.9270    4.4070    5.0240 C.3       1 FAD501      0.0000 
     45 O3'        30.0030    3.7670    4.4050 O.3       1 FAD501      0.0000 
     46 C4'        29.0350    5.9440    4.8380 C.3       1 FAD501      0.0000 
     47 O4'        28.0320    6.6520    5.5950 O.3       1 FAD501      0.0000 
     48 C5'        29.1040    6.4720    3.3680 C.3       1 FAD501      0.0000 
     49 O5'        28.0460    5.8400    2.6750 O.3       1 FAD501      0.0000 
     50 P          27.5820    6.6250    1.3610 P.3       1 FAD501      0.0000 
     51 O1P        26.4140    5.6410    0.9080 O.co2     1 FAD501      0.0000 
     52 O2P        27.3040    8.0400    1.8520 O.co2     1 FAD501      0.0000 
     53 O3P        28.9750    6.8050    0.4970 O.3       1 FAD501      0.0000 
     54 H          31.6877    6.8718    1.6794 H         1 FAD501      0.0000 
     55 H          31.8232    7.0207   -0.0811 H         1 FAD501      0.0000 
     56 H          33.9486    6.4171    0.8821 H         1 FAD501      0.0000 
     57 H          32.6997    4.2376   -0.7039 H         1 FAD501      0.0000 
     58 H          34.6428    2.9972   -0.2922 H         1 FAD501      0.0000 
     59 H          34.8189    3.4567    2.2582 H         1 FAD501      0.0000 
     60 H          31.2188    3.3517    1.4961 H         1 FAD501      0.0000 
     61 H          31.5152   -2.7129    2.2374 H         1 FAD501      0.0000 
     62 H          30.4541   -1.2660    2.3138 H         1 FAD501      0.0000 
     63 H          35.7280   -1.1638    1.9767 H         1 FAD501      0.0000 
     64 H          27.6873    8.9272   10.5331 H         1 FAD501      0.0000 
     65 H          29.0476    2.5174   12.8076 H         1 FAD501      0.0000 
     66 H          30.3468    1.9263    8.2364 H         1 FAD501      0.0000 
     67 H          30.6877    3.6237    7.1991 H         1 FAD501      0.0000 
     68 H          30.3259    5.3504    7.0328 H         1 FAD501      0.0000 
     69 H          27.8883    4.6481    6.8757 H         1 FAD501      0.0000 
     70 H          27.9682    4.1303    4.5087 H         1 FAD501      0.0000 
     71 H          30.0471    6.2281    5.2923 H         1 FAD501      0.0000 
     72 H          30.0784    6.2085    2.9839 H         1 FAD501      0.0000 
     73 H          28.9981    7.5458    3.4136 H         1 FAD501      0.0000 
     74 H          30.1215   -0.8346   11.7428 H         1 FAD501      0.0000 
     75 H          30.2717    0.0774   13.0588 H         1 FAD501      0.0000 
     76 H          28.8111   -0.2574   12.4749 H         1 FAD501      0.0000 
     77 H          30.9081   -0.3183    8.6796 H         1 FAD501      0.0000 
     78 H          31.4649   -0.6402   10.1536 H         1 FAD501      0.0000 
     79 H          29.9563   -1.0346    9.7600 H         1 FAD501      0.0000 
     80 H          34.0355    5.1398   -2.2934 H         1 FAD501      0.0000 
     81 H          35.6975    5.4528   -0.0704 H         1 FAD501      0.0000 
     82 H          28.1477    2.3457    5.7932 H         1 FAD501      0.0000 
     83 H          29.6118    3.3260    3.5973 H         1 FAD501      0.0000 
     84 H          28.4272    6.7641    6.5067 H         1 FAD501      0.0000 
@<TRIPOS>BOND
     1    2    1 ar   
     2    3    1 ar   
     3    4    1 1    
     4   53    1 1    
     5    5    4 1    
     6    6    5 1    
     7   54    5 1    
     8   55    5 1    
     9    7    6 1    
    10    8    6 1    
    11   56    6 1    
    12   12    7 1    
    13    9    8 1    
    14   10    8 1    
    15   57    8 1    
    16   80    9 1    
    17   11   10 1    
    18   12   10 1    
    19   58   10 1    
    20   81   11 1    
    21   13   12 1    
    22   59   12 1    
    23   14   13 1    
    24   22   13 1    
    25   15   14 2    
    26   60   14 1    
    27   16   15 1    
    28   17   16 ar   
    29   22   16 ar   
    30   18   17 1    
    31   19   17 ar   
    32   61   18 1    
    33   62   18 1    
    34   20   19 ar   
    35   21   20 ar   
    36   63   20 1    
    37   22   21 ar   
    38   24   23 1    
    39   40   23 2    
    40   25   24 2    
    41   26   24 am   
    42   27   26 am   
    43   64   26 1    
    44   28   27 2    
    45   29   27 1    
    46   30   29 2    
    47   40   29 1    
    48   31   30 1    
    49   32   31 ar   
    50   38   31 ar   
    51   33   32 ar   
    52   65   32 1    
    53   34   33 1    
    54   35   33 ar   
    55   74   34 1    
    56   75   34 1    
    57   76   34 1    
    58   36   35 1    
    59   37   35 ar   
    60   77   36 1    
    61   78   36 1    
    62   79   36 1    
    63   38   37 ar   
    64   66   37 1    
    65   39   38 1    
    66   40   39 1    
    67   41   39 1    
    68   42   41 1    
    69   67   41 1    
    70   68   41 1    
    71   43   42 1    
    72   44   42 1    
    73   69   42 1    
    74   82   43 1    
    75   45   44 1    
    76   46   44 1    
    77   70   44 1    
    78   83   45 1    
    79   47   46 1    
    80   48   46 1    
    81   71   46 1    
    82   84   47 1    
    83   49   48 1    
    84   72   48 1    
    85   73   48 1    
    86   50   49 1    
    87   51   50 ar   
    88   52   50 ar   
    89   53   50 1    
@<TRIPOS>SUBSTRUCTURE
     1 FAD501      1 GROUP   
@<TRIPOS>SET

