#    Name: 3vs6_VSH_2_INTS_M
#    Modification time : Tue Mar 25 01:27:46 2014

@<TRIPOS>MOLECULE
3vs6_VSH_2_INTS_M
   81     0     9     0     0
SMALL
NO_CHARGES


@<TRIPOS>ATOM
      1 N           3.7060   -4.5060   14.8245 N.am      2 SEC2        0.0000 
      2 N           2.9920   -4.6470   13.7470 N.am      8 SEL2        0.0000 
      3 N           4.4200   -4.3650   15.9020 N.am      5 SEP2        0.0000 
      4 CA          0.1985   -4.2070   14.1185 C.3       3 GLC5        0.0000 
      5 CA          0.2410   -6.1720   13.5190 C.3       9 GLL5        0.0000 
      6 CA          0.1560   -2.2420   14.7180 C.3       6 GLP5        0.0000 
      7 CA         -1.7625   -6.4095   13.1070 C.3       3 GLC5        0.0000 
      8 CA         -3.7660   -6.6470   12.6950 C.3       6 GLP5        0.0000 
      9 CA         -0.0500   -5.1010   11.9270 C.3       3 GLC5        0.0000 
     10 CA         -0.3410   -4.0300   10.3350 C.3       6 GLP5        0.0000 
     11 CA         -0.3050   -5.8180   15.5545 C.3       3 GLC5        0.0000 
     12 CA         -0.8510   -5.4640   17.5900 C.3       6 GLP5        0.0000 
     13 CA          1.9095   -9.2725   15.8005 C.3       3 GLC5        0.0000 
     14 CA          1.8020   -7.2040   15.2200 C.3       9 GLL5        0.0000 
     15 CA          2.0170  -11.3410   16.3810 C.3       6 GLP5        0.0000 
     16 CA          3.5250   -6.3930   15.6245 C.3       3 GLC5        0.0000 
     17 CA          5.2480   -5.5820   16.0290 C.3       6 GLP5        0.0000 
     18 CA          0.5535   -6.9770   16.6555 C.3       3 GLC5        0.0000 
     19 CA         -0.6950   -6.7500   18.0910 C.3       6 GLP5        0.0000 
     20 CA          0.6835  -10.0220   14.4210 C.3       3 GLC5        0.0000 
     21 CA          0.9350   -8.5300   13.2870 C.3       9 GLL5        0.0000 
     22 CA          0.4320  -11.5140   15.5550 C.3       6 GLP5        0.0000 
     23 CA         -1.0470   -8.7950   13.0250 C.3       3 GLC5        0.0000 
     24 CA         -3.0290   -9.0600   12.7630 C.3       6 GLP5        0.0000 
     25 CA          0.8965   -8.1870   11.2100 C.3       3 GLC5        0.0000 
     26 CA          0.8580   -7.8440    9.1330 C.3       6 GLP5        0.0000 
     27 CA          5.0290   -5.1085   10.3030 C.3       3 GLC5        0.0000 
     28 CA          3.8210   -3.7610   11.1610 C.3       9 GLL5        0.0000 
     29 CA          6.2370   -6.4560    9.4450 C.3       6 GLP5        0.0000 
     30 CA          4.1770   -4.7885    8.6020 C.3       3 GLC5        0.0000 
     31 CA          3.4350   -3.3160    9.9100 C.3       9 GLL5        0.0000 
     32 CA          4.9190   -6.2610    7.2940 C.3       6 GLP5        0.0000 
     33 CA          1.8650   -1.9370    7.1160 C.3       3 GLC5        0.0000 
     34 CA          2.1890   -3.7780    7.8790 C.3       9 GLL5        0.0000 
     35 CA          1.5410   -0.0960    6.3530 C.3       6 GLP5        0.0000 
     36 CA          2.2255   -3.9035    5.9705 C.3       3 GLC5        0.0000 
     37 CA          2.2620   -4.0290    4.0620 C.3       6 GLP5        0.0000 
     38 CA          3.5540   -5.0195    7.5865 C.3       3 GLC5        0.0000 
     39 CA          1.5235   -5.8110    8.5060 C.3       3 GLC5        0.0000 
     40 CA          0.9240   -3.9040    9.1070 C.3       3 GLC5        0.0000 
     41 CA          2.6975   -1.0795    7.8950 C.3       3 GLC5        0.0000 
     42 CA          3.8540   -2.0630    9.4370 C.3       9 GLL5        0.0000 
     43 CA          8.4430    2.0055    6.1115 C.3       3 GLC5        0.0000 
     44 CA          8.6850    1.5430    7.9540 C.3       9 GLL5        0.0000 
     45 CA          8.2010    2.4680    4.2690 C.3       6 GLP5        0.0000 
     46 CA          7.2875    4.5730   10.3405 C.3       3 GLC5        0.0000 
     47 CA          8.4280    2.7140   10.1950 C.3       9 GLL5        0.0000 
     48 CA          6.1470    6.4320   10.4860 C.3       6 GLP5        0.0000 
     49 CA          9.1790    3.8160   11.6445 C.3       3 GLC5        0.0000 
     50 CA          9.9300    4.9180   13.0940 C.3       6 GLP5        0.0000 
     51 CA          6.8720    2.7535   11.4075 C.3       3 GLC5        0.0000 
     52 CA          5.3160    2.7930   12.6200 C.3       6 GLP5        0.0000 
     53 CA          5.2705    2.4850   10.7575 C.3       3 GLC5        0.0000 
     54 CA          5.2250    2.1770    8.8950 C.3       9 GLL5        0.0000 
     55 O           0.5360    0.7330    9.3580 O.2       1 ALC1        0.0000 
     56 O           2.0590    0.4750    9.5600 O.2       7 ALL1        0.0000 
     57 O          -0.9870    0.9910    9.1560 O.2       4 ALP1        0.0000 
     58 N           1.4435    3.5975    8.9095 N.am      2 SEC2        0.0000 
     59 N           2.5540    2.5850    8.7320 N.am      8 SEL2        0.0000 
     60 N           0.3330    4.6100    9.0870 N.am      5 SEP2        0.0000 
     61 CA          1.2155    3.4000    7.9575 C.3       3 GLC5        0.0000 
     62 CA          3.4080    3.5480    8.3610 C.3       9 GLL5        0.0000 
     63 CA         -0.9770    3.2520    7.5540 C.3       6 GLP5        0.0000 
     64 CA          2.0000    4.6340    9.1825 C.3       3 GLC5        0.0000 
     65 CA          0.5920    5.7200   10.0040 C.3       6 GLP5        0.0000 
     66 CA          1.6435   -3.7843   10.4352 C.3       3 GLC5        0.0000 
     67 CA          4.4938   -1.8750   13.4345 C.3       3 GLC5        0.0000 
     68 CA          4.6720   -2.9750   11.9430 C.3       9 GLL5        0.0000 
     69 CA          4.1010   -1.3970   15.1600 C.3       6 GLP5        0.0000 
     70 CA          5.4340   -1.2488    8.0340 C.3       3 GLC5        0.0000 
     71 CA          4.6960   -1.2640   10.2250 C.3       9 GLL5        0.0000 
     72 CA          6.5930   -0.8340    6.2370 C.3       6 GLP5        0.0000 
     73 CA          4.0258    0.0187   11.7410 C.3       3 GLC5        0.0000 
     74 CA          3.1530    1.5350   12.6320 C.3       6 GLP5        0.0000 
     75 CA          7.4143    0.5667    7.3170 C.3       3 GLC5        0.0000 
     76 CA          7.7860    2.3920    8.8400 C.3       9 GLL5        0.0000 
     77 CA          5.6950    0.4147    7.6655 C.3       3 GLC5        0.0000 
     78 CA          2.6107    0.5880    7.7990 C.3       3 GLC5        0.0000 
     79 CA          4.3690    1.1500    9.2930 C.3       9 GLL5        0.0000 
     80 CA          3.4167    1.4035   10.9385 C.3       3 GLC5        0.0000 
     81 CA          2.9920    1.3940    9.1970 C.3       9 GLL5        0.0000 
@<TRIPOS>BOND
@<TRIPOS>SUBSTRUCTURE
     1 ALC1       55 GROUP        1 X    ALC  0     ROOT ALC X 1
     2 SEC2        1 GROUP        1 X    SEC  0     **** SEC X 2
     3 GLC5        4 GROUP        1 X    GLC  0     **** GLC X 6
     4 ALP1       57 GROUP        1 Y    ALP  0     ROOT ALP Y 8
     5 SEP2        3 GROUP        1 Y    SEP  0     **** SEP Y 9
     6 GLP5        6 GROUP        1 Y    GLP  0     **** GLP Y 13
     7 ALL1       56 GROUP        1 Z    ALL  0     ROOT ALL Z 15
     8 SEL2        2 GROUP        1 Z    SEL  0     **** SEL Z 16
     9 GLL5        5 GROUP        1 Z    GLL  0     **** GLL Z 20
@<TRIPOS>SET

