#    Name: 3vs6_VSH_2_ligand
#    Modification time : Tue Mar 25 01:27:46 2014

@<TRIPOS>MOLECULE
3vs6_VSH_2_ligand
   55    57     1     0     0
SMALL
NO_CHARGES


@<TRIPOS>ATOM
      1 O27         2.9920   -4.6470   13.7470 O.2       1 VSH603      0.0000 
      2 C12         2.9690   -5.3970   12.7800 C.2       1 VSH603      0.0000 
      3 O29         2.5330   -6.7790   12.9720 O.3       1 VSH603      0.0000 
      4 C20         1.3870   -7.1510   13.7510 C.3       1 VSH603      0.0000 
      5 C17         0.2410   -6.1720   13.5190 C.3       1 VSH603      0.0000 
      6 C16         1.8020   -7.2040   15.2200 C.3       1 VSH603      0.0000 
      7 C15         0.9350   -8.5300   13.2870 C.3       1 VSH603      0.0000 
      8 N26         3.3540   -5.0340   11.5510 N.am      1 VSH603      0.0000 
      9 C7          3.8210   -3.7610   11.1610 C.ar      1 VSH603      0.0000 
     10 C2          4.6720   -2.9750   11.9430 C.ar      1 VSH603      0.0000 
     11 C8          3.4350   -3.3160    9.9100 C.ar      1 VSH603      0.0000 
     12 O28         2.6110   -4.1440    9.1880 O.3       1 VSH603      0.0000 
     13 C18         2.1890   -3.7780    7.8790 C.3       1 VSH603      0.0000 
     14 C3          3.8540   -2.0630    9.4370 C.ar      1 VSH603      0.0000 
     15 C6          4.6960   -1.2640   10.2250 C.ar      1 VSH603      0.0000 
     16 C1          5.1010   -1.7310   11.4750 C.ar      1 VSH603      0.0000 
     17 C9          5.1640    0.0650    9.7160 C.2       1 VSH603      0.0000 
     18 N23         6.4750    0.4250    9.5920 N.2       1 VSH603      0.0000 
     19 N24         6.4710    1.7300    9.0640 N.pl3     1 VSH603      0.0000 
     20 C19         7.7860    2.3920    8.8400 C.3       1 VSH603      0.0000 
     21 C14         8.6850    1.5430    7.9540 C.3       1 VSH603      0.0000 
     22 C13         8.4280    2.7140   10.1950 C.3       1 VSH603      0.0000 
     23 C10         5.2250    2.1770    8.8950 C.ar      1 VSH603      0.0000 
     24 N21         4.7320    3.3580    8.4360 N.ar      1 VSH603      0.0000 
     25 C5          4.3690    1.1500    9.2930 C.ar      1 VSH603      0.0000 
     26 C11         2.9920    1.3940    9.1970 C.ar      1 VSH603      0.0000 
     27 N25         2.0590    0.4750    9.5600 N.pl3     1 VSH603      0.0000 
     28 N22         2.5540    2.5850    8.7320 N.ar      1 VSH603      0.0000 
     29 C4          3.4080    3.5480    8.3610 C.ar      1 VSH603      0.0000 
     30 H           3.3136   -5.7676   10.7603 H         1 VSH603      0.0000 
     31 H           4.9815   -3.3125   12.8614 H         1 VSH603      0.0000 
     32 H           3.5458   -1.7327    8.5188 H         1 VSH603      0.0000 
     33 H           5.7230   -1.1531   12.0600 H         1 VSH603      0.0000 
     34 H           7.6065    3.3472    8.3294 H         1 VSH603      0.0000 
     35 H           2.4093   -0.3831    9.9353 H         1 VSH603      0.0000 
     36 H           1.1045    0.7381    9.4197 H         1 VSH603      0.0000 
     37 H           3.0347    4.4642    8.0066 H         1 VSH603      0.0000 
     38 H           0.4933   -5.2381   13.7725 H         1 VSH603      0.0000 
     39 H          -0.0398   -6.1496   12.5595 H         1 VSH603      0.0000 
     40 H          -0.5677   -6.4130   14.0555 H         1 VSH603      0.0000 
     41 H           2.5313   -7.8701   15.3761 H         1 VSH603      0.0000 
     42 H           2.1388   -6.3195   15.5429 H         1 VSH603      0.0000 
     43 H           1.0386   -7.4610   15.8126 H         1 VSH603      0.0000 
     44 H           1.6517   -9.2165   13.4095 H         1 VSH603      0.0000 
     45 H           0.1342   -8.8485   13.7943 H         1 VSH603      0.0000 
     46 H           0.6885   -8.5334   12.3179 H         1 VSH603      0.0000 
     47 H           2.9640   -3.6614    7.2579 H         1 VSH603      0.0000 
     48 H           1.5909   -4.4699    7.4746 H         1 VSH603      0.0000 
     49 H           1.6817   -2.9162    7.8797 H         1 VSH603      0.0000 
     50 H           9.5720    1.9781    7.7994 H         1 VSH603      0.0000 
     51 H           8.8650    0.6462    8.3583 H         1 VSH603      0.0000 
     52 H           8.2765    1.3828    7.0554 H         1 VSH603      0.0000 
     53 H           9.3156    3.1622   10.0883 H         1 VSH603      0.0000 
     54 H           7.8551    3.3247   10.7417 H         1 VSH603      0.0000 
     55 H           8.5798    1.8891   10.7395 H         1 VSH603      0.0000 
@<TRIPOS>BOND
     1    2    1 2    
     2    3    2 1    
     3    8    2 am   
     4    4    3 1    
     5    5    4 1    
     6    6    4 1    
     7    7    4 1    
     8   38    5 1    
     9   39    5 1    
    10   40    5 1    
    11   41    6 1    
    12   42    6 1    
    13   43    6 1    
    14   44    7 1    
    15   45    7 1    
    16   46    7 1    
    17    9    8 1    
    18   30    8 1    
    19   10    9 ar   
    20   11    9 ar   
    21   16   10 ar   
    22   31   10 1    
    23   12   11 1    
    24   14   11 ar   
    25   13   12 1    
    26   47   13 1    
    27   48   13 1    
    28   49   13 1    
    29   15   14 ar   
    30   32   14 1    
    31   16   15 ar   
    32   17   15 1    
    33   33   16 1    
    34   18   17 2    
    35   25   17 1    
    36   19   18 1    
    37   20   19 1    
    38   23   19 1    
    39   21   20 1    
    40   22   20 1    
    41   34   20 1    
    42   50   21 1    
    43   51   21 1    
    44   52   21 1    
    45   53   22 1    
    46   54   22 1    
    47   55   22 1    
    48   24   23 ar   
    49   25   23 ar   
    50   29   24 ar   
    51   26   25 ar   
    52   27   26 1    
    53   28   26 ar   
    54   35   27 1    
    55   36   27 1    
    56   29   28 ar   
    57   37   29 1    
@<TRIPOS>SUBSTRUCTURE
     1 VSH603      1 GROUP   
@<TRIPOS>SET

