#    Name: 3duf_R1T_3_INTS_M
#    Modification time : Tue Mar 25 00:22:18 2014

@<TRIPOS>MOLECULE
3duf_R1T_3_INTS_M
   74     0    15     0     0
SMALL
NO_CHARGES


@<TRIPOS>ATOM
      1 CA          1.8955  -62.3980  -21.5385 C.3       5 GLC5        0.0000 
      2 CA          0.6310  -62.6240  -20.1130 C.3      15 GLL5        0.0000 
      3 CA          3.1600  -62.1720  -22.9640 C.3      10 GLP5        0.0000 
      4 CA          1.7120  -60.9945  -21.4150 C.3       5 GLC5        0.0000 
      5 CA          0.3750  -61.3380  -19.7680 C.3      15 GLL5        0.0000 
      6 CA          3.0490  -60.6510  -23.0620 C.3      10 GLP5        0.0000 
      7 CA         -0.0740  -62.6025  -18.1785 C.3       5 GLC5        0.0000 
      8 CA         -0.5230  -63.8670  -16.5890 C.3      10 GLP5        0.0000 
      9 O           4.4005  -63.9485  -19.8270 O.2       1 ALC1        0.0000 
     10 O           3.3030  -64.7750  -20.0710 O.2      11 ALL1        0.0000 
     11 O           5.4980  -63.1220  -19.5830 O.2       6 ALP1        0.0000 
     12 CA         -0.6510  -63.3780  -22.6570 C.3       5 GLC5        0.0000 
     13 CA         -0.1030  -64.6600  -20.9600 C.3      15 GLL5        0.0000 
     14 CA         -1.1990  -62.0960  -24.3540 C.3      10 GLP5        0.0000 
     15 CA          0.6705  -66.2515  -19.4175 C.3       5 GLC5        0.0000 
     16 CA          1.3300  -66.5240  -21.1830 C.3      15 GLL5        0.0000 
     17 CA          0.0110  -65.9790  -17.6520 C.3      10 GLP5        0.0000 
     18 CA         -0.1025  -67.8180  -24.5370 C.3       5 GLC5        0.0000 
     19 CA          0.0930  -66.0750  -23.9540 C.3      15 GLL5        0.0000 
     20 CA         -0.2980  -69.5610  -25.1200 C.3      10 GLP5        0.0000 
     21 CA          1.3750  -68.2960  -26.2860 C.3       5 GLC5        0.0000 
     22 CA          2.2150  -66.7220  -26.2280 C.3      15 GLL5        0.0000 
     23 CA          0.5350  -69.8700  -26.3440 C.3      10 GLP5        0.0000 
     24 CA          4.7850  -65.5990  -25.8550 C.3       5 GLC5        0.0000 
     25 CA          2.7820  -65.3910  -26.8060 C.3      15 GLL5        0.0000 
     26 CA          6.7880  -65.8070  -24.9040 C.3      10 GLP5        0.0000 
     27 Zn          3.9120  -65.3225  -31.2650 Zn        4 ZIC7        0.0000 
     28 Zn          3.7050  -64.7970  -30.3620 Zn       14 ZIL7        0.0000 
     29 Zn          4.1190  -65.8480  -32.1680 Zn        9 ZIP7        0.0000 
     30 N           2.7310  -63.4040  -30.5260 N.am      2 SEC2        0.0000 
     31 N           3.7050  -64.7970  -30.3620 N.am     12 SEL2        0.0000 
     32 N           1.7570  -62.0110  -30.6900 N.am      7 SEP2        0.0000 
     33 N           4.9595  -64.6405  -31.1595 N.am      2 SEC2        0.0000 
     34 N           6.2140  -64.4840  -31.9570 N.am      7 SEP2        0.0000 
     35 N           2.7920  -62.6445  -29.5830 N.am      2 SEC2        0.0000 
     36 N           3.8270  -63.2780  -28.4760 N.am     12 SEL2        0.0000 
     37 N           2.9115  -61.8600  -28.4590 N.am      2 SEC2        0.0000 
     38 N           1.9960  -60.4420  -28.4420 N.am      7 SEP2        0.0000 
     39 N           5.5600  -66.3185  -26.8310 N.am      2 SEC2        0.0000 
     40 N           5.3260  -66.9680  -27.8180 N.am     12 SEL2        0.0000 
     41 N           5.7940  -65.6690  -25.8440 N.am      7 SEP2        0.0000 
     42 N           6.3635  -68.1945  -27.7915 N.am      2 SEC2        0.0000 
     43 N           7.4010  -69.4210  -27.7650 N.am      7 SEP2        0.0000 
     44 NZ          8.1225  -67.0700  -28.8060 N.4       3 LYC4        0.0000 
     45 NZ          7.1490  -66.0210  -29.0110 N.4      13 LYL4        0.0000 
     46 NZ          8.6420  -69.3080  -28.2140 N.4       8 LYP4        0.0000 
     47 N           8.1225  -67.0700  -28.8060 N.am      2 SEC2        0.0000 
     48 N           7.1490  -66.0210  -29.0110 N.am     12 SEL2        0.0000 
     49 N           9.0960  -68.1190  -28.6010 N.am      7 SEP2        0.0000 
     50 Zn          4.6675  -66.3205  -31.1620 Zn        4 ZIC7        0.0000 
     51 Zn          5.2160  -66.7930  -30.1560 Zn       14 ZIL7        0.0000 
     52 N           6.1430  -66.9900  -31.4490 N.am      2 SEC2        0.0000 
     53 N           5.2160  -66.7930  -30.1560 N.am     12 SEL2        0.0000 
     54 N           7.0700  -67.1870  -32.7420 N.am      7 SEP2        0.0000 
     55 CA          5.8870  -65.4885  -22.5470 C.3       5 GLC5        0.0000 
     56 CA          4.7850  -66.1920  -21.1090 C.3      15 GLL5        0.0000 
     57 CA          6.9890  -64.7850  -23.9850 C.3      10 GLP5        0.0000 
     58 CA          6.2215  -66.2490  -20.0145 C.3       5 GLC5        0.0000 
     59 CA          7.6580  -66.3060  -18.9200 C.3      10 GLP5        0.0000 
     60 CA          4.6175  -64.4565  -22.2985 C.3       5 GLC5        0.0000 
     61 CA          4.4500  -62.7210  -23.4880 C.3      10 GLP5        0.0000 
     62 N           3.6340  -68.4390  -18.8475 N.am      2 SEC2        0.0000 
     63 N           3.4810  -67.9540  -20.4990 N.am     12 SEL2        0.0000 
     64 N           3.7870  -68.9240  -17.1960 N.am      7 SEP2        0.0000 
     65 CA          2.3890  -63.4680  -21.7480 C.3       5 GLC5        0.0000 
     66 CA          1.1410  -65.1900  -20.8020 C.3      15 GLL5        0.0000 
     67 CA          0.8917  -68.1476  -24.5186 C.3       5 GLC5        0.0000 
     68 CA          2.3950  -66.8220  -24.6850 C.3      15 GLL5        0.0000 
     69 CA          0.1572  -64.9553  -25.0423 C.3       5 GLC5        0.0000 
     70 CA          1.5060  -66.5580  -23.7450 C.3      15 GLL5        0.0000 
     71 CA         -0.4850  -63.5940  -26.2350 C.3      10 GLP5        0.0000 
     72 CA          1.4352  -66.5012  -28.3480 C.3       5 GLC5        0.0000 
     73 CA          0.3720  -66.9460  -30.1790 C.3      10 GLP5        0.0000 
     74 CA          1.0068  -64.8253  -26.3760 C.3       5 GLC5        0.0000 
@<TRIPOS>BOND
@<TRIPOS>SUBSTRUCTURE
     1 ALC1        9 GROUP        1 X    ALC  0     ROOT ALC X 1
     2 SEC2       30 GROUP        1 X    SEC  0     **** SEC X 2
     3 LYC4       44 GROUP        1 X    LYC  0     **** LYC X 4
     4 ZIC7       27 GROUP        1 X    ZIC  0     **** ZIC X 5
     5 GLC5        1 GROUP        1 X    GLC  0     **** GLC X 6
     6 ALP1       11 GROUP        1 Y    ALP  0     ROOT ALP Y 8
     7 SEP2       32 GROUP        1 Y    SEP  0     **** SEP Y 9
     8 LYP4       46 GROUP        1 Y    LYP  0     **** LYP Y 11
     9 ZIP7       29 GROUP        1 Y    ZIP  0     **** ZIP Y 12
    10 GLP5        3 GROUP        1 Y    GLP  0     **** GLP Y 13
    11 ALL1       10 GROUP        1 Z    ALL  0     ROOT ALL Z 15
    12 SEL2       31 GROUP        1 Z    SEL  0     **** SEL Z 16
    13 LYL4       45 GROUP        1 Z    LYL  0     **** LYL Z 18
    14 ZIL7       28 GROUP        1 Z    ZIL  0     **** ZIL Z 19
    15 GLL5        2 GROUP        1 Z    GLL  0     **** GLL Z 20
@<TRIPOS>SET

