#    Name: 3duf_R1T_3_ligand
#    Modification time : Tue Mar 25 00:22:18 2014

@<TRIPOS>MOLECULE
3duf_R1T_3_ligand
   49    50     1     0     0
SMALL
NO_CHARGES


@<TRIPOS>ATOM
      1 N1'        -0.3320  -63.3660  -20.6180 N.ar      1 R1T1370     0.0000 
      2 C2'         0.6310  -62.6240  -20.1130 C.ar      1 R1T1370     0.0000 
      3 CM2         0.3750  -61.3380  -19.7680 C.3       1 R1T1370     0.0000 
      4 N3'         1.8320  -63.0970  -19.9330 N.ar      1 R1T1370     0.0000 
      5 C4'         2.0950  -64.3380  -20.2620 C.ar      1 R1T1370     0.0000 
      6 N4'         3.3030  -64.7750  -20.0710 N.pl3     1 R1T1370     0.0000 
      7 C5'         1.1410  -65.1900  -20.8020 C.ar      1 R1T1370     0.0000 
      8 C6'        -0.1030  -64.6600  -20.9600 C.ar      1 R1T1370     0.0000 
      9 C7'         1.3300  -66.5240  -21.1830 C.3       1 R1T1370     0.0000 
     10 C3          2.0300  -66.7350  -22.5540 C.2       1 R1T1370     0.0000 
     11 C2          3.2670  -67.1490  -22.7090 C.2       1 R1T1370     0.0000 
     12 S1          3.5870  -67.2290  -24.0090 S.3       1 R1T1370     0.0000 
     13 C5          2.3950  -66.8220  -24.6850 C.2       1 R1T1370     0.0000 
     14 C4          1.5060  -66.5580  -23.7450 C.2       1 R1T1370     0.0000 
     15 CM4         0.0930  -66.0750  -23.9540 C.3       1 R1T1370     0.0000 
     16 C6          2.2150  -66.7220  -26.2280 C.3       1 R1T1370     0.0000 
     17 C7          2.7820  -65.3910  -26.8060 C.3       1 R1T1370     0.0000 
     18 O7          2.7710  -65.3070  -28.2060 O.3       1 R1T1370     0.0000 
     19 PA          3.8090  -64.5650  -28.9720 P.3       1 R1T1370     0.0000 
     20 O1A         3.7050  -64.7970  -30.3620 O.co2     1 R1T1370     0.0000 
     21 O2A         3.8270  -63.2780  -28.4760 O.co2     1 R1T1370     0.0000 
     22 O3A         5.1550  -65.1310  -28.6030 O.3       1 R1T1370     0.0000 
     23 PB          5.8170  -66.4150  -28.9720 P.3       1 R1T1370     0.0000 
     24 O1B         5.3260  -66.9680  -27.8180 O.co2     1 R1T1370     0.0000 
     25 O2B         7.1490  -66.0210  -29.0110 O.co2     1 R1T1370     0.0000 
     26 O3B         5.2160  -66.7930  -30.1560 O.co2     1 R1T1370     0.0000 
     27 CP1         4.2110  -67.4810  -21.5820 C.3       1 R1T1370     0.0000 
     28 CP2         4.7850  -66.1920  -21.1090 C.3       1 R1T1370     0.0000 
     29 OP1         3.4810  -67.9540  -20.4990 O.3       1 R1T1370     0.0000 
     30 H           4.0310  -64.2757  -20.5408 H         1 R1T1370     0.0000 
     31 H           3.3935  -65.5704  -19.4718 H         1 R1T1370     0.0000 
     32 H          -0.8712  -65.2433  -21.3400 H         1 R1T1370     0.0000 
     33 H           0.3614  -67.0874  -21.2396 H         1 R1T1370     0.0000 
     34 H           1.9392  -67.0943  -20.4330 H         1 R1T1370     0.0000 
     35 H           1.1538  -66.7844  -26.4642 H         1 R1T1370     0.0000 
     36 H           2.7308  -67.5578  -26.6983 H         1 R1T1370     0.0000 
     37 H           3.8121  -65.2846  -26.3847 H         1 R1T1370     0.0000 
     38 H           2.1915  -64.5701  -26.3291 H         1 R1T1370     0.0000 
     39 H           4.9653  -68.1147  -21.9046 H         1 R1T1370     0.0000 
     40 H           1.1858  -60.8842  -19.3984 H         1 R1T1370     0.0000 
     41 H           0.0680  -60.7974  -20.5513 H         1 R1T1370     0.0000 
     42 H          -0.3392  -61.2756  -19.0708 H         1 R1T1370     0.0000 
     43 H          -0.0563  -65.1752  -23.5442 H         1 R1T1370     0.0000 
     44 H          -0.1327  -65.9959  -24.9250 H         1 R1T1370     0.0000 
     45 H          -0.5761  -66.6970  -23.5473 H         1 R1T1370     0.0000 
     46 H           5.4260  -66.3260  -20.3532 H         1 R1T1370     0.0000 
     47 H           5.2832  -65.7185  -21.8354 H         1 R1T1370     0.0000 
     48 H           4.0756  -65.5665  -20.7843 H         1 R1T1370     0.0000 
     49 H           4.1369  -68.4747  -19.9525 H         1 R1T1370     0.0000 
@<TRIPOS>BOND
     1    2    1 ar   
     2    8    1 ar   
     3    3    2 1    
     4    4    2 ar   
     5   40    3 1    
     6   41    3 1    
     7   42    3 1    
     8    5    4 ar   
     9    6    5 1    
    10    7    5 ar   
    11   30    6 1    
    12   31    6 1    
    13    8    7 ar   
    14    9    7 1    
    15   32    8 1    
    16   10    9 1    
    17   33    9 1    
    18   34    9 1    
    19   11   10 2    
    20   14   10 1    
    21   12   11 1    
    22   27   11 1    
    23   13   12 1    
    24   14   13 2    
    25   16   13 1    
    26   15   14 1    
    27   43   15 1    
    28   44   15 1    
    29   45   15 1    
    30   17   16 1    
    31   35   16 1    
    32   36   16 1    
    33   18   17 1    
    34   37   17 1    
    35   38   17 1    
    36   19   18 1    
    37   20   19 ar   
    38   21   19 ar   
    39   22   19 1    
    40   23   22 1    
    41   24   23 ar   
    42   25   23 ar   
    43   26   23 ar   
    44   28   27 1    
    45   29   27 1    
    46   39   27 1    
    47   46   28 1    
    48   47   28 1    
    49   48   28 1    
    50   49   29 1    
@<TRIPOS>SUBSTRUCTURE
     1 R1T1370     1 GROUP   
@<TRIPOS>SET

