#    Name: 4fdo_0T5_1_INTS_M
#    Modification time : Mon Mar 24 19:22:21 2014

@<TRIPOS>MOLECULE
4fdo_0T5_1_INTS_M
   65     0     6     0     0
SMALL
NO_CHARGES


@<TRIPOS>ATOM
      1 N          37.8185   14.4160    6.2800 N.am      1 SEC2        0.0000 
      2 N          37.3600   15.0660    7.3690 N.am      5 SEL2        0.0000 
      3 N          38.2770   13.7660    5.1910 N.am      3 SEP2        0.0000 
      4 N          36.7845   16.3775    7.0265 N.am      1 SEC2        0.0000 
      5 N          36.2090   17.6890    6.6840 N.am      3 SEP2        0.0000 
      6 CA         39.6050   14.7185    7.0625 C.3       2 GLC5        0.0000 
      7 CA         39.7020   15.1390    9.2270 C.3       6 GLL5        0.0000 
      8 CA         39.5080   14.2980    4.8980 C.3       4 GLP5        0.0000 
      9 CA         44.1825   16.7500    9.9045 C.3       2 GLC5        0.0000 
     10 CA         42.5260   16.0990   10.6360 C.3       6 GLL5        0.0000 
     11 CA         45.8390   17.4010    9.1730 C.3       4 GLP5        0.0000 
     12 CA         42.4915   17.9350   10.9325 C.3       2 GLC5        0.0000 
     13 CA         42.4570   19.7710   11.2290 C.3       4 GLP5        0.0000 
     14 CA         40.5960   16.6830   11.4970 C.3       2 GLC5        0.0000 
     15 CA         38.6660   17.2670   12.3580 C.3       4 GLP5        0.0000 
     16 CA         43.5680   12.3340    8.8935 C.3       2 GLC5        0.0000 
     17 CA         43.0740   14.3210    9.5250 C.3       6 GLL5        0.0000 
     18 CA         44.0620   10.3470    8.2620 C.3       4 GLP5        0.0000 
     19 CA         44.7625   13.9155   10.4020 C.3       2 GLC5        0.0000 
     20 CA         46.4510   13.5100   11.2790 C.3       4 GLP5        0.0000 
     21 CA         41.7740   12.0660   11.4025 C.3       2 GLC5        0.0000 
     22 CA         40.6260   13.6700   10.8950 C.3       6 GLL5        0.0000 
     23 CA         42.9220   10.4620   11.9100 C.3       4 GLP5        0.0000 
     24 CA         37.7480   15.2480   11.5720 C.3       2 GLC5        0.0000 
     25 CA         38.2600   13.5950   10.4080 C.3       6 GLL5        0.0000 
     26 CA         37.2360   16.9010   12.7360 C.3       4 GLP5        0.0000 
     27 CA         35.4965    7.9885   12.1405 C.3       2 GLC5        0.0000 
     28 CA         36.3160    9.6650   12.7370 C.3       6 GLL5        0.0000 
     29 CA         34.6770    6.3120   11.5440 C.3       4 GLP5        0.0000 
     30 CA         35.3810    9.6705   11.0940 C.3       2 GLC5        0.0000 
     31 CA         34.4460    9.6760    9.4510 C.3       4 GLP5        0.0000 
     32 CA         39.9385   11.7725   17.0710 C.3       2 GLC5        0.0000 
     33 CA         38.0910   11.1720   16.7890 C.3       6 GLL5        0.0000 
     34 CA         41.7860   12.3730   17.3530 C.3       4 GLP5        0.0000 
     35 CA         38.6650    8.6940   14.7355 C.3       2 GLC5        0.0000 
     36 CA         38.2150   10.5810   15.5320 C.3       6 GLL5        0.0000 
     37 CA         39.1150    6.8070   13.9390 C.3       4 GLP5        0.0000 
     38 CA         38.8685   16.0678   10.8528 C.3       2 GLC5        0.0000 
     39 CA         38.4400   14.5980    9.4680 C.3       6 GLL5        0.0000 
     40 CA         43.4177   14.6510    7.6063 C.3       2 GLC5        0.0000 
     41 CA         42.1620   15.2790    9.6590 C.3       6 GLL5        0.0000 
     42 CA         44.2400   14.3310    5.9030 C.3       4 GLP5        0.0000 
     43 CA         43.8503   16.2160    8.5708 C.3       2 GLC5        0.0000 
     44 CA         45.1050   17.4610    7.8320 C.3       4 GLP5        0.0000 
     45 CA         42.4642   14.5933   11.9196 C.3       2 GLC5        0.0000 
     46 CA         42.3890   14.2570   13.9680 C.3       4 GLP5        0.0000 
     47 CA         41.1895   13.8283   12.4890 C.3       2 GLC5        0.0000 
     48 CA         39.3504   15.4590   11.5645 C.3       2 GLC5        0.0000 
     49 CA         38.2390    9.0915   12.3890 C.3       2 GLC5        0.0000 
     50 CA         37.5980   10.4130   13.1270 C.3       6 GLL5        0.0000 
     51 CA         39.5210    8.1440   11.8460 C.3       4 GLP5        0.0000 
     52 CA         36.8758   14.1705   14.5702 C.3       2 GLC5        0.0000 
     53 CA         36.5690   12.1150   14.6330 C.3       6 GLL5        0.0000 
     54 CA         37.2420   15.9320   13.8800 C.3       4 GLP5        0.0000 
     55 CA         38.5768   13.3377   15.9058 C.3       2 GLC5        0.0000 
     56 CA         36.4500   12.7030   15.8880 C.3       6 GLL5        0.0000 
     57 CA         40.3250   14.2050   15.3850 C.3       4 GLP5        0.0000 
     58 CA         35.1877   13.2628   17.4917 C.3       2 GLC5        0.0000 
     59 CA         37.2070   12.2380   16.9650 C.3       6 GLL5        0.0000 
     60 CA         33.5470   14.0550   18.5570 C.3       4 GLP5        0.0000 
     61 CA         37.7780   11.3200   18.7180 C.3       2 GLC5        0.0000 
     62 CA         37.9070   10.9350   20.5590 C.3       4 GLP5        0.0000 
     63 CA         38.4960    9.0922   16.8873 C.3       2 GLC5        0.0000 
     64 CA         38.8390    7.3080   17.6140 C.3       4 GLP5        0.0000 
     65 CA         38.9691   12.6436   15.2119 C.3       2 GLC5        0.0000 
@<TRIPOS>BOND
@<TRIPOS>SUBSTRUCTURE
     1 SEC2        1 GROUP        1 X    SEC  0     ROOT SEC X 2
     2 GLC5        6 GROUP        1 X    GLC  0     **** GLC X 6
     3 SEP2        3 GROUP        1 Y    SEP  0     ROOT SEP Y 9
     4 GLP5        8 GROUP        1 Y    GLP  0     **** GLP Y 13
     5 SEL2        2 GROUP        1 Z    SEL  0     ROOT SEL Z 16
     6 GLL5        7 GROUP        1 Z    GLL  0     **** GLL Z 20
@<TRIPOS>SET

