#    Name: 4fdo_0T5_1_ligand
#    Modification time : Mon Mar 24 19:22:21 2014

@<TRIPOS>MOLECULE
4fdo_0T5_1_ligand
   37    38     1     0     0
SMALL
NO_CHARGES


@<TRIPOS>ATOM
      1 O38        36.2040   15.4720    9.4390 O.2       1 0T5901      0.0000 
      2 N8         37.3320   15.0520    8.7580 N.pl3     1 0T5901      0.0000 
      3 O10        37.3600   15.0660    7.3690 O.2       1 0T5901      0.0000 
      4 C2         38.4400   14.5980    9.4680 C.ar      1 0T5901      0.0000 
      5 C1         39.7020   15.1390    9.2270 C.ar      1 0T5901      0.0000 
      6 C6         40.8050   14.6760    9.9390 C.ar      1 0T5901      0.0000 
      7 C7         42.1620   15.2790    9.6590 C.3       1 0T5901      0.0000 
      8 F28        42.0720   15.9630    8.5290 F         1 0T5901      0.0000 
      9 F27        42.5260   16.0990   10.6360 F         1 0T5901      0.0000 
     10 F29        43.0740   14.3210    9.5250 F         1 0T5901      0.0000 
     11 C5         40.6260   13.6700   10.8950 C.ar      1 0T5901      0.0000 
     12 C3         38.2600   13.5950   10.4080 C.ar      1 0T5901      0.0000 
     13 C4         39.3540   13.1290   11.1250 C.ar      1 0T5901      0.0000 
     14 C14        39.1270   12.0350   12.1310 C.2       1 0T5901      0.0000 
     15 O15        40.0080   11.7290   12.9140 O.2       1 0T5901      0.0000 
     16 N13        37.9500   11.4100   12.1250 N.am      1 0T5901      0.0000 
     17 C12        37.5980   10.4130   13.1270 C.3       1 0T5901      0.0000 
     18 C13        36.3160    9.6650   12.7370 C.3       1 0T5901      0.0000 
     19 C20        37.4540   11.0520   14.4580 C.ar      1 0T5901      0.0000 
     20 C25        36.5690   12.1150   14.6330 C.ar      1 0T5901      0.0000 
     21 C24        36.4500   12.7030   15.8880 C.ar      1 0T5901      0.0000 
     22 C23        37.2070   12.2380   16.9650 C.ar      1 0T5901      0.0000 
     23 C22        38.0910   11.1720   16.7890 C.ar      1 0T5901      0.0000 
     24 C21        38.2150   10.5810   15.5320 C.ar      1 0T5901      0.0000 
     25 H          39.8171   15.8792    8.5239 H         1 0T5901      0.0000 
     26 H          41.4316   13.3253   11.4321 H         1 0T5901      0.0000 
     27 H          37.3285   13.2005   10.5729 H         1 0T5901      0.0000 
     28 H          37.2227   11.6037   11.4027 H         1 0T5901      0.0000 
     29 H          38.3996    9.6649   13.1887 H         1 0T5901      0.0000 
     30 H          36.0134   12.4580   13.8456 H         1 0T5901      0.0000 
     31 H          35.7974   13.4896   16.0265 H         1 0T5901      0.0000 
     32 H          37.1135   12.6802   17.8868 H         1 0T5901      0.0000 
     33 H          38.6444   10.8268   17.5780 H         1 0T5901      0.0000 
     34 H          38.8658    9.7987   15.3935 H         1 0T5901      0.0000 
     35 H          36.4149    9.1893   11.8630 H         1 0T5901      0.0000 
     36 H          36.0654    8.9773   13.4183 H         1 0T5901      0.0000 
     37 H          35.5370   10.2854   12.6465 H         1 0T5901      0.0000 
@<TRIPOS>BOND
     1    2    1 2    
     2    3    2 2    
     3    4    2 1    
     4    5    4 ar   
     5   12    4 ar   
     6    6    5 ar   
     7   25    5 1    
     8    7    6 1    
     9   11    6 ar   
    10    8    7 1    
    11    9    7 1    
    12   10    7 1    
    13   13   11 ar   
    14   26   11 1    
    15   13   12 ar   
    16   27   12 1    
    17   14   13 1    
    18   15   14 2    
    19   16   14 am   
    20   17   16 1    
    21   28   16 1    
    22   18   17 1    
    23   19   17 1    
    24   29   17 1    
    25   35   18 1    
    26   36   18 1    
    27   37   18 1    
    28   20   19 ar   
    29   24   19 ar   
    30   21   20 ar   
    31   30   20 1    
    32   22   21 ar   
    33   31   21 1    
    34   23   22 ar   
    35   32   22 1    
    36   24   23 ar   
    37   33   23 1    
    38   34   24 1    
@<TRIPOS>SUBSTRUCTURE
     1 0T5901      1 GROUP   
@<TRIPOS>SET

