#    Name: 2oo5_TXD_2_INTS_M
#    Modification time : Mon Mar 24 17:42:33 2014

@<TRIPOS>MOLECULE
2oo5_TXD_2_INTS_M
   89     0    12     0     0
SMALL
NO_CHARGES


@<TRIPOS>ATOM
      1 N          60.1170   52.1405  137.9505 N.am      2 SEC2        0.0000 
      2 N          59.5190   51.0830  137.1460 N.am     10 SEL2        0.0000 
      3 N          60.7150   53.1980  138.7550 N.am      6 SEP2        0.0000 
      4 O          58.9710   48.4075  139.5650 O.2       1 ALC1        0.0000 
      5 O          59.1590   49.9950  139.0470 O.2       9 ALL1        0.0000 
      6 O          58.7830   46.8200  140.0830 O.2       5 ALP1        0.0000 
      7 CA         57.2570   46.9055  138.0935 C.3       4 GLC5        0.0000 
      8 CA         56.7560   48.8620  137.7810 C.3      12 GLL5        0.0000 
      9 CA         57.7580   44.9490  138.4060 C.3       8 GLP5        0.0000 
     10 CA         59.7950   49.6820  135.3625 C.3       4 GLC5        0.0000 
     11 CA         57.7660   49.4450  135.5670 C.3      12 GLL5        0.0000 
     12 CA         61.8240   49.9190  135.1580 C.3       8 GLP5        0.0000 
     13 CA         57.6050   48.1465  133.0480 C.3       4 GLC5        0.0000 
     14 CA         56.6530   48.7150  134.9980 C.3      12 GLL5        0.0000 
     15 CA         58.5570   47.5780  131.0980 C.3       8 GLP5        0.0000 
     16 CA         56.2380   46.2465  138.1630 C.3       4 GLC5        0.0000 
     17 CA         54.7180   47.5440  137.9200 C.3      12 GLL5        0.0000 
     18 O          51.6985   46.0445  140.0450 O.2       1 ALC1        0.0000 
     19 O          52.2440   47.1730  139.6080 O.2       9 ALL1        0.0000 
     20 O          51.1530   44.9160  140.4820 O.2       5 ALP1        0.0000 
     21 CA         55.2780   44.7540  137.7700 C.3       4 GLC5        0.0000 
     22 CA         53.2840   45.7320  137.9530 C.3      12 GLL5        0.0000 
     23 CA         57.2720   43.7760  137.5870 C.3       8 GLP5        0.0000 
     24 CA         52.9720   42.8740  136.8365 C.3       4 GLC5        0.0000 
     25 CA         52.6920   44.8150  136.8800 C.3      12 GLL5        0.0000 
     26 CA         53.2520   40.9330  136.7930 C.3       8 GLP5        0.0000 
     27 N          51.4195   47.1150  132.7890 N.am      2 SEC2        0.0000 
     28 N          51.6900   45.7460  133.2640 N.am     10 SEL2        0.0000 
     29 N          51.1490   48.4840  132.3140 N.am      6 SEP2        0.0000 
     30 NZ         54.5955   43.8695  134.2120 N.4       3 LYC4        0.0000 
     31 NZ         52.8150   43.5420  134.0500 N.4      11 LYL4        0.0000 
     32 NZ         56.3760   44.1970  134.3740 N.4       7 LYP4        0.0000 
     33 N          47.2090   41.7625  133.7620 N.am      2 SEC2        0.0000 
     34 N          48.3430   43.0020  134.2120 N.am     10 SEL2        0.0000 
     35 N          46.0750   40.5230  133.3120 N.am      6 SEP2        0.0000 
     36 CA         45.1400   45.6600  133.9540 C.3       4 GLC5        0.0000 
     37 CA         46.8160   44.8340  134.6430 C.3      12 GLL5        0.0000 
     38 CA         43.4640   46.4860  133.2650 C.3       8 GLP5        0.0000 
     39 N          47.9165   46.6145  137.9280 N.am      2 SEC2        0.0000 
     40 N          47.4290   46.4760  136.2990 N.am     10 SEL2        0.0000 
     41 N          48.4040   46.7530  139.5570 N.am      6 SEP2        0.0000 
     42 N          48.2815   47.4970  137.2805 N.am      2 SEC2        0.0000 
     43 N          49.1340   48.5180  138.2620 N.am      6 SEP2        0.0000 
     44 O          46.2145   47.0575  136.4685 O.2       1 ALC1        0.0000 
     45 O          47.4290   46.4760  136.2990 O.2       9 ALL1        0.0000 
     46 O          45.0000   47.6390  136.6380 O.2       5 ALP1        0.0000 
     47 N          47.2580   45.9330  138.8535 N.am      2 SEC2        0.0000 
     48 N          46.1120   45.1130  138.1500 N.am     10 SEL2        0.0000 
     49 O          45.1470   45.9400  138.3095 O.2       1 ALC1        0.0000 
     50 O          46.1120   45.1130  138.1500 O.2       9 ALL1        0.0000 
     51 O          44.1820   46.7670  138.4690 O.2       5 ALP1        0.0000 
     52 O          45.5560   46.3760  137.3940 O.2       1 ALC1        0.0000 
     53 CA         44.3120   45.3525  134.6845 C.3       4 GLC5        0.0000 
     54 CA         45.1600   44.2190  136.1040 C.3      12 GLL5        0.0000 
     55 CA         44.1260   43.1235  134.6690 C.3       4 GLC5        0.0000 
     56 CA         43.0920   42.0280  133.2340 C.3       8 GLP5        0.0000 
     57 CA         43.0895   43.6000  138.5865 C.3       4 GLC5        0.0000 
     58 CA         42.9060   43.2890  136.5790 C.3      12 GLL5        0.0000 
     59 CA         43.2730   43.9110  140.5940 C.3       8 GLP5        0.0000 
     60 CA         41.1480   46.0280  137.0075 C.3       4 GLC5        0.0000 
     61 CA         40.7470   44.2390  136.5210 C.3      12 GLL5        0.0000 
     62 CA         41.5490   47.8170  137.4940 C.3       8 GLP5        0.0000 
     63 CA         40.7575   43.9535  138.4475 C.3       4 GLC5        0.0000 
     64 CA         40.7680   43.6680  140.3740 C.3       8 GLP5        0.0000 
     65 CA         40.2060   43.3895  134.7745 C.3       4 GLC5        0.0000 
     66 CA         39.6650   42.5400  133.0280 C.3       8 GLP5        0.0000 
     67 N          38.7985   43.7155  137.0570 N.am      2 SEC2        0.0000 
     68 N          40.1680   43.0780  136.8860 N.am     10 SEL2        0.0000 
     69 N          37.4290   44.3530  137.2280 N.am      6 SEP2        0.0000 
     70 CA         39.6975   41.4955  135.8685 C.3       4 GLC5        0.0000 
     71 CA         40.9100   41.9700  137.1250 C.3      12 GLL5        0.0000 
     72 CA         38.4850   41.0210  134.6120 C.3       8 GLP5        0.0000 
     73 CA         55.1560   48.4305  133.9280 C.3       4 GLC5        0.0000 
     74 CA         55.7090   48.1170  135.8080 C.3      12 GLL5        0.0000 
     75 CA         54.1310   48.4450  132.4530 C.3       8 GLP5        0.0000 
     76 CA         52.9133   45.6295  140.0677 C.3       4 GLC5        0.0000 
     77 CA         52.9510   44.8930  142.0560 C.3       8 GLP5        0.0000 
     78 CA         45.8398   43.2750  133.3035 C.3       4 GLC5        0.0000 
     79 CA         44.3810   42.0380  132.4550 C.3       8 GLP5        0.0000 
     80 CA         48.3004   46.4363  134.4380 C.3       4 GLC5        0.0000 
     81 CA         49.2650   48.0820  133.7770 C.3       8 GLP5        0.0000 
     82 CA         45.9378   43.0650  138.1540 C.3       4 GLC5        0.0000 
     83 CA         46.3990   44.3630  136.9720 C.3      12 GLL5        0.0000 
     84 CA         46.0960   41.8390  139.7700 C.3       8 GLP5        0.0000 
     85 CA         41.2065   42.8440  138.7083 C.3       4 GLC5        0.0000 
     86 CA         42.3800   42.0700  136.9600 C.3      12 GLL5        0.0000 
     87 CA         42.4342   42.1764  135.0906 C.3       4 GLC5        0.0000 
     88 CA         41.6855   40.3885  135.9708 C.3       4 GLC5        0.0000 
     89 CA         41.7260   38.7570  134.8990 C.3       8 GLP5        0.0000 
@<TRIPOS>BOND
@<TRIPOS>SUBSTRUCTURE
     1 ALC1        4 GROUP        1 X    ALC  0     ROOT ALC X 1
     2 SEC2        1 GROUP        1 X    SEC  0     **** SEC X 2
     3 LYC4       30 GROUP        1 X    LYC  0     **** LYC X 4
     4 GLC5        7 GROUP        1 X    GLC  0     **** GLC X 6
     5 ALP1        6 GROUP        1 Y    ALP  0     ROOT ALP Y 8
     6 SEP2        3 GROUP        1 Y    SEP  0     **** SEP Y 9
     7 LYP4       32 GROUP        1 Y    LYP  0     **** LYP Y 11
     8 GLP5        9 GROUP        1 Y    GLP  0     **** GLP Y 13
     9 ALL1        5 GROUP        1 Z    ALL  0     ROOT ALL Z 15
    10 SEL2        2 GROUP        1 Z    SEL  0     **** SEL Z 16
    11 LYL4       31 GROUP        1 Z    LYL  0     **** LYL Z 18
    12 GLL5        8 GROUP        1 Z    GLL  0     **** GLL Z 20
@<TRIPOS>SET

