#    Name: 2oo5_TXD_2_ligand
#    Modification time : Mon Mar 24 17:42:33 2014

@<TRIPOS>MOLECULE
2oo5_TXD_2_ligand
   70    74     1     0     0
SMALL
NO_CHARGES


@<TRIPOS>ATOM
      1 O7N        59.5190   51.0830  137.1460 O.2       1 TXD600      0.0000 
      2 C7N        58.8830   50.2450  137.7690 C.2       1 TXD600      0.0000 
      3 N7N        59.1590   49.9950  139.0470 N.am      1 TXD600      0.0000 
      4 C3N        57.7710   49.4980  137.0740 C.ar      1 TXD600      0.0000 
      5 C2N        56.7560   48.8620  137.7810 C.ar      1 TXD600      0.0000 
      6 C4N        57.7660   49.4450  135.5670 C.ar      1 TXD600      0.0000 
      7 C5N        56.6530   48.7150  134.9980 C.ar      1 TXD600      0.0000 
      8 C6N        55.7090   48.1170  135.8080 C.ar      1 TXD600      0.0000 
      9 N1N        55.7690   48.2010  137.1430 N.pl3     1 TXD600      0.0000 
     10 C1'A       54.7180   47.5440  137.9200 C.3       1 TXD600      0.0000 
     11 O4'A       54.6020   46.1610  137.5840 O.3       1 TXD600      0.0000 
     12 C2'A       53.3320   48.1160  137.6630 C.3       1 TXD600      0.0000 
     13 O2'A       53.1420   49.3770  138.3010 O.3       1 TXD600      0.0000 
     14 C3'A       52.4670   47.0000  138.2060 C.3       1 TXD600      0.0000 
     15 O3'A       52.2440   47.1730  139.6080 O.3       1 TXD600      0.0000 
     16 C4'A       53.2840   45.7320  137.9530 C.3       1 TXD600      0.0000 
     17 C5'A       52.6920   44.8150  136.8800 C.3       1 TXD600      0.0000 
     18 O5'A       52.4670   45.5030  135.6490 O.3       1 TXD600      0.0000 
     19 PN         51.9280   44.7200  134.3400 P.3       1 TXD600      0.0000 
     20 O1N        51.6900   45.7460  133.2640 O.co2     1 TXD600      0.0000 
     21 O2N        52.8150   43.5420  134.0500 O.co2     1 TXD600      0.0000 
     22 O3         50.5060   44.1230  134.7960 O.3       1 TXD600      0.0000 
     23 PA         49.9320   42.7610  134.1500 P.3       1 TXD600      0.0000 
     24 O2P        50.2610   41.6140  135.0750 O.co2     1 TXD600      0.0000 
     25 O1P        50.3300   42.6720  132.6980 O.co2     1 TXD600      0.0000 
     26 O5'        48.3430   43.0020  134.2120 O.3       1 TXD600      0.0000 
     27 C5'        47.7810   44.1900  133.6610 C.3       1 TXD600      0.0000 
     28 C4'        46.8160   44.8340  134.6430 C.3       1 TXD600      0.0000 
     29 C3'        47.3730   45.0690  136.0460 C.3       1 TXD600      0.0000 
     30 O3'        47.4290   46.4760  136.2990 O.3       1 TXD600      0.0000 
     31 C2'        46.3990   44.3630  136.9720 C.3       1 TXD600      0.0000 
     32 O2'        46.1120   45.1130  138.1500 O.3       1 TXD600      0.0000 
     33 C1'        45.1600   44.2190  136.1040 C.3       1 TXD600      0.0000 
     34 O4'        45.6740   43.9970  134.7990 O.3       1 TXD600      0.0000 
     35 N9A        44.2280   43.1350  136.4990 N.pl3     1 TXD600      0.0000 
     36 C4A        42.9060   43.2890  136.5790 C.ar      1 TXD600      0.0000 
     37 N3A        42.0810   44.3490  136.3630 N.ar      1 TXD600      0.0000 
     38 C2A        40.7470   44.2390  136.5210 C.ar      1 TXD600      0.0000 
     39 N1A        40.1680   43.0780  136.8860 N.ar      1 TXD600      0.0000 
     40 C6A        40.9100   41.9700  137.1250 C.ar      1 TXD600      0.0000 
     41 N6A        40.3390   40.7980  137.4990 N.pl3     1 TXD600      0.0000 
     42 C5A        42.3800   42.0700  136.9600 C.ar      1 TXD600      0.0000 
     43 N7A        43.3990   41.2030  137.0960 N.2       1 TXD600      0.0000 
     44 C8A        44.5330   41.8680  136.8060 C.2       1 TXD600      0.0000 
     45 H          59.9338   50.4938  139.4356 H         1 TXD600      0.0000 
     46 H          58.5667   49.3309  139.5033 H         1 TXD600      0.0000 
     47 H          56.7752   48.9079  138.8234 H         1 TXD600      0.0000 
     48 H          58.4564   49.8692  135.0550 H         1 TXD600      0.0000 
     49 H          56.5909   48.6580  133.9740 H         1 TXD600      0.0000 
     50 H          54.9282   47.5849  135.3470 H         1 TXD600      0.0000 
     51 H          54.9091   47.6417  138.9850 H         1 TXD600      0.0000 
     52 H          53.1995   48.1410  136.5983 H         1 TXD600      0.0000 
     53 H          51.5784   46.9442  137.6381 H         1 TXD600      0.0000 
     54 H          53.3308   45.1803  138.8925 H         1 TXD600      0.0000 
     55 H          51.7542   44.3923  137.2859 H         1 TXD600      0.0000 
     56 H          53.3881   43.9658  136.7489 H         1 TXD600      0.0000 
     57 H          47.2275   43.9836  132.7315 H         1 TXD600      0.0000 
     58 H          48.5582   44.9313  133.4177 H         1 TXD600      0.0000 
     59 H          46.5031   45.7995  134.2442 H         1 TXD600      0.0000 
     60 H          48.3180   44.5920  136.1081 H         1 TXD600      0.0000 
     61 H          46.7739   43.3841  137.1657 H         1 TXD600      0.0000 
     62 H          44.6429   45.1813  136.1219 H         1 TXD600      0.0000 
     63 H          40.1393   45.0851  136.3543 H         1 TXD600      0.0000 
     64 H          40.9662   40.0392  137.6745 H         1 TXD600      0.0000 
     65 H          39.3413   40.7963  137.5662 H         1 TXD600      0.0000 
     66 H          45.4266   41.4862  136.8187 H         1 TXD600      0.0000 
     67 H          52.8514   49.1549  139.2317 H         1 TXD600      0.0000 
     68 H          51.4522   46.5989  139.8167 H         1 TXD600      0.0000 
     69 H          46.4776   46.7525  136.4346 H         1 TXD600      0.0000 
     70 H          45.2857   45.6320  137.9313 H         1 TXD600      0.0000 
@<TRIPOS>BOND
     1    2    1 2    
     2    3    2 am   
     3    4    2 1    
     4   45    3 1    
     5   46    3 1    
     6    5    4 ar   
     7    6    4 ar   
     8    9    5 ar   
     9   47    5 1    
    10    7    6 ar   
    11   48    6 1    
    12    8    7 ar   
    13   49    7 1    
    14    9    8 ar   
    15   50    8 1    
    16   10    9 1    
    17   11   10 1    
    18   12   10 1    
    19   51   10 1    
    20   16   11 1    
    21   13   12 1    
    22   14   12 1    
    23   52   12 1    
    24   67   13 1    
    25   15   14 1    
    26   16   14 1    
    27   53   14 1    
    28   68   15 1    
    29   17   16 1    
    30   54   16 1    
    31   18   17 1    
    32   55   17 1    
    33   56   17 1    
    34   19   18 1    
    35   20   19 ar   
    36   21   19 ar   
    37   22   19 1    
    38   23   22 1    
    39   24   23 ar   
    40   25   23 ar   
    41   26   23 1    
    42   27   26 1    
    43   28   27 1    
    44   57   27 1    
    45   58   27 1    
    46   29   28 1    
    47   34   28 1    
    48   59   28 1    
    49   30   29 1    
    50   31   29 1    
    51   60   29 1    
    52   69   30 1    
    53   32   31 1    
    54   33   31 1    
    55   61   31 1    
    56   70   32 1    
    57   34   33 1    
    58   35   33 1    
    59   62   33 1    
    60   36   35 1    
    61   44   35 1    
    62   37   36 ar   
    63   42   36 ar   
    64   38   37 ar   
    65   39   38 ar   
    66   63   38 1    
    67   40   39 ar   
    68   41   40 1    
    69   42   40 ar   
    70   64   41 1    
    71   65   41 1    
    72   43   42 1    
    73   44   43 2    
    74   66   44 1    
@<TRIPOS>SUBSTRUCTURE
     1 TXD600      1 GROUP   
@<TRIPOS>SET

