#    Name: 4j1k_1HG_1_INTS_M
#    Modification time : Tue Mar 25 05:02:43 2014

@<TRIPOS>MOLECULE
4j1k_1HG_1_INTS_M
   66     0     6     0     0
SMALL
NO_CHARGES


@<TRIPOS>ATOM
      1 CA        -15.6765  -40.5130   -5.3120 C.3       2 GLC5        0.0000 
      2 CA        -15.0100  -40.3360   -7.4330 C.3       6 GLL5        0.0000 
      3 CA        -16.3430  -40.6900   -3.1910 C.3       4 GLP5        0.0000 
      4 O         -15.0585  -38.8470   -6.1040 O.2       1 ALC1        0.0000 
      5 O         -15.7230  -39.2590   -7.6490 O.2       5 ALL1        0.0000 
      6 O         -14.3940  -38.4350   -4.5590 O.2       3 ALP1        0.0000 
      7 O         -15.5130  -38.2470   -6.9090 O.2       1 ALC1        0.0000 
      8 O         -15.3030  -37.2350   -6.1690 O.2       3 ALP1        0.0000 
      9 CA        -18.4200  -38.4130  -12.1305 C.3       2 GLC5        0.0000 
     10 CA        -18.7790  -38.9220  -10.6080 C.3       6 GLL5        0.0000 
     11 CA        -18.0610  -37.9040  -13.6530 C.3       4 GLP5        0.0000 
     12 CA        -19.7760  -37.5920  -10.8410 C.3       2 GLC5        0.0000 
     13 CA        -20.7730  -36.2620  -11.0740 C.3       4 GLP5        0.0000 
     14 O         -14.2800  -39.4590   -5.4695 O.2       1 ALC1        0.0000 
     15 O         -14.1660  -40.4830   -6.3800 O.2       5 ALL1        0.0000 
     16 O         -14.7345  -38.8590   -6.2745 O.2       1 ALC1        0.0000 
     17 O         -13.4110  -41.5455   -5.8235 O.2       1 ALC1        0.0000 
     18 O         -12.6560  -42.6080   -5.2670 O.2       3 ALP1        0.0000 
     19 CA        -14.7660  -36.9215   -8.8205 C.3       2 GLC5        0.0000 
     20 CA        -16.4830  -37.8220   -9.4630 C.3       6 GLL5        0.0000 
     21 CA        -13.0490  -36.0210   -8.1780 C.3       4 GLP5        0.0000 
     22 CA        -16.6730  -37.6455  -11.2540 C.3       2 GLC5        0.0000 
     23 CA        -16.8630  -37.4690  -13.0450 C.3       4 GLP5        0.0000 
     24 CA        -18.1740  -36.9360   -8.4735 C.3       2 GLC5        0.0000 
     25 CA        -19.8650  -36.0500   -7.4840 C.3       4 GLP5        0.0000 
     26 O         -18.5515  -41.5650   -5.3225 O.2       1 ALC1        0.0000 
     27 O         -19.8850  -41.0220   -5.7260 O.2       5 ALL1        0.0000 
     28 O         -17.2180  -42.1080   -4.9190 O.2       3 ALP1        0.0000 
     29 CA        -20.4330  -40.0020   -4.0375 C.3       2 GLC5        0.0000 
     30 CA        -20.9120  -42.1750   -3.9150 C.3       6 GLL5        0.0000 
     31 CA        -19.9540  -37.8290   -4.1600 C.3       4 GLP5        0.0000 
     32 CA        -17.9720  -41.5855   -2.5895 C.3       2 GLC5        0.0000 
     33 CA        -19.6010  -42.4810   -1.9880 C.3       6 GLL5        0.0000 
     34 CA        -17.9200  -43.5025   -2.8520 C.3       2 GLC5        0.0000 
     35 CA        -16.2390  -44.5240   -3.7160 C.3       4 GLP5        0.0000 
     36 CA        -23.7845  -42.5290   -4.5060 C.3       2 GLC5        0.0000 
     37 CA        -21.8910  -43.1200   -3.5370 C.3       6 GLL5        0.0000 
     38 CA        -25.6780  -41.9380   -5.4750 C.3       4 GLP5        0.0000 
     39 CA        -18.8285  -44.5525    0.8850 C.3       2 GLC5        0.0000 
     40 CA        -20.2890  -44.0520   -0.2370 C.3       6 GLL5        0.0000 
     41 CA        -17.3680  -45.0530    2.0070 C.3       4 GLP5        0.0000 
     42 CA        -14.8840  -40.7980  -12.1920 C.3       2 GLC5        0.0000 
     43 CA        -14.0010  -42.1130  -10.6220 C.3       6 GLL5        0.0000 
     44 CA        -15.7670  -39.4830  -13.7620 C.3       4 GLP5        0.0000 
     45 CA        -15.8590  -40.9850  -12.5995 C.3       2 GLC5        0.0000 
     46 CA        -15.9510  -42.4870  -11.4370 C.3       6 GLL5        0.0000 
     47 CA        -19.0143  -37.9535   -7.6792 C.3       2 GLC5        0.0000 
     48 CA        -18.0130  -39.5880   -8.4830 C.3       6 GLL5        0.0000 
     49 CA        -19.4695  -39.0615   -5.6405 C.3       2 GLC5        0.0000 
     50 CA        -18.3140  -40.1260   -7.2660 C.3       6 GLL5        0.0000 
     51 CA        -20.0218  -38.2287   -7.4648 C.3       2 GLC5        0.0000 
     52 CA        -19.6560  -40.4620   -6.9760 C.3       6 GLL5        0.0000 
     53 CA        -19.5579  -37.6576   -8.7127 C.3       2 GLC5        0.0000 
     54 CA        -20.3870  -39.8100   -9.1520 C.3       6 GLL5        0.0000 
     55 CA        -19.2570  -45.4163   -1.2408 C.3       2 GLC5        0.0000 
     56 CA        -20.5070  -43.4290   -1.5220 C.3       6 GLL5        0.0000 
     57 CA        -18.1160  -47.0920   -1.6020 C.3       4 GLP5        0.0000 
     58 CA        -23.5670  -43.0775   -2.1643 C.3       2 GLC5        0.0000 
     59 CA        -21.6610  -43.7540   -2.3080 C.3       6 GLL5        0.0000 
     60 CA        -25.3580  -42.7180   -1.4060 C.3       4 GLP5        0.0000 
     61 CA        -21.8571  -42.1834   -1.4730 C.3       2 GLC5        0.0000 
     62 CA        -22.1830  -41.1660    0.0710 C.3       4 GLP5        0.0000 
     63 CA        -21.1773  -42.3347   -0.4625 C.3       2 GLC5        0.0000 
     64 CA        -15.6657  -39.0025  -11.4820 C.3       2 GLC5        0.0000 
     65 CA        -16.1220  -40.2010   -9.8920 C.3       6 GLL5        0.0000 
     66 CA        -15.7180  -38.2420  -13.1030 C.3       4 GLP5        0.0000 
@<TRIPOS>BOND
@<TRIPOS>SUBSTRUCTURE
     1 ALC1        4 GROUP        1 X    ALC  0     ROOT ALC X 1
     2 GLC5        1 GROUP        1 X    GLC  0     **** GLC X 6
     3 ALP1        6 GROUP        1 Y    ALP  0     ROOT ALP Y 8
     4 GLP5        3 GROUP        1 Y    GLP  0     **** GLP Y 13
     5 ALL1        5 GROUP        1 Z    ALL  0     ROOT ALL Z 15
     6 GLL5        2 GROUP        1 Z    GLL  0     **** GLL Z 20
@<TRIPOS>SET

