#    Name: 4j1k_1HG_1_ligand
#    Modification time : Tue Mar 25 05:02:43 2014

@<TRIPOS>MOLECULE
4j1k_1HG_1_ligand
   46    48     1     0     0
SMALL
NO_CHARGES


@<TRIPOS>ATOM
      1 C1        -15.9580  -41.5740   -9.2490 C.3       1 1HG504      0.0000 
      2 C2        -16.1220  -40.2010   -9.8920 C.3       1 1HG504      0.0000 
      3 O3        -15.0300  -41.4230   -8.1630 O.3       1 1HG504      0.0000 
      4 C4        -15.0100  -40.3360   -7.4330 C.2       1 1HG504      0.0000 
      5 N5        -15.7230  -39.2590   -7.6490 N.pl3     1 1HG504      0.0000 
      6 C6        -16.6000  -39.2070   -8.8240 C.3       1 1HG504      0.0000 
      7 C7        -18.0130  -39.5880   -8.4830 C.ar      1 1HG504      0.0000 
      8 C8        -18.3140  -40.1260   -7.2660 C.ar      1 1HG504      0.0000 
      9 C9        -19.6560  -40.4620   -6.9760 C.ar      1 1HG504      0.0000 
     10 C10       -20.7010  -40.3530   -7.9150 C.ar      1 1HG504      0.0000 
     11 C11       -20.3870  -39.8100   -9.1520 C.ar      1 1HG504      0.0000 
     12 C12       -19.0580  -39.4070   -9.3980 C.ar      1 1HG504      0.0000 
     13 F13       -18.7790  -38.9220  -10.6080 F         1 1HG504      0.0000 
     14 N14       -14.1660  -40.4830   -6.3800 N.pl3     1 1HG504      0.0000 
     15 C15       -16.4830  -37.8220   -9.4630 C.3       1 1HG504      0.0000 
     16 N16       -19.8850  -41.0220   -5.7260 N.am      1 1HG504      0.0000 
     17 C17       -21.0230  -41.5310   -5.2280 C.2       1 1HG504      0.0000 
     18 C18       -20.9120  -42.1750   -3.9150 C.ar      1 1HG504      0.0000 
     19 O19       -22.0650  -41.5380   -5.8580 O.2       1 1HG504      0.0000 
     20 N20       -19.8220  -41.9380   -3.1650 N.ar      1 1HG504      0.0000 
     21 C21       -19.6010  -42.4810   -1.9880 C.ar      1 1HG504      0.0000 
     22 C22       -20.5070  -43.4290   -1.5220 C.ar      1 1HG504      0.0000 
     23 C23       -21.6610  -43.7540   -2.3080 C.ar      1 1HG504      0.0000 
     24 C24       -21.8910  -43.1200   -3.5370 C.ar      1 1HG504      0.0000 
     25 C25       -20.2890  -44.0520   -0.2370 C.1       1 1HG504      0.0000 
     26 N26       -20.1070  -44.5440    0.7890 N.1       1 1HG504      0.0000 
     27 C27       -15.2750  -42.5070  -10.2730 C.3       1 1HG504      0.0000 
     28 F28       -14.0010  -42.1130  -10.6220 F         1 1HG504      0.0000 
     29 F29       -15.2990  -43.7950   -9.7630 F         1 1HG504      0.0000 
     30 F30       -15.9510  -42.4870  -11.4370 F         1 1HG504      0.0000 
     31 F31       -14.8660  -39.8220  -10.3640 F         1 1HG504      0.0000 
     32 H         -16.8690  -41.9628   -8.9651 H         1 1HG504      0.0000 
     33 H         -16.8547  -40.2693  -10.6547 H         1 1HG504      0.0000 
     34 H         -15.7191  -38.4272   -7.0494 H         1 1HG504      0.0000 
     35 H         -17.5949  -40.2927   -6.5581 H         1 1HG504      0.0000 
     36 H         -21.6320  -40.6591   -7.6876 H         1 1HG504      0.0000 
     37 H         -21.0936  -39.7001   -9.8748 H         1 1HG504      0.0000 
     38 H         -13.7184  -41.3733   -6.2958 H         1 1HG504      0.0000 
     39 H         -14.0664  -39.6880   -5.7816 H         1 1HG504      0.0000 
     40 H         -19.0056  -41.0437   -5.0679 H         1 1HG504      0.0000 
     41 H         -18.7924  -42.2366   -1.4009 H         1 1HG504      0.0000 
     42 H         -22.3159  -44.4584   -1.9561 H         1 1HG504      0.0000 
     43 H         -22.6784  -43.3163   -4.1009 H         1 1HG504      0.0000 
     44 H         -15.5421  -37.6148   -9.7308 H         1 1HG504      0.0000 
     45 H         -17.0459  -37.7439  -10.2858 H         1 1HG504      0.0000 
     46 H         -16.7759  -37.0986   -8.8378 H         1 1HG504      0.0000 
@<TRIPOS>BOND
     1    2    1 1    
     2    3    1 1    
     3   27    1 1    
     4   32    1 1    
     5    6    2 1    
     6   31    2 1    
     7   33    2 1    
     8    4    3 1    
     9    5    4 2    
    10   14    4 1    
    11    6    5 1    
    12   34    5 1    
    13    7    6 1    
    14   15    6 1    
    15    8    7 ar   
    16   12    7 ar   
    17    9    8 ar   
    18   35    8 1    
    19   10    9 ar   
    20   16    9 1    
    21   11   10 ar   
    22   36   10 1    
    23   12   11 ar   
    24   37   11 1    
    25   13   12 1    
    26   38   14 1    
    27   39   14 1    
    28   44   15 1    
    29   45   15 1    
    30   46   15 1    
    31   17   16 am   
    32   40   16 1    
    33   18   17 1    
    34   19   17 2    
    35   20   18 ar   
    36   24   18 ar   
    37   21   20 ar   
    38   22   21 ar   
    39   41   21 1    
    40   23   22 ar   
    41   25   22 1    
    42   24   23 ar   
    43   42   23 1    
    44   43   24 1    
    45   26   25 3    
    46   28   27 1    
    47   29   27 1    
    48   30   27 1    
@<TRIPOS>SUBSTRUCTURE
     1 1HG504      1 GROUP   
@<TRIPOS>SET

