#    Name: 3vi8_13M_1_INTS_M
#    Modification time : Tue Mar 25 00:55:03 2014

@<TRIPOS>MOLECULE
3vi8_13M_1_INTS_M
  109     0     6     0     0
SMALL
NO_CHARGES


@<TRIPOS>ATOM
      1 N          14.7860   -0.2655   -1.3660 N.am      1 SEC2        0.0000 
      2 N          15.1160    1.0270   -1.1610 N.am      5 SEL2        0.0000 
      3 N          14.4560   -1.5580   -1.5710 N.am      3 SEP2        0.0000 
      4 N          15.5500    0.3380   -0.0850 N.am      1 SEC2        0.0000 
      5 N          15.9840   -0.3510    0.9910 N.am      3 SEP2        0.0000 
      6 CA         14.6190    4.1570   -2.9615 C.3       2 GLC5        0.0000 
      7 CA         13.7990    2.0720   -2.8650 C.3       6 GLL5        0.0000 
      8 CA         15.4390    6.2420   -3.0580 C.3       4 GLP5        0.0000 
      9 N          13.3450    3.7675   -0.7730 N.am      1 SEC2        0.0000 
     10 N          14.4620    3.1790   -0.8890 N.am      5 SEL2        0.0000 
     11 N          12.2280    4.3560   -0.6570 N.am      3 SEP2        0.0000 
     12 N          14.6925    2.9465    0.4145 N.am      1 SEC2        0.0000 
     13 N          14.9230    2.7140    1.7180 N.am      3 SEP2        0.0000 
     14 CA         14.2060   -0.3490   -5.2245 C.3       2 GLC5        0.0000 
     15 CA         14.5700    1.3680   -3.9750 C.3       6 GLL5        0.0000 
     16 CA         13.8420   -2.0660   -6.4740 C.3       4 GLP5        0.0000 
     17 CA         17.3510    1.3695   -4.8975 C.3       2 GLC5        0.0000 
     18 CA         15.8990    2.0510   -4.2520 C.3       6 GLL5        0.0000 
     19 CA         18.8030    0.6880   -5.5430 C.3       4 GLP5        0.0000 
     20 CA         16.8320    3.6150   -3.7805 C.3       2 GLC5        0.0000 
     21 CA         17.7650    5.1790   -3.3090 C.3       4 GLP5        0.0000 
     22 CA         12.6905    1.4060   -0.4770 C.3       2 GLC5        0.0000 
     23 CA         12.4450    1.3980   -2.5630 C.3       6 GLL5        0.0000 
     24 CA         12.9360    1.4140    1.6090 C.3       4 GLP5        0.0000 
     25 CA         11.0085    0.0790   -1.9770 C.3       2 GLC5        0.0000 
     26 CA          9.5720   -1.2400   -1.3910 C.3       4 GLP5        0.0000 
     27 CA         11.2850   -0.4720   -7.4890 C.3       2 GLC5        0.0000 
     28 CA         10.5300   -0.0400   -5.5440 C.3       6 GLL5        0.0000 
     29 CA         12.0400   -0.9040   -9.4340 C.3       4 GLP5        0.0000 
     30 CA          9.4650   -1.8025   -4.8665 C.3       2 GLC5        0.0000 
     31 CA          8.4000   -3.5650   -4.1890 C.3       4 GLP5        0.0000 
     32 CA         11.0110   -2.0465   -3.8185 C.3       2 GLC5        0.0000 
     33 CA         11.3800    0.0690   -4.4360 C.3       6 GLL5        0.0000 
     34 CA         10.6420   -4.1620   -3.2010 C.3       4 GLP5        0.0000 
     35 CA          7.6895    0.0920   -6.0430 C.3       2 GLC5        0.0000 
     36 CA          8.9040   -0.1840   -7.8270 C.3       6 GLL5        0.0000 
     37 CA          6.4750    0.3680   -4.2590 C.3       4 GLP5        0.0000 
     38 CA          6.9295   -0.9515   -7.7050 C.3       2 GLC5        0.0000 
     39 CA          4.9550   -1.7190   -7.5830 C.3       4 GLP5        0.0000 
     40 CA          7.5635    0.7035   -8.5955 C.3       2 GLC5        0.0000 
     41 CA          6.2230    1.5910   -9.3640 C.3       4 GLP5        0.0000 
     42 CA         10.4720   -0.5440   -8.6305 C.3       2 GLC5        0.0000 
     43 CA          7.3035    3.0920   -5.0660 C.3       2 GLC5        0.0000 
     44 CA          9.2160    3.5540   -5.7730 C.3       6 GLL5        0.0000 
     45 CA          5.3910    2.6300   -4.3590 C.3       4 GLP5        0.0000 
     46 CA          7.5030    3.0420   -6.8660 C.3       2 GLC5        0.0000 
     47 CA          5.7900    2.5300   -7.9590 C.3       4 GLP5        0.0000 
     48 CA         11.5880   12.3410  -10.8760 C.3       2 GLC5        0.0000 
     49 CA         10.4120   10.7390  -11.0570 C.3       6 GLL5        0.0000 
     50 CA         12.7640   13.9430  -10.6950 C.3       4 GLP5        0.0000 
     51 CA         10.0685   12.7920  -12.9305 C.3       2 GLC5        0.0000 
     52 CA         10.8940   10.9180  -12.3570 C.3       6 GLL5        0.0000 
     53 CA          9.2430   14.6660  -13.5040 C.3       4 GLP5        0.0000 
     54 CA         13.1710    6.0495  -13.7100 C.3       2 GLC5        0.0000 
     55 CA         11.3950    7.3970  -13.4380 C.3       6 GLL5        0.0000 
     56 CA         14.9470    4.7020  -13.9820 C.3       4 GLP5        0.0000 
     57 CA          8.1315   10.3950   -9.2190 C.3       2 GLC5        0.0000 
     58 CA          9.7640    9.2470   -9.2460 C.3       6 GLL5        0.0000 
     59 CA          6.4990   11.5430   -9.1920 C.3       4 GLP5        0.0000 
     60 CA         14.3039    2.8667   -5.0765 C.3       2 GLC5        0.0000 
     61 CA         13.5660    3.8480   -6.3170 C.3       4 GLP5        0.0000 
     62 CA         12.3678    2.8455   -5.1557 C.3       2 GLC5        0.0000 
     63 CA         11.5290    1.2850   -3.7640 C.3       6 GLL5        0.0000 
     64 CA          8.3397    0.5975   -4.9333 C.3       2 GLC5        0.0000 
     65 CA          9.9500    2.3160   -5.3370 C.3       6 GLL5        0.0000 
     66 CA         12.3985   -1.0257   -5.7320 C.3       2 GLC5        0.0000 
     67 CA         11.2127    2.9195   -6.7905 C.3       2 GLC5        0.0000 
     68 CA         12.8780    3.2150   -7.8590 C.3       4 GLP5        0.0000 
     69 CA         11.9375    7.6410   -9.6937 C.3       2 GLC5        0.0000 
     70 CA          9.9120    6.7850   -9.4920 C.3       6 GLL5        0.0000 
     71 CA         13.7120    8.3950   -9.2340 C.3       4 GLP5        0.0000 
     72 CA          8.4430    6.4340  -10.4277 C.3       2 GLC5        0.0000 
     73 CA         10.4140    6.9890  -10.8150 C.3       6 GLL5        0.0000 
     74 CA          6.7230    5.9810  -10.7020 C.3       4 GLP5        0.0000 
     75 CA          8.3245    5.4408  -10.0678 C.3       2 GLC5        0.0000 
     76 CA         10.0980    4.3570   -9.8470 C.3       6 GLL5        0.0000 
     77 CA         12.5000   10.2467  -11.0195 C.3       2 GLC5        0.0000 
     78 CA         14.3470    9.6650  -10.3320 C.3       4 GLP5        0.0000 
     79 CA         12.4595   11.8562  -12.8027 C.3       2 GLC5        0.0000 
     80 CA         13.8620   13.3460  -12.8540 C.3       4 GLP5        0.0000 
     81 CA         12.7460    9.4140  -11.6155 C.3       2 GLC5        0.0000 
     82 CA         11.0700    8.5110  -12.6520 C.3       6 GLL5        0.0000 
     83 CA          9.9080    8.1765  -14.7312 C.3       2 GLC5        0.0000 
     84 CA         11.2200    9.8150  -13.1460 C.3       6 GLL5        0.0000 
     85 CA          8.5460    8.0730  -16.2940 C.3       4 GLP5        0.0000 
     86 CA         12.1758    6.8840  -14.9815 C.3       2 GLC5        0.0000 
     87 CA         13.0350    7.0200  -16.7800 C.3       4 GLP5        0.0000 
     88 CA         10.4967    5.2320  -14.1265 C.3       2 GLC5        0.0000 
     89 CA          9.6770    3.7160  -15.0700 C.3       4 GLP5        0.0000 
     90 CA         11.6973    8.4967   -9.1148 C.3       2 GLC5        0.0000 
     91 CA          9.6010    7.9500   -8.7450 C.3       6 GLL5        0.0000 
     92 CA          9.7392    8.4988   -7.0927 C.3       2 GLC5        0.0000 
     93 CA          9.7960    8.3990   -5.1900 C.3       4 GLP5        0.0000 
     94 CA          8.1352    8.0463   -9.8852 C.3       2 GLC5        0.0000 
     95 CA          6.5880    7.4940  -10.7750 C.3       4 GLP5        0.0000 
     96 CA         12.0628    8.6363  -10.0845 C.3       2 GLC5        0.0000 
     97 CA         10.2480    9.4430  -10.5370 C.3       6 GLL5        0.0000 
     98 CA          8.5008    8.1857  -10.8550 C.3       2 GLC5        0.0000 
     99 CA         10.5790    8.3120  -11.3330 C.3       6 GLL5        0.0000 
    100 CA          8.7622   11.1104  -10.8050 C.3       2 GLC5        0.0000 
    101 CA          7.0740   12.0850  -10.4880 C.3       4 GLP5        0.0000 
    102 CA          8.6970    5.6050  -11.0412 C.3       2 GLC5        0.0000 
    103 CA         10.7510    5.8810  -11.6300 C.3       6 GLL5        0.0000 
    104 CA         10.1740    4.4725  -13.2253 C.3       2 GLC5        0.0000 
    105 CA         12.4944    4.3693  -11.8130 C.3       2 GLC5        0.0000 
    106 CA         11.2380    6.0990  -12.9280 C.3       6 GLL5        0.0000 
    107 CA         14.1960    3.4550  -11.9210 C.3       4 GLP5        0.0000 
    108 CA         11.5682    3.9769   -9.0706 C.3       2 GLC5        0.0000 
    109 CA         10.5910    4.5770  -11.1310 C.3       6 GLL5        0.0000 
@<TRIPOS>BOND
@<TRIPOS>SUBSTRUCTURE
     1 SEC2        1 GROUP        1 X    SEC  0     ROOT SEC X 2
     2 GLC5        6 GROUP        1 X    GLC  0     **** GLC X 6
     3 SEP2        3 GROUP        1 Y    SEP  0     ROOT SEP Y 9
     4 GLP5        8 GROUP        1 Y    GLP  0     **** GLP Y 13
     5 SEL2        2 GROUP        1 Z    SEL  0     ROOT SEL Z 16
     6 GLL5        7 GROUP        1 Z    GLL  0     **** GLL Z 20
@<TRIPOS>SET

