#    Name: 3vi8_13M_1_ligand
#    Modification time : Tue Mar 25 00:55:03 2014

@<TRIPOS>MOLECULE
3vi8_13M_1_ligand
   61    65     1     0     0
SMALL
NO_CHARGES


@<TRIPOS>ATOM
      1 C1         14.5260    2.0780   -1.5250 C.2       1 13M1        0.0000 
      2 O1         15.1160    1.0270   -1.1610 O.co2     1 13M1        0.0000 
      3 C2         13.7990    2.0720   -2.8650 C.3       1 13M1        0.0000 
      4 O2         14.4620    3.1790   -0.8890 O.co2     1 13M1        0.0000 
      5 C3         14.5700    1.3680   -3.9750 C.3       1 13M1        0.0000 
      6 O3          8.9520    1.0330   -7.0890 O.3       1 13M1        0.0000 
      7 C4         15.8990    2.0510   -4.2520 C.3       1 13M1        0.0000 
      8 C5         12.4450    1.3980   -2.5630 C.3       1 13M1        0.0000 
      9 C6         11.5290    1.2850   -3.7640 C.ar      1 13M1        0.0000 
     10 C7         10.8100    2.4010   -4.2250 C.ar      1 13M1        0.0000 
     11 C8          9.9500    2.3160   -5.3370 C.ar      1 13M1        0.0000 
     12 C9          9.8080    1.0720   -6.0050 C.ar      1 13M1        0.0000 
     13 C10        10.5300   -0.0400   -5.5440 C.ar      1 13M1        0.0000 
     14 C11        11.3800    0.0690   -4.4360 C.ar      1 13M1        0.0000 
     15 C12         8.9040   -0.1840   -7.8270 C.3       1 13M1        0.0000 
     16 C15         9.2160    3.5540   -5.7730 C.3       1 13M1        0.0000 
     17 C17         9.9120    6.7850   -9.4920 C.ar      1 13M1        0.0000 
     18 C19        10.4140    6.9890  -10.8150 C.ar      1 13M1        0.0000 
     19 C22        10.0980    4.3570   -9.8470 C.ar      1 13M1        0.0000 
     20 C85        10.4120   10.7390  -11.0570 C.ar      1 13M1        0.0000 
     21 C86        10.8940   10.9180  -12.3570 C.ar      1 13M1        0.0000 
     22 C87         9.7540    5.4440   -9.0200 C.ar      1 13M1        0.0000 
     23 C88        11.2200    9.8150  -13.1460 C.ar      1 13M1        0.0000 
     24 C89        11.0700    8.5110  -12.6520 C.ar      1 13M1        0.0000 
     25 C91        11.3950    7.3970  -13.4380 C.ar      1 13M1        0.0000 
     26 C92        11.2380    6.0990  -12.9280 C.ar      1 13M1        0.0000 
     27 C93         9.6010    7.9500   -8.7450 C.2       1 13M1        0.0000 
     28 C94         9.7640    9.2470   -9.2460 C.2       1 13M1        0.0000 
     29 C95        10.2480    9.4430  -10.5370 C.ar      1 13M1        0.0000 
     30 C96        10.5790    8.3120  -11.3330 C.ar      1 13M1        0.0000 
     31 C97         9.2160    5.1440   -7.6610 C.2       1 13M1        0.0000 
     32 C98        10.7510    5.8810  -11.6300 C.ar      1 13M1        0.0000 
     33 C99        10.5910    4.5770  -11.1310 C.ar      1 13M1        0.0000 
     34 N99         9.6590    3.9920   -7.0770 N.am      1 13M1        0.0000 
     35 O99         8.4010    5.8970   -7.1180 O.2       1 13M1        0.0000 
     36 H          13.5933    3.0958   -3.1388 H         1 13M1        0.0000 
     37 H          13.9665    1.3680   -4.8866 H         1 13M1        0.0000 
     38 H          14.7507    0.3300   -3.6835 H         1 13M1        0.0000 
     39 H          11.9401    1.9734   -1.7691 H         1 13M1        0.0000 
     40 H          12.6411    0.3923   -2.1550 H         1 13M1        0.0000 
     41 H          10.9140    3.3067   -3.7370 H         1 13M1        0.0000 
     42 H          10.4330   -0.9442   -6.0260 H         1 13M1        0.0000 
     43 H          11.9020   -0.7600   -4.1132 H         1 13M1        0.0000 
     44 H           9.3803    4.3410   -5.0188 H         1 13M1        0.0000 
     45 H           8.1356    3.3351   -5.7795 H         1 13M1        0.0000 
     46 H           9.9821    3.3986   -9.4947 H         1 13M1        0.0000 
     47 H          10.1765   11.5524  -10.4786 H         1 13M1        0.0000 
     48 H          11.0084   11.8690  -12.7325 H         1 13M1        0.0000 
     49 H          11.5754    9.9562  -14.1032 H         1 13M1        0.0000 
     50 H          11.7500    7.5304  -14.3922 H         1 13M1        0.0000 
     51 H          11.4855    5.2890  -13.5190 H         1 13M1        0.0000 
     52 H           9.2331    7.8262   -7.7751 H         1 13M1        0.0000 
     53 H           9.5250   10.0544   -8.6570 H         1 13M1        0.0000 
     54 H          10.8440    3.7745  -11.7287 H         1 13M1        0.0000 
     55 H          10.3475    3.3784   -7.5667 H         1 13M1        0.0000 
     56 H          16.4891    2.0566   -3.4447 H         1 13M1        0.0000 
     57 H          16.4063    1.5940   -4.9827 H         1 13M1        0.0000 
     58 H          15.7760    3.0032   -4.5318 H         1 13M1        0.0000 
     59 H           9.7969   -0.4221   -8.2092 H         1 13M1        0.0000 
     60 H           8.6148   -0.9529   -7.2568 H         1 13M1        0.0000 
     61 H           8.2628   -0.1292   -8.5924 H         1 13M1        0.0000 
@<TRIPOS>BOND
     1    2    1 ar   
     2    3    1 1    
     3    4    1 ar   
     4    5    3 1    
     5    8    3 1    
     6   36    3 1    
     7    7    5 1    
     8   37    5 1    
     9   38    5 1    
    10   12    6 1    
    11   15    6 1    
    12   56    7 1    
    13   57    7 1    
    14   58    7 1    
    15    9    8 1    
    16   39    8 1    
    17   40    8 1    
    18   10    9 ar   
    19   14    9 ar   
    20   11   10 ar   
    21   41   10 1    
    22   12   11 ar   
    23   16   11 1    
    24   13   12 ar   
    25   14   13 ar   
    26   42   13 1    
    27   43   14 1    
    28   59   15 1    
    29   60   15 1    
    30   61   15 1    
    31   34   16 1    
    32   44   16 1    
    33   45   16 1    
    34   18   17 ar   
    35   22   17 ar   
    36   27   17 1    
    37   30   18 ar   
    38   32   18 ar   
    39   22   19 ar   
    40   33   19 ar   
    41   46   19 1    
    42   21   20 ar   
    43   29   20 ar   
    44   47   20 1    
    45   23   21 ar   
    46   48   21 1    
    47   31   22 1    
    48   24   23 ar   
    49   49   23 1    
    50   25   24 ar   
    51   30   24 ar   
    52   26   25 ar   
    53   50   25 1    
    54   32   26 ar   
    55   51   26 1    
    56   28   27 2    
    57   52   27 1    
    58   29   28 1    
    59   53   28 1    
    60   30   29 ar   
    61   34   31 am   
    62   35   31 2    
    63   33   32 ar   
    64   54   33 1    
    65   55   34 1    
@<TRIPOS>SUBSTRUCTURE
     1 13M1        1 GROUP   
@<TRIPOS>SET

