#    Name: 4ego_1F1_7_INTS_M
#    Modification time : Mon Mar 24 17:47:52 2014

@<TRIPOS>MOLECULE
4ego_1F1_7_INTS_M
   15     0     3     0     0
SMALL
NO_CHARGES


@<TRIPOS>ATOM
      1 CA         38.3495  -16.2890   27.3425 C.3       1 GLC5        0.0000 
      2 CA         37.0830  -17.3610   26.2770 C.3       3 GLL5        0.0000 
      3 CA         39.6160  -15.2170   28.4080 C.3       2 GLP5        0.0000 
      4 CA         33.5105  -15.6200   28.2905 C.3       1 GLC5        0.0000 
      5 CA         34.1090  -17.6350   28.5920 C.3       3 GLL5        0.0000 
      6 CA         32.9120  -13.6050   27.9890 C.3       2 GLP5        0.0000 
      7 CA         33.7950  -15.2900   27.1935 C.3       1 GLC5        0.0000 
      8 CA         34.6780  -16.9750   26.3980 C.3       3 GLL5        0.0000 
      9 CA         35.2055  -19.3642   28.2733 C.3       1 GLC5        0.0000 
     10 CA         35.6930  -17.6560   28.4590 C.3       3 GLL5        0.0000 
     11 CA         35.5100  -21.0830   28.0210 C.3       2 GLP5        0.0000 
     12 CA         35.5441  -19.1216   27.2681 C.3       1 GLC5        0.0000 
     13 CA         36.0590  -14.8131   25.0726 C.3       1 GLC5        0.0000 
     14 CA         34.6230  -16.6130   25.0570 C.3       3 GLL5        0.0000 
     15 CA         36.5890  -12.9060   25.3040 C.3       2 GLP5        0.0000 
@<TRIPOS>BOND
@<TRIPOS>SUBSTRUCTURE
     1 GLC5        1 GROUP        1 X    GLC  0     ROOT GLC X 6
     2 GLP5        3 GROUP        1 Y    GLP  0     ROOT GLP Y 13
     3 GLL5        2 GROUP        1 Z    GLL  0     ROOT GLL Z 20
@<TRIPOS>SET

