#    Name: 4ego_1F1_7_ligand
#    Modification time : Mon Mar 24 17:47:52 2014

@<TRIPOS>MOLECULE
4ego_1F1_7_ligand
   18    19     1     0     0
SMALL
NO_CHARGES


@<TRIPOS>ATOM
      1 O1         34.8220  -16.5170   22.1610 O.co2     1 1F1503      0.0000 
      2 C2         35.8190  -16.2490   22.8690 C.2       1 1F1503      0.0000 
      3 O3         36.8170  -15.6330   22.4130 O.co2     1 1F1503      0.0000 
      4 C4         35.8240  -16.6420   24.3230 C.ar      1 1F1503      0.0000 
      5 C5         37.0460  -17.0130   24.9280 C.ar      1 1F1503      0.0000 
      6 C6         37.0830  -17.3610   26.2770 C.ar      1 1F1503      0.0000 
      7 C7         35.8740  -17.3300   26.9880 C.ar      1 1F1503      0.0000 
      8 C8         35.6930  -17.6560   28.4590 C.2       1 1F1503      0.0000 
      9 C9         34.1090  -17.6350   28.5920 C.2       1 1F1503      0.0000 
     10 N10        33.6440  -17.0160   27.2670 N.pl3     1 1F1503      0.0000 
     11 C11        34.6780  -16.9750   26.3980 C.ar      1 1F1503      0.0000 
     12 C12        34.6230  -16.6130   25.0570 C.ar      1 1F1503      0.0000 
     13 H          37.9033  -17.0235   24.3655 H         1 1F1503      0.0000 
     14 H          37.9445  -17.6259   26.7292 H         1 1F1503      0.0000 
     15 H          36.2443  -17.8112   29.0684 H         1 1F1503      0.0000 
     16 H          33.6570  -17.9098   29.2549 H         1 1F1503      0.0000 
     17 H          32.7497  -16.7375   27.1734 H         1 1F1503      0.0000 
     18 H          33.7574  -16.3380   24.6177 H         1 1F1503      0.0000 
@<TRIPOS>BOND
     1    2    1 ar   
     2    3    2 ar   
     3    4    2 1    
     4    5    4 ar   
     5   12    4 ar   
     6    6    5 ar   
     7   13    5 1    
     8    7    6 ar   
     9   14    6 1    
    10    8    7 1    
    11   11    7 ar   
    12    9    8 2    
    13   15    8 1    
    14   10    9 1    
    15   16    9 1    
    16   11   10 1    
    17   17   10 1    
    18   12   11 ar   
    19   18   12 1    
@<TRIPOS>SUBSTRUCTURE
     1 1F1503      1 GROUP   
@<TRIPOS>SET

