#    Name: 3nm3_TPS_1_INTS_M
#    Modification time : Tue Mar 25 01:48:24 2014

@<TRIPOS>MOLECULE
3nm3_TPS_1_INTS_M
   73     0     9     0     0
SMALL
NO_CHARGES


@<TRIPOS>ATOM
      1 CA        -14.5755  -24.0620   41.3000 C.3       3 GLC5        0.0000 
      2 CA        -14.2620  -22.2470   41.4190 C.3       9 GLL5        0.0000 
      3 CA        -14.8890  -25.8770   41.1810 C.3       6 GLP5        0.0000 
      4 CA        -15.1815  -21.5325   39.7365 C.3       3 GLC5        0.0000 
      5 CA        -16.1010  -20.8180   38.0540 C.3       6 GLP5        0.0000 
      6 CA        -16.2070  -22.9355   41.3400 C.3       3 GLC5        0.0000 
      7 CA        -18.1520  -23.6240   41.2610 C.3       6 GLP5        0.0000 
      8 CA        -15.1315  -23.0650   43.1900 C.3       3 GLC5        0.0000 
      9 CA        -16.0010  -23.8830   44.9610 C.3       6 GLP5        0.0000 
     10 CA         -9.3965  -14.9270   41.0980 C.3       3 GLC5        0.0000 
     11 CA        -10.2730  -15.9760   42.2950 C.3       9 GLL5        0.0000 
     12 CA         -8.5200  -13.8780   39.9010 C.3       6 GLP5        0.0000 
     13 CA         -9.0625  -15.6395   45.2070 C.3       3 GLC5        0.0000 
     14 CA         -9.3020  -16.8060   43.5620 C.3       9 GLL5        0.0000 
     15 CA         -8.8230  -14.4730   46.8520 C.3       6 GLP5        0.0000 
     16 CA         -8.7555  -17.6150   45.5470 C.3       3 GLC5        0.0000 
     17 CA         -8.2090  -18.4240   47.5320 C.3       6 GLP5        0.0000 
     18 CA         -8.8485  -20.9730   39.2780 C.3       3 GLC5        0.0000 
     19 CA         -8.8660  -18.9650   40.1430 C.3       9 GLL5        0.0000 
     20 CA         -8.8310  -22.9810   38.4130 C.3       6 GLP5        0.0000 
     21 CA         -8.2610  -19.3385   38.3825 C.3       3 GLC5        0.0000 
     22 CA         -7.6560  -19.7120   36.6220 C.3       6 GLP5        0.0000 
     23 CA         -6.6995  -16.1375   41.9545 C.3       3 GLC5        0.0000 
     24 CA         -6.9520  -18.1210   42.5870 C.3       9 GLL5        0.0000 
     25 CA         -6.4470  -14.1540   41.3220 C.3       6 GLP5        0.0000 
     26 CA         -5.6450  -17.0070   44.4750 C.3       3 GLC5        0.0000 
     27 CA         -6.5510  -18.9040   43.8280 C.3       9 GLL5        0.0000 
     28 CA         -4.7390  -15.1100   45.1220 C.3       6 GLP5        0.0000 
     29 CA         -8.4830  -19.7410   44.4325 C.3       3 GLC5        0.0000 
     30 CA        -10.4150  -20.5780   45.0370 C.3       6 GLP5        0.0000 
     31 CA         -7.3800  -18.6640   45.6800 C.3       3 GLC5        0.0000 
     32 CA        -14.5845  -20.2415   39.7175 C.3       3 GLC5        0.0000 
     33 CA        -13.6200  -20.8770   41.1410 C.3       9 GLL5        0.0000 
     34 CA        -15.5490  -19.6060   38.2940 C.3       6 GLP5        0.0000 
     35 CA        -12.1590  -20.6535   42.3435 C.3       3 GLC5        0.0000 
     36 CA        -10.6980  -20.4300   43.5460 C.3       6 GLP5        0.0000 
     37 N         -13.2590  -21.8530   38.7005 N.am      2 SEC2        0.0000 
     38 N         -12.9160  -20.7270   39.9680 N.am      8 SEL2        0.0000 
     39 N         -13.6020  -22.9790   37.4330 N.am      5 SEP2        0.0000 
     40 O         -11.5360  -20.6575   37.8530 O.2       1 ALC1        0.0000 
     41 O         -11.5100  -19.2650   38.5080 O.2       7 ALL1        0.0000 
     42 O         -11.5620  -22.0500   37.1980 O.2       4 ALP1        0.0000 
     43 N          -4.0300  -18.0410   45.9580 N.am      2 SEC2        0.0000 
     44 N          -4.7160  -19.0560   46.2940 N.am      8 SEL2        0.0000 
     45 N          -3.3440  -17.0260   45.6220 N.am      5 SEP2        0.0000 
     46 N          -5.3805  -19.0315   47.3500 N.am      2 SEC2        0.0000 
     47 N          -6.0450  -19.0070   48.4060 N.am      5 SEP2        0.0000 
     48 N          -2.3530  -19.1990   43.6195 N.am      2 SEC2        0.0000 
     49 N          -2.8430  -19.8900   44.6460 N.am      8 SEL2        0.0000 
     50 N          -1.8630  -18.5080   42.5930 N.am      5 SEP2        0.0000 
     51 N          -2.6425  -21.4585   44.0375 N.am      2 SEC2        0.0000 
     52 N          -2.4420  -23.0270   43.4290 N.am      5 SEP2        0.0000 
     53 N          -1.9010  -20.7785   45.1915 N.am      2 SEC2        0.0000 
     54 N          -0.9590  -21.6670   45.7370 N.am      5 SEP2        0.0000 
     55 N          -5.0320  -22.6835   44.5040 N.am      2 SEC2        0.0000 
     56 N          -4.8010  -21.3540   45.2920 N.am      8 SEL2        0.0000 
     57 N          -5.2630  -24.0130   43.7160 N.am      5 SEP2        0.0000 
     58 N          -3.6215  -22.1905   44.3605 N.am      2 SEC2        0.0000 
     59 CA        -12.7635  -22.8300   42.3350 C.3       3 GLC5        0.0000 
     60 CA        -11.5860  -24.0980   43.3900 C.3       6 GLP5        0.0000 
     61 CA         -7.6637  -15.7267   42.1900 C.3       3 GLC5        0.0000 
     62 CA         -8.4590  -17.7930   42.5540 C.3       9 GLL5        0.0000 
     63 CA         -9.7892  -18.8648   43.3020 C.3       3 GLC5        0.0000 
     64 CA         -9.9170  -19.4988   42.1412 C.3       3 GLC5        0.0000 
     65 CA         -9.4060  -18.1700   41.3300 C.3       9 GLL5        0.0000 
     66 CA         -4.7942  -18.1663   42.5058 C.3       3 GLC5        0.0000 
     67 CA         -2.8370  -17.8200   41.8040 C.3       6 GLP5        0.0000 
     68 CA         -5.8367  -19.9983   42.7477 C.3       3 GLC5        0.0000 
     69 CA         -4.9220  -21.4840   42.2880 C.3       6 GLP5        0.0000 
     70 CA        -14.1195  -19.1829   39.6414 C.3       3 GLC5        0.0000 
     71 CA        -13.0530  -18.5700   41.7830 C.3       9 GLL5        0.0000 
     72 CA        -11.6940  -19.5949   42.2674 C.3       3 GLC5        0.0000 
     73 CA        -12.2750  -19.4790   39.7230 C.3       9 GLL5        0.0000 
@<TRIPOS>BOND
@<TRIPOS>SUBSTRUCTURE
     1 ALC1       40 GROUP        1 X    ALC  0     ROOT ALC X 1
     2 SEC2       37 GROUP        1 X    SEC  0     **** SEC X 2
     3 GLC5        1 GROUP        1 X    GLC  0     **** GLC X 6
     4 ALP1       42 GROUP        1 Y    ALP  0     ROOT ALP Y 8
     5 SEP2       39 GROUP        1 Y    SEP  0     **** SEP Y 9
     6 GLP5        3 GROUP        1 Y    GLP  0     **** GLP Y 13
     7 ALL1       41 GROUP        1 Z    ALL  0     ROOT ALL Z 15
     8 SEL2       38 GROUP        1 Z    SEL  0     **** SEL Z 16
     9 GLL5        2 GROUP        1 Z    GLL  0     **** GLL Z 20
@<TRIPOS>SET

