#    Name: 3nm3_TPS_1_ligand
#    Modification time : Tue Mar 25 01:48:24 2014

@<TRIPOS>MOLECULE
3nm3_TPS_1_ligand
   38    39     1     0     0
SMALL
NO_CHARGES


@<TRIPOS>ATOM
      1 CM2       -14.2620  -22.2470   41.4190 C.3       1 TPS2001     0.0000 
      2 N3        -10.5020  -17.0170   41.2150 N.pl3     1 TPS2001     0.0000 
      3 C2        -10.2730  -15.9760   42.2950 C.2       1 TPS2001     0.0000 
      4 S1         -9.3020  -16.8060   43.5620 S.3       1 TPS2001     0.0000 
      5 C5         -8.4590  -17.7930   42.5540 C.2       1 TPS2001     0.0000 
      6 C4         -9.4060  -18.1700   41.3300 C.2       1 TPS2001     0.0000 
      7 CM4        -8.8660  -18.9650   40.1430 C.3       1 TPS2001     0.0000 
      8 C6         -6.9520  -18.1210   42.5870 C.3       1 TPS2001     0.0000 
      9 C7         -6.5510  -18.9040   43.8280 C.3       1 TPS2001     0.0000 
     10 O7         -5.2340  -19.3500   43.7320 O.3       1 TPS2001     0.0000 
     11 N1A       -13.7280  -19.8590   42.0410 N.ar      1 TPS2001     0.0000 
     12 C2A       -13.6200  -20.8770   41.1410 C.ar      1 TPS2001     0.0000 
     13 N3A       -12.9160  -20.7270   39.9680 N.ar      1 TPS2001     0.0000 
     14 C4A       -12.2750  -19.4790   39.7230 C.ar      1 TPS2001     0.0000 
     15 N4A       -11.5100  -19.2650   38.5080 N.pl3     1 TPS2001     0.0000 
     16 C5A       -12.3790  -18.4200   40.6660 C.ar      1 TPS2001     0.0000 
     17 C6A       -13.0530  -18.5700   41.7830 C.ar      1 TPS2001     0.0000 
     18 C7A       -11.6460  -17.1040   40.3630 C.3       1 TPS2001     0.0000 
     19 P1         -4.4200  -19.9880   45.0020 P.3       1 TPS2001     0.0000 
     20 O1         -4.7160  -19.0560   46.2940 O.co2     1 TPS2001     0.0000 
     21 O2         -2.8430  -19.8900   44.6460 O.co2     1 TPS2001     0.0000 
     22 O3         -4.8010  -21.3540   45.2920 O.co2     1 TPS2001     0.0000 
     23 H         -10.4767  -15.1792   42.4225 H         1 TPS2001     0.0000 
     24 H          -6.3888  -17.1821   42.5499 H         1 TPS2001     0.0000 
     25 H          -6.7006  -18.7010   41.6922 H         1 TPS2001     0.0000 
     26 H          -7.2704  -19.7374   43.9362 H         1 TPS2001     0.0000 
     27 H          -6.7078  -18.2402   44.6990 H         1 TPS2001     0.0000 
     28 H         -11.0893  -18.3636   38.4059 H         1 TPS2001     0.0000 
     29 H         -11.4669  -20.0367   37.8735 H         1 TPS2001     0.0000 
     30 H         -13.1538  -17.8562   42.5065 H         1 TPS2001     0.0000 
     31 H         -11.3707  -17.1136   39.3085 H         1 TPS2001     0.0000 
     32 H         -12.3470  -16.2874   40.5350 H         1 TPS2001     0.0000 
     33 H         -14.0962  -22.8929   40.6738 H         1 TPS2001     0.0000 
     34 H         -13.9016  -22.6636   42.2536 H         1 TPS2001     0.0000 
     35 H         -15.2532  -22.1768   41.5309 H         1 TPS2001     0.0000 
     36 H          -8.4287  -18.3720   39.4669 H         1 TPS2001     0.0000 
     37 H          -8.1837  -19.6388   40.4268 H         1 TPS2001     0.0000 
     38 H          -9.5916  -19.4642   39.6694 H         1 TPS2001     0.0000 
@<TRIPOS>BOND
     1   12    1 1    
     2   33    1 1    
     3   34    1 1    
     4   35    1 1    
     5    3    2 2    
     6    6    2 1    
     7   18    2 1    
     8    4    3 1    
     9   23    3 1    
    10    5    4 1    
    11    6    5 2    
    12    8    5 1    
    13    7    6 1    
    14   36    7 1    
    15   37    7 1    
    16   38    7 1    
    17    9    8 1    
    18   24    8 1    
    19   25    8 1    
    20   10    9 1    
    21   26    9 1    
    22   27    9 1    
    23   19   10 1    
    24   12   11 ar   
    25   17   11 ar   
    26   13   12 ar   
    27   14   13 ar   
    28   15   14 1    
    29   16   14 ar   
    30   28   15 1    
    31   29   15 1    
    32   17   16 ar   
    33   18   16 1    
    34   30   17 1    
    35   31   18 1    
    36   32   18 1    
    37   20   19 ar   
    38   21   19 ar   
    39   22   19 ar   
@<TRIPOS>SUBSTRUCTURE
     1 TPS2001     1 GROUP   
@<TRIPOS>SET

