#    Name: 3o6o_94M_1_INTS_M
#    Modification time : Tue Mar 25 03:17:52 2014

@<TRIPOS>MOLECULE
3o6o_94M_1_INTS_M
   53     0     6     0     0
SMALL
NO_CHARGES


@<TRIPOS>ATOM
      1 CA          5.2925   14.8600    9.6180 C.3       2 GLC5        0.0000 
      2 CA          6.1700   14.6930    7.7080 C.3       6 GLL5        0.0000 
      3 CA          4.4150   15.0270   11.5280 C.3       4 GLP5        0.0000 
      4 CA          7.3920   16.4730    7.8200 C.3       2 GLC5        0.0000 
      5 CA          8.6140   18.2530    7.9320 C.3       4 GLP5        0.0000 
      6 CA          5.9530   14.7435    5.6330 C.3       2 GLC5        0.0000 
      7 CA          5.7360   14.7940    3.5580 C.3       4 GLP5        0.0000 
      8 O           4.7595   16.5615    6.5710 O.2       1 ALC1        0.0000 
      9 O           5.0960   15.4090    7.3580 O.2       5 ALL1        0.0000 
     10 O           4.4230   17.7140    5.7840 O.2       3 ALP1        0.0000 
     11 CA          5.7710   13.9420   10.1715 C.3       2 GLC5        0.0000 
     12 CA          7.1270   12.8570    8.8150 C.3       6 GLL5        0.0000 
     13 CA         11.2185   15.9685    6.9610 C.3       2 GLC5        0.0000 
     14 CA         10.0410   14.8460    6.9790 C.3       6 GLL5        0.0000 
     15 CA         12.3960   17.0910    6.9430 C.3       4 GLP5        0.0000 
     16 CA         10.3550   15.1800    5.1085 C.3       2 GLC5        0.0000 
     17 CA         10.6690   15.5140    3.2380 C.3       4 GLP5        0.0000 
     18 CA          7.6230    9.0560    5.7845 C.3       2 GLC5        0.0000 
     19 CA          6.4870    7.6010    5.5680 C.3       6 GLL5        0.0000 
     20 CA          8.7590   10.5110    6.0010 C.3       4 GLP5        0.0000 
     21 CA          7.6070    7.5510    4.4585 C.3       2 GLC5        0.0000 
     22 CA          8.7270    7.5010    3.3490 C.3       4 GLP5        0.0000 
     23 CA          5.5510    8.6725    4.3915 C.3       2 GLC5        0.0000 
     24 CA          4.6150    9.7440    3.2150 C.3       4 GLP5        0.0000 
     25 CA          6.0935    5.9980    4.3410 C.3       2 GLC5        0.0000 
     26 CA          5.7000    4.3950    3.1140 C.3       4 GLP5        0.0000 
     27 CA          4.5910    5.8925    8.4500 C.3       2 GLC5        0.0000 
     28 CA          6.6450    5.4220    8.0970 C.3       6 GLL5        0.0000 
     29 CA          2.5370    6.3630    8.8030 C.3       4 GLP5        0.0000 
     30 CA          5.6155    4.6490    9.7755 C.3       2 GLC5        0.0000 
     31 CA          4.5860    3.8760   11.4540 C.3       4 GLP5        0.0000 
     32 CA          5.3530    4.2900    7.1050 C.3       2 GLC5        0.0000 
     33 CA          4.0610    3.1580    6.1130 C.3       4 GLP5        0.0000 
     34 CA          6.4455   10.6715    6.0570 C.3       2 GLC5        0.0000 
     35 CA          5.2550   10.2320    7.2830 C.3       6 GLL5        0.0000 
     36 CA          7.6360   11.1110    4.8310 C.3       4 GLP5        0.0000 
     37 CA          3.7785    9.6760    8.1475 C.3       2 GLC5        0.0000 
     38 CA          2.3020    9.1200    9.0120 C.3       4 GLP5        0.0000 
     39 CA          4.9350    9.9880    5.2490 C.3       2 GLC5        0.0000 
     40 CA          3.6295   11.2375    6.8975 C.3       2 GLC5        0.0000 
     41 CA          2.0040   12.2430    6.5120 C.3       4 GLP5        0.0000 
     42 CA          8.2572   11.7807    7.2982 C.3       2 GLC5        0.0000 
     43 CA          8.9405   16.4342    7.6093 C.3       2 GLC5        0.0000 
     44 CA          8.4930   14.3850    7.5940 C.3       6 GLL5        0.0000 
     45 CA          9.7560   13.0078    6.3957 C.3       2 GLC5        0.0000 
     46 CA         10.2450   11.4000    5.5050 C.3       4 GLP5        0.0000 
     47 CA          4.6136    9.3933   10.1974 C.3       2 GLC5        0.0000 
     48 CA          6.3330    9.5010    9.4870 C.3       6 GLL5        0.0000 
     49 CA          3.1330    9.0980   11.3990 C.3       4 GLP5        0.0000 
     50 CA          7.3976    9.5500    7.1501 C.3       2 GLC5        0.0000 
     51 CA          8.2114    8.3117    8.4540 C.3       2 GLC5        0.0000 
     52 CA          5.9610    7.8420    7.7570 C.3       6 GLL5        0.0000 
     53 CA         10.1940    8.2290    8.2420 C.3       4 GLP5        0.0000 
@<TRIPOS>BOND
@<TRIPOS>SUBSTRUCTURE
     1 ALC1        8 GROUP        1 X    ALC  0     ROOT ALC X 1
     2 GLC5        1 GROUP        1 X    GLC  0     **** GLC X 6
     3 ALP1       10 GROUP        1 Y    ALP  0     ROOT ALP Y 8
     4 GLP5        3 GROUP        1 Y    GLP  0     **** GLP Y 13
     5 ALL1        9 GROUP        1 Z    ALL  0     ROOT ALL Z 15
     6 GLL5        2 GROUP        1 Z    GLL  0     **** GLL Z 20
@<TRIPOS>SET

