#    Name: 3o6o_94M_1_ligand
#    Modification time : Tue Mar 25 03:17:52 2014

@<TRIPOS>MOLECULE
3o6o_94M_1_ligand
   37    39     1     0     0
SMALL
NO_CHARGES


@<TRIPOS>ATOM
      1 N1          7.3900   15.0890    7.2820 N.ar      1 94M214      0.0000 
      2 C2          6.1700   14.6930    7.7080 C.ar      1 94M214      0.0000 
      3 N2          5.0960   15.4090    7.3580 N.pl3     1 94M214      0.0000 
      4 N3          6.0360   13.5610    8.4330 N.ar      1 94M214      0.0000 
      5 C4          7.1270   12.8570    8.8150 C.ar      1 94M214      0.0000 
      6 C5          8.3840   13.2440    8.3760 C.ar      1 94M214      0.0000 
      7 C6          8.4930   14.3850    7.5940 C.ar      1 94M214      0.0000 
      8 CL6        10.0410   14.8460    6.9790 Cl        1 94M214      0.0000 
      9 N7          9.2800   12.3920    8.8690 N.2       1 94M214      0.0000 
     10 C8          8.6260   11.4480    9.5470 C.2       1 94M214      0.0000 
     11 N9          7.3260   11.7460    9.5060 N.pl3     1 94M214      0.0000 
     12 CAA         6.4870    7.6010    5.5680 C.3       1 94M214      0.0000 
     13 CAB         6.6450    5.4220    8.0970 C.3       1 94M214      0.0000 
     14 CAC         5.2550   10.2320    7.2830 C.3       1 94M214      0.0000 
     15 CAF         6.9510    7.2540    9.8590 C.ar      1 94M214      0.0000 
     16 CAH         6.2640   10.9110   10.1040 C.3       1 94M214      0.0000 
     17 NAI         6.8620    8.5250   10.2600 N.ar      1 94M214      0.0000 
     18 OAM         5.4770    7.4820    6.5370 O.3       1 94M214      0.0000 
     19 CAN         6.5120    6.8740    8.5890 C.ar      1 94M214      0.0000 
     20 CAP         5.8900    9.1710    8.1960 C.ar      1 94M214      0.0000 
     21 CAR         6.3330    9.5010    9.4870 C.ar      1 94M214      0.0000 
     22 CAS         5.9610    7.8420    7.7570 C.ar      1 94M214      0.0000 
     23 H           4.2161   15.0774    7.6983 H         1 94M214      0.0000 
     24 H           5.2692   16.2117    6.7874 H         1 94M214      0.0000 
     25 H           9.0223   10.6845    9.9891 H         1 94M214      0.0000 
     26 H           7.3481    6.5182   10.4805 H         1 94M214      0.0000 
     27 H           5.2832   11.3262    9.8974 H         1 94M214      0.0000 
     28 H           6.4006   10.8211   11.1765 H         1 94M214      0.0000 
     29 H           6.8313    8.5376    5.5035 H         1 94M214      0.0000 
     30 H           7.2702    7.0144    5.7739 H         1 94M214      0.0000 
     31 H           6.1606    7.3454    4.6580 H         1 94M214      0.0000 
     32 H           7.5984    5.1207    8.0822 H         1 94M214      0.0000 
     33 H           6.1451    4.7841    8.6828 H         1 94M214      0.0000 
     34 H           6.2878    5.3099    7.1697 H         1 94M214      0.0000 
     35 H           5.8834   10.9879    7.0992 H         1 94M214      0.0000 
     36 H           4.9896    9.8496    6.3979 H         1 94M214      0.0000 
     37 H           4.4317   10.6276    7.6901 H         1 94M214      0.0000 
@<TRIPOS>BOND
     1    2    1 ar   
     2    7    1 ar   
     3    3    2 1    
     4    4    2 ar   
     5   23    3 1    
     6   24    3 1    
     7    5    4 ar   
     8    6    5 ar   
     9   11    5 1    
    10    7    6 ar   
    11    9    6 1    
    12    8    7 1    
    13   10    9 2    
    14   11   10 1    
    15   25   10 1    
    16   16   11 1    
    17   18   12 1    
    18   29   12 1    
    19   30   12 1    
    20   31   12 1    
    21   19   13 1    
    22   32   13 1    
    23   33   13 1    
    24   34   13 1    
    25   20   14 1    
    26   35   14 1    
    27   36   14 1    
    28   37   14 1    
    29   17   15 ar   
    30   19   15 ar   
    31   26   15 1    
    32   21   16 1    
    33   27   16 1    
    34   28   16 1    
    35   21   17 ar   
    36   22   18 1    
    37   22   19 ar   
    38   21   20 ar   
    39   22   20 ar   
@<TRIPOS>SUBSTRUCTURE
     1 94M214      1 GROUP   
@<TRIPOS>SET

