#    Name: 3R17_1_CAVITY_N1_ALL.mol2
#    Modification time : Mon Mar 10 19:07:41 2014

@<TRIPOS>MOLECULE
3R17_1_CAVITY_N1_ALL.mol2
   81     0     6     0     0
SMALL
NO_CHARGES


@<TRIPOS>ATOM
      1 CA         19.7544    6.7516   14.4078 C.3       5 GLY6        0.0000 
      2 N          22.1678    4.0860   12.1561 N.2       2 ALA2        0.0000 
      3 CZ         22.2778    3.7234   10.7048 C.ar      4 PHE5        0.0000 
      4 O          22.3877    3.3608    9.2534 O.2       2 ALA2        0.0000 
      5 O          22.4977    2.9981    7.8021 O.2       2 ALA2        0.0000 
      6 CZ         17.5303    6.9993   15.7277 C.ar      4 PHE5        0.0000 
      7 CA         19.8337    4.6964   14.9273 C.3       5 GLY6        0.0000 
      8 CA         18.7370    5.6665   14.6018 C.3       5 GLY6        0.0000 
      9 CZ         17.6403    6.6367   14.2763 C.ar      4 PHE5        0.0000 
     10 N          19.9437    4.3337   13.4760 N.2       2 ALA2        0.0000 
     11 DU         18.8470    5.3039   13.1505 H         6 CUB7        0.0000 
     12 CZ         17.7502    6.2741   12.8250 C.ar      4 PHE5        0.0000 
     13 OG         20.0537    3.9711   12.0246 O.2       1 SER1        0.0000 
     14 DU         18.9569    4.9413   11.6991 H         6 CUB7        0.0000 
     15 DU         17.8602    5.9115   11.3736 H         6 CUB7        0.0000 
     16 CZ         21.2604    2.6383   10.8988 C.ar      4 PHE5        0.0000 
     17 DU         20.1636    3.6085   10.5733 H         6 CUB7        0.0000 
     18 DU         19.0669    4.5787   10.2478 H         6 CUB7        0.0000 
     19 O          21.3704    2.2757    9.4474 O.2       2 ALA2        0.0000 
     20 O          20.2736    3.2459    9.1219 O.2       2 ALA2        0.0000 
     21 CA         16.5129    5.9143   15.9217 C.3       5 GLY6        0.0000 
     22 OG         18.8163    3.6113   15.1213 O.2       1 SER1        0.0000 
     23 CA         17.7196    4.5815   14.7958 C.3       5 GLY6        0.0000 
     24 CZ         16.6229    5.5517   14.4703 C.ar      4 PHE5        0.0000 
     25 OG         18.9263    3.2487   13.6699 O.2       1 SER1        0.0000 
     26 DU         17.8296    4.2189   13.3445 H         6 CUB7        0.0000 
     27 O          16.7328    5.1891   13.0190 O.2       2 ALA2        0.0000 
     28 CZ         15.6361    6.1592   12.6935 C.ar      4 PHE5        0.0000 
     29 OG         19.0363    2.8861   12.2186 O.2       1 SER1        0.0000 
     30 DU         17.9396    3.8563   11.8931 H         6 CUB7        0.0000 
     31 O          16.8428    4.8264   11.5676 O.2       2 ALA2        0.0000 
     32 O          15.7461    5.7966   11.2421 O.2       2 ALA2        0.0000 
     33 OG         20.2430    1.5533   11.0927 O.2       1 SER1        0.0000 
     34 O          19.1463    2.5235   10.7673 O.2       2 ALA2        0.0000 
     35 O          18.0495    3.4937   10.4418 O.2       2 ALA2        0.0000 
     36 O          16.9528    4.4638   10.1163 O.2       2 ALA2        0.0000 
     37 O          15.8561    5.4340    9.7908 O.2       2 ALA2        0.0000 
     38 O          19.2562    2.1609    9.3159 O.2       2 ALA2        0.0000 
     39 O          17.0628    4.1012    8.6649 O.2       2 ALA2        0.0000 
     40 CA         15.4955    4.8293   16.1156 C.3       5 GLY6        0.0000 
     41 CA         14.3988    5.7994   15.7902 C.3       5 GLY6        0.0000 
     42 OG         17.7989    2.5263   15.3153 O.2       1 SER1        0.0000 
     43 CA         16.7022    3.4965   14.9898 C.3       5 GLY6        0.0000 
     44 O          15.6055    4.4666   14.6643 O.2       2 ALA2        0.0000 
     45 CZ         14.5087    5.4368   14.3388 C.ar      4 PHE5        0.0000 
     46 OG         17.9089    2.1637   13.8639 O.2       1 SER1        0.0000 
     47 DU         16.8122    3.1339   13.5384 H         6 CUB7        0.0000 
     48 O          15.7155    4.1040   13.2130 O.2       2 ALA2        0.0000 
     49 OG         18.0189    1.8011   12.4126 O.2       1 SER1        0.0000 
     50 O          16.9222    2.7712   12.0871 O.2       2 ALA2        0.0000 
     51 O          15.8254    3.7414   11.7616 O.2       2 ALA2        0.0000 
     52 OG         19.2256    0.4683   11.2867 O.2       1 SER1        0.0000 
     53 O          18.1289    1.4385   10.9612 O.2       2 ALA2        0.0000 
     54 O          17.0321    2.4086   10.6358 O.2       2 ALA2        0.0000 
     55 CA         19.3356    0.1057    9.8354 C.3       5 GLY6        0.0000 
     56 CA         16.6716    1.8039   16.9606 C.3       5 GLY6        0.0000 
     57 CA         15.5748    2.7741   16.6351 C.3       5 GLY6        0.0000 
     58 CA         14.4781    3.7442   16.3096 C.3       5 GLY6        0.0000 
     59 OG         16.7816    1.4413   15.5093 O.2       1 SER1        0.0000 
     60 DU         15.6848    2.4114   15.1838 H         6 CUB7        0.0000 
     61 CA         14.5881    3.3816   14.8583 C.3       5 GLY6        0.0000 
     62 OG         16.8915    1.0787   14.0579 O.2       1 SER1        0.0000 
     63 N          15.7948    2.0488   13.7324 N.2       2 ALA2        0.0000 
     64 CA         18.0982   -0.2541   12.9321 C.3       5 GLY6        0.0000 
     65 N          17.0015    0.7160   12.6066 N.2       2 ALA2        0.0000 
     66 O          15.9048    1.6862   12.2811 O.2       2 ALA2        0.0000 
     67 CA         19.3049   -1.5869   11.8062 C.3       5 GLY6        0.0000 
     68 CA         18.2082   -0.6167   11.4807 C.3       5 GLY6        0.0000 
     69 O          17.1115    0.3534   11.1552 O.2       2 ALA2        0.0000 
     70 CA         18.3182   -0.9794   10.0294 C.3       5 GLY6        0.0000 
     71 O          17.2215   -0.0092    9.7039 O.2       2 ALA2        0.0000 
     72 CA         14.4475    2.0517   18.2805 C.3       5 GLY6        0.0000 
     73 OD1        15.6542    0.7189   17.1546 O.3       3 ASP3        0.0000 
     74 OD1        14.5575    1.6890   16.8291 O.3       3 ASP3        0.0000 
     75 CA         13.4607    2.6592   16.5036 C.3       5 GLY6        0.0000 
     76 OD1        15.7642    0.3563   15.7033 O.3       3 ASP3        0.0000 
     77 N          14.6674    1.3264   15.3778 N.2       2 ALA2        0.0000 
     78 CA         17.0808   -1.3391   13.1261 C.3       5 GLY6        0.0000 
     79 OG         18.2876   -2.6719   12.0002 O.2       1 SER1        0.0000 
     80 CA         17.1908   -1.7018   11.6747 C.3       5 GLY6        0.0000 
     81 CA         16.0941   -0.7316   11.3492 C.3       5 GLY6        0.0000 
@<TRIPOS>BOND
@<TRIPOS>SUBSTRUCTURE
     1 SER1       13 GROUP   
     2 ALA2        2 GROUP   
     3 ASP3       73 GROUP   
     4 PHE5        3 GROUP   
     5 GLY6        1 GROUP   
     6 CUB7       11 GROUP   
@<TRIPOS>SET

