#    Name: 3r17_5UM_1_INTS_M
#    Modification time : Tue Mar 25 10:27:13 2014

@<TRIPOS>MOLECULE
3r17_5UM_1_INTS_M
   43     0    12     0     0
SMALL
NO_CHARGES


@<TRIPOS>ATOM
      1 CA         13.1905    5.3150   15.0475 C.3       4 GLC5        0.0000 
      2 CA         14.8980    5.1530   14.3660 C.3      12 GLL5        0.0000 
      3 CA         11.4830    5.4770   15.7290 C.3       8 GLP5        0.0000 
      4 CA         15.0470    6.8410   14.5710 C.3       4 GLC5        0.0000 
      5 CA         15.1960    8.5290   14.7760 C.3       8 GLP5        0.0000 
      6 O          16.7130   -1.5195   16.8580 O.2       1 ALC1        0.0000 
      7 O          15.8390   -0.7040   16.1370 O.2       9 ALL1        0.0000 
      8 O          17.5870   -2.3350   17.5790 O.2       5 ALP1        0.0000 
      9 Zn         15.1580   -1.2625   15.6910 Zn        3 ZIC7        0.0000 
     10 Zn         15.8390   -0.7040   16.1370 Zn       11 ZIL7        0.0000 
     11 Zn         14.4770   -1.8210   15.2450 Zn        7 ZIP7        0.0000 
     12 N          17.1495    0.4280   18.5765 N.am      2 SEC2        0.0000 
     13 N          15.7850    0.8270   18.0890 N.am     10 SEL2        0.0000 
     14 N          18.5140    0.0290   19.0640 N.am      6 SEP2        0.0000 
     15 CA         13.2100    3.1075   15.1355 C.3       4 GLC5        0.0000 
     16 CA         15.1790    3.0880   15.4280 C.3      12 GLL5        0.0000 
     17 CA         11.2410    3.1270   14.8430 C.3       8 GLP5        0.0000 
     18 CA         18.6915    0.4165   14.9320 C.3       4 GLC5        0.0000 
     19 CA         17.3550    2.0610   15.4310 C.3      12 GLL5        0.0000 
     20 CA         20.0280   -1.2280   14.4330 C.3       8 GLP5        0.0000 
     21 CA         17.5310    8.1860   13.3745 C.3       4 GLC5        0.0000 
     22 CA         19.1620    6.8700   12.6580 C.3      12 GLL5        0.0000 
     23 CA         15.9000    9.5020   14.0910 C.3       8 GLP5        0.0000 
     24 CA         21.3670    9.3015   16.9605 C.3       4 GLC5        0.0000 
     25 CA         21.2460    9.4630   14.9120 C.3      12 GLL5        0.0000 
     26 CA         21.4880    9.1400   19.0090 C.3       8 GLP5        0.0000 
     27 CA         19.5685    7.0385   16.3350 C.3       4 GLC5        0.0000 
     28 CA         19.8070    8.5390   14.8600 C.3      12 GLL5        0.0000 
     29 CA         19.3300    5.5380   17.8100 C.3       8 GLP5        0.0000 
     30 CA         21.4450    7.6680   15.7105 C.3       4 GLC5        0.0000 
     31 CA         23.0830    6.7970   16.5610 C.3       8 GLP5        0.0000 
     32 CA         16.1373    4.7100   16.4138 C.3       4 GLC5        0.0000 
     33 CA         15.6950    4.1430   14.7010 C.3      12 GLL5        0.0000 
     34 CA         16.9780    4.7720   18.2940 C.3       8 GLP5        0.0000 
     35 CA         21.7073    6.8585   14.3717 C.3       4 GLC5        0.0000 
     36 CA         20.0610    7.8250   13.3260 C.3      12 GLL5        0.0000 
     37 CA         22.7460    5.6530   15.6450 C.3       8 GLP5        0.0000 
     38 CA         22.3307    8.0612   15.4410 C.3       4 GLC5        0.0000 
     39 CA         21.9110    9.1880   13.7300 C.3      12 GLL5        0.0000 
     40 CA         19.6437   10.2140   16.2860 C.3       4 GLC5        0.0000 
     41 CA         18.7610   11.4270   17.6860 C.3       8 GLP5        0.0000 
     42 CA         16.9694    3.8734   16.6544 C.3       4 GLC5        0.0000 
     43 CA         17.0250    4.1580   14.3310 C.3      12 GLL5        0.0000 
@<TRIPOS>BOND
@<TRIPOS>SUBSTRUCTURE
     1 ALC1        6 GROUP        1 X    ALC  0     ROOT ALC X 1
     2 SEC2       12 GROUP        1 X    SEC  0     **** SEC X 2
     3 ZIC7        9 GROUP        1 X    ZIC  0     **** ZIC X 5
     4 GLC5        1 GROUP        1 X    GLC  0     **** GLC X 6
     5 ALP1        8 GROUP        1 Y    ALP  0     ROOT ALP Y 8
     6 SEP2       14 GROUP        1 Y    SEP  0     **** SEP Y 9
     7 ZIP7       11 GROUP        1 Y    ZIP  0     **** ZIP Y 12
     8 GLP5        3 GROUP        1 Y    GLP  0     **** GLP Y 13
     9 ALL1        7 GROUP        1 Z    ALL  0     ROOT ALL Z 15
    10 SEL2       13 GROUP        1 Z    SEL  0     **** SEL Z 16
    11 ZIL7       10 GROUP        1 Z    ZIL  0     **** ZIL Z 19
    12 GLL5        2 GROUP        1 Z    GLL  0     **** GLL Z 20
@<TRIPOS>SET

