#    Name: 3r17_5UM_1_ligand
#    Modification time : Tue Mar 25 10:27:13 2014

@<TRIPOS>MOLECULE
3r17_5UM_1_ligand
   30    31     1     0     0
SMALL
NO_CHARGES


@<TRIPOS>ATOM
      1 C01        16.0140    2.0450   15.7920 C.ar      1 5UM1        0.0000 
      2 F01        14.8980    5.1530   14.3660 F         1 5UM1        0.0000 
      3 N01        15.8390   -0.7040   16.1370 N.pl3     1 5UM1        0.0000 
      4 O01        15.7850    0.8270   18.0890 O.2       1 5UM1        0.0000 
      5 S01        15.3160    0.7160   16.7340 S.o2      1 5UM1        0.0000 
      6 C02        15.1790    3.0880   15.4280 C.ar      1 5UM1        0.0000 
      7 O02        13.8810    0.8000   16.7290 O.2       1 5UM1        0.0000 
      8 C03        15.6950    4.1430   14.7010 C.ar      1 5UM1        0.0000 
      9 C04        17.0250    4.1580   14.3310 C.ar      1 5UM1        0.0000 
     10 C05        17.8670    3.1140   14.6870 C.ar      1 5UM1        0.0000 
     11 C06        17.3550    2.0610   15.4310 C.ar      1 5UM1        0.0000 
     12 N07        17.4860    5.2730   13.5690 N.am      1 5UM1        0.0000 
     13 C08        18.8510    5.6800   13.4880 C.2       1 5UM1        0.0000 
     14 O08        19.7380    5.0880   14.0770 O.2       1 5UM1        0.0000 
     15 C09        19.1620    6.8700   12.6580 C.3       1 5UM1        0.0000 
     16 C10        20.0610    7.8250   13.3260 C.2       1 5UM1        0.0000 
     17 C11        21.2760    8.3030   12.8710 C.2       1 5UM1        0.0000 
     18 C12        21.9110    9.1880   13.7300 C.2       1 5UM1        0.0000 
     19 C13        21.2460    9.4630   14.9120 C.2       1 5UM1        0.0000 
     20 S14        19.8070    8.5390   14.8600 S.3       1 5UM1        0.0000 
     21 H          16.6782   -1.0686   16.5405 H         1 5UM1        0.0000 
     22 H          14.1892    3.0758   15.6959 H         1 5UM1        0.0000 
     23 H          18.8497    3.1209   14.4052 H         1 5UM1        0.0000 
     24 H          17.9723    1.2863   15.7176 H         1 5UM1        0.0000 
     25 H          16.7769    5.8279   13.0351 H         1 5UM1        0.0000 
     26 H          18.2148    7.3797   12.3837 H         1 5UM1        0.0000 
     27 H          19.6165    6.5375   11.7014 H         1 5UM1        0.0000 
     28 H          21.6661    8.0348   11.9968 H         1 5UM1        0.0000 
     29 H          22.7953    9.6012   13.5072 H         1 5UM1        0.0000 
     30 H          21.3684    9.9582   15.6321 H         1 5UM1        0.0000 
@<TRIPOS>BOND
     1    5    1 1    
     2    6    1 ar   
     3   11    1 ar   
     4    8    2 1    
     5    5    3 1    
     6   21    3 1    
     7    5    4 2    
     8    7    5 2    
     9    8    6 ar   
    10   22    6 1    
    11    9    8 ar   
    12   10    9 ar   
    13   12    9 1    
    14   11   10 ar   
    15   23   10 1    
    16   24   11 1    
    17   13   12 am   
    18   25   12 1    
    19   14   13 2    
    20   15   13 1    
    21   16   15 1    
    22   26   15 1    
    23   27   15 1    
    24   17   16 2    
    25   20   16 1    
    26   18   17 1    
    27   28   17 1    
    28   19   18 2    
    29   29   18 1    
    30   20   19 1    
    31   30   19 1    
@<TRIPOS>SUBSTRUCTURE
     1 5UM1        1 GROUP   
@<TRIPOS>SET

