#    Name: 3s61_FAD_1_INTS_M
#    Modification time : Tue Mar 25 12:14:34 2014

@<TRIPOS>MOLECULE
3s61_FAD_1_INTS_M
  108     0     9     0     0
SMALL
NO_CHARGES


@<TRIPOS>ATOM
      1 CA         13.8270  -48.8500  -19.9655 C.3       3 GLC5        0.0000 
      2 CA         13.7470  -48.3460  -21.8280 C.3       9 GLL5        0.0000 
      3 CA         13.9070  -49.3540  -18.1030 C.3       6 GLP5        0.0000 
      4 CA         14.4675  -47.1150  -20.3550 C.3       3 GLC5        0.0000 
      5 CA         15.1880  -45.8840  -18.8820 C.3       6 GLP5        0.0000 
      6 CA         12.7485  -51.1255  -21.9775 C.3       3 GLC5        0.0000 
      7 CA         12.5950  -49.0410  -22.5440 C.3       9 GLL5        0.0000 
      8 CA         12.9020  -53.2100  -21.4110 C.3       6 GLP5        0.0000 
      9 O          11.0490  -50.1135  -24.5820 O.2       1 ALC1        0.0000 
     10 O          11.0330  -48.6290  -24.2460 O.2       7 ALL1        0.0000 
     11 O          11.0650  -51.5980  -24.9180 O.2       4 ALP1        0.0000 
     12 O          10.1810  -49.9745  -24.0020 O.2       1 ALC1        0.0000 
     13 O           9.3290  -51.3200  -23.7580 O.2       4 ALP1        0.0000 
     14 CA         11.7290  -51.2980  -21.4500 C.3       3 GLC5        0.0000 
     15 CA         10.5560  -49.3860  -21.4890 C.3       9 GLL5        0.0000 
     16 CA          7.8750  -49.7695  -19.1740 C.3       3 GLC5        0.0000 
     17 CA          9.5270  -50.4890  -18.1890 C.3       9 GLL5        0.0000 
     18 CA          6.2230  -49.0500  -20.1590 C.3       6 GLP5        0.0000 
     19 CA          8.5785  -53.4745  -16.6715 C.3       3 GLC5        0.0000 
     20 CA          9.0020  -51.5230  -17.4240 C.3       9 GLL5        0.0000 
     21 CA          8.1550  -55.4260  -15.9190 C.3       6 GLP5        0.0000 
     22 O           7.4270  -52.2520  -15.4770 O.2       1 ALC1        0.0000 
     23 O           8.1940  -51.1620  -16.4340 O.2       7 ALL1        0.0000 
     24 O           6.6600  -53.3420  -14.5200 O.2       4 ALP1        0.0000 
     25 N           7.5195  -53.5690  -17.5625 N.am      2 SEC2        0.0000 
     26 N           8.7200  -52.7310  -18.0390 N.am      8 SEL2        0.0000 
     27 N           6.3190  -54.4070  -17.0860 N.am      5 SEP2        0.0000 
     28 CA         10.3645  -53.2920  -18.1130 C.3       3 GLC5        0.0000 
     29 CA          8.9140  -52.9210  -19.3940 C.3       9 GLL5        0.0000 
     30 CA         11.8150  -53.6630  -16.8320 C.3       6 GLP5        0.0000 
     31 CA         10.9080  -53.0655  -20.4025 C.3       3 GLC5        0.0000 
     32 CA          8.9830  -53.4350  -21.3430 C.3       3 GLC5        0.0000 
     33 CA          9.0520  -53.9490  -23.2920 C.3       6 GLP5        0.0000 
     34 CA          7.3495  -52.0380  -20.3680 C.3       3 GLC5        0.0000 
     35 CA          5.7850  -51.1550  -21.3420 C.3       6 GLP5        0.0000 
     36 CA          6.8890  -53.2960  -19.1130 C.3       3 GLC5        0.0000 
     37 CA          4.8640  -53.6710  -18.8320 C.3       6 GLP5        0.0000 
     38 CA          8.7180  -54.6390  -18.2025 C.3       3 GLC5        0.0000 
     39 CA          8.5220  -56.3570  -17.0110 C.3       6 GLP5        0.0000 
     40 N           8.3635  -52.1565  -21.4340 N.am      2 SEC2        0.0000 
     41 N           9.4200  -51.8820  -20.1370 N.am      8 SEL2        0.0000 
     42 N           7.3070  -52.4310  -22.7310 N.am      5 SEP2        0.0000 
     43 CA         11.3115  -51.9525  -20.4775 C.3       3 GLC5        0.0000 
     44 CA          9.7210  -50.6950  -19.5440 C.3       9 GLL5        0.0000 
     45 CA          8.0930  -50.2675  -20.4715 C.3       3 GLC5        0.0000 
     46 CA          6.4650  -49.8400  -21.3990 C.3       6 GLP5        0.0000 
     47 N          24.1865  -42.5355  -25.2775 N.am      2 SEC2        0.0000 
     48 N          23.9710  -41.2530  -25.9780 N.am      8 SEL2        0.0000 
     49 N          24.4020  -43.8180  -24.5770 N.am      5 SEP2        0.0000 
     50 N          22.1350  -37.9920  -29.6120 N.am      2 SEC2        0.0000 
     51 N          21.3300  -38.8730  -28.8330 N.am      8 SEL2        0.0000 
     52 N          22.9400  -37.1110  -30.3910 N.am      5 SEP2        0.0000 
     53 N          19.4140  -37.9210  -27.9815 N.am      2 SEC2        0.0000 
     54 N          19.2740  -38.9280  -27.0640 N.am      8 SEL2        0.0000 
     55 N          19.5540  -36.9140  -28.8990 N.am      5 SEP2        0.0000 
     56 CA         13.7020  -39.5380  -26.4020 C.3       3 GLC5        0.0000 
     57 CA         14.7420  -37.7480  -25.8890 C.3       9 GLL5        0.0000 
     58 CA         12.6620  -41.3280  -26.9150 C.3       6 GLP5        0.0000 
     59 CA         12.7955  -37.6390  -26.2125 C.3       3 GLC5        0.0000 
     60 CA         10.8490  -37.5300  -26.5360 C.3       6 GLP5        0.0000 
     61 CA         15.5685  -36.1340  -25.9335 C.3       3 GLC5        0.0000 
     62 CA         16.3950  -34.5200  -25.9780 C.3       6 GLP5        0.0000 
     63 CA         14.0410  -38.3675  -22.0045 C.3       3 GLC5        0.0000 
     64 CA         15.1240  -39.1360  -23.2700 C.3       9 GLL5        0.0000 
     65 CA         12.9580  -37.5990  -20.7390 C.3       6 GLP5        0.0000 
     66 CA         21.9440  -40.3705  -22.7990 C.3       3 GLC5        0.0000 
     67 CA         19.9480  -40.9530  -23.3460 C.3       9 GLL5        0.0000 
     68 CA         23.9400  -39.7880  -22.2520 C.3       6 GLP5        0.0000 
     69 O          20.3040  -42.8380  -21.4700 O.2       1 ALC1        0.0000 
     70 O          19.0130  -42.6570  -22.0040 O.2       7 ALL1        0.0000 
     71 O          21.5950  -43.0190  -20.9360 O.2       4 ALP1        0.0000 
     72 CA         21.9925  -43.1110  -23.2245 C.3       3 GLC5        0.0000 
     73 CA         20.0420  -43.4030  -24.0140 C.3       9 GLL5        0.0000 
     74 CA         23.9430  -42.8190  -22.4350 C.3       6 GLP5        0.0000 
     75 CA         21.4035  -43.8665  -25.6645 C.3       3 GLC5        0.0000 
     76 CA         22.7650  -44.3300  -27.3150 C.3       6 GLP5        0.0000 
     77 CA         18.7590  -46.2130  -25.4565 C.3       3 GLC5        0.0000 
     78 CA         19.2550  -44.6890  -24.1310 C.3       9 GLL5        0.0000 
     79 CA         18.2630  -47.7370  -26.7820 C.3       6 GLP5        0.0000 
     80 CA         20.6995  -45.1770  -25.7015 C.3       3 GLC5        0.0000 
     81 CA         22.1440  -45.6650  -27.2720 C.3       6 GLP5        0.0000 
     82 N          17.4030  -44.3735  -25.8920 N.am      2 SEC2        0.0000 
     83 N          17.8930  -44.4050  -24.3120 N.am      8 SEL2        0.0000 
     84 N          16.9130  -44.3420  -27.4720 N.am      5 SEP2        0.0000 
     85 N          16.5530  -43.5460  -24.5030 N.am      2 SEC2        0.0000 
     86 N          15.2130  -42.6870  -24.6940 N.am      5 SEP2        0.0000 
     87 N          18.7630  -49.6370  -23.6935 N.am      2 SEC2        0.0000 
     88 N          17.7100  -48.9490  -23.1450 N.am      8 SEL2        0.0000 
     89 N          19.8160  -50.3250  -24.2420 N.am      5 SEP2        0.0000 
     90 CA         14.3570  -49.5772  -23.7505 C.3       3 GLC5        0.0000 
     91 CA         15.5430  -50.4610  -25.3150 C.3       6 GLP5        0.0000 
     92 CA          8.4953  -49.2567  -21.5840 C.3       3 GLC5        0.0000 
     93 CA         10.5397  -52.3345  -17.3193 C.3       3 GLC5        0.0000 
     94 CA         11.3375  -50.0405  -17.8528 C.3       3 GLC5        0.0000 
     95 CA         13.0510  -49.4890  -16.8390 C.3       6 GLP5        0.0000 
     96 CA         18.3702  -37.3983  -25.0922 C.3       3 GLC5        0.0000 
     97 CA         18.2730  -38.9830  -26.1400 C.3       9 GLL5        0.0000 
     98 CA         19.0720  -36.1190  -23.8870 C.3       6 GLP5        0.0000 
     99 CA         15.7260  -40.2042  -25.9165 C.3       3 GLC5        0.0000 
    100 CA         17.0640  -38.3720  -26.4550 C.3       9 GLL5        0.0000 
    101 CA         14.9040  -42.0190  -25.8430 C.3       6 GLP5        0.0000 
    102 CA         17.5983  -37.4262  -24.3978 C.3       3 GLC5        0.0000 
    103 CA         16.0320  -38.4070  -25.5250 C.3       9 GLL5        0.0000 
    104 CA         15.2873  -40.5585  -24.8120 C.3       3 GLC5        0.0000 
    105 CA         16.2170  -39.0600  -24.2920 C.3       9 GLL5        0.0000 
    106 CA         16.4262  -40.8400  -25.1487 C.3       3 GLC5        0.0000 
    107 CA         17.4290  -39.6800  -23.9890 C.3       9 GLL5        0.0000 
    108 CA         18.5102  -37.8900  -24.1708 C.3       3 GLC5        0.0000 
@<TRIPOS>BOND
@<TRIPOS>SUBSTRUCTURE
     1 ALC1        9 GROUP        1 X    ALC  0     ROOT ALC X 1
     2 SEC2       25 GROUP        1 X    SEC  0     **** SEC X 2
     3 GLC5        1 GROUP        1 X    GLC  0     **** GLC X 6
     4 ALP1       11 GROUP        1 Y    ALP  0     ROOT ALP Y 8
     5 SEP2       27 GROUP        1 Y    SEP  0     **** SEP Y 9
     6 GLP5        3 GROUP        1 Y    GLP  0     **** GLP Y 13
     7 ALL1       10 GROUP        1 Z    ALL  0     ROOT ALL Z 15
     8 SEL2       26 GROUP        1 Z    SEL  0     **** SEL Z 16
     9 GLL5        2 GROUP        1 Z    GLL  0     **** GLL Z 20
@<TRIPOS>SET

