#    Name: 3s61_FAD_1_ligand
#    Modification time : Tue Mar 25 12:14:34 2014

@<TRIPOS>MOLECULE
3s61_FAD_1_ligand
   84    89     1     0     0
SMALL
NO_CHARGES


@<TRIPOS>ATOM
      1 PA         15.5270  -46.6260  -22.7730 P.3       1 FAD444      0.0000 
      2 O1A        14.6760  -45.5400  -22.1620 O.co2     1 FAD444      0.0000 
      3 O2A        16.0410  -46.2350  -24.1390 O.co2     1 FAD444      0.0000 
      4 O5B        14.7100  -48.0000  -22.7990 O.3       1 FAD444      0.0000 
      5 C5B        13.7470  -48.3460  -21.8280 C.3       1 FAD444      0.0000 
      6 C4B        12.5950  -49.0410  -22.5440 C.3       1 FAD444      0.0000 
      7 O4B        11.8820  -49.8600  -21.6530 O.3       1 FAD444      0.0000 
      8 C3B        11.5840  -48.0500  -23.0930 C.3       1 FAD444      0.0000 
      9 O3B        11.0330  -48.6290  -24.2460 O.3       1 FAD444      0.0000 
     10 C2B        10.4950  -47.9610  -22.0490 C.3       1 FAD444      0.0000 
     11 O2B         9.2560  -47.5820  -22.6390 O.3       1 FAD444      0.0000 
     12 C1B        10.5560  -49.3860  -21.4890 C.3       1 FAD444      0.0000 
     13 N9A        10.2240  -49.5310  -20.0550 N.pl3     1 FAD444      0.0000 
     14 C8A        10.3390  -48.6230  -19.0270 C.2       1 FAD444      0.0000 
     15 N7A         9.9070  -49.2220  -17.8930 N.2       1 FAD444      0.0000 
     16 C5A         9.5270  -50.4890  -18.1890 C.ar      1 FAD444      0.0000 
     17 C6A         9.0020  -51.5230  -17.4240 C.ar      1 FAD444      0.0000 
     18 N6A         8.1940  -51.1620  -16.4340 N.pl3     1 FAD444      0.0000 
     19 N1A         8.7200  -52.7310  -18.0390 N.ar      1 FAD444      0.0000 
     20 C2A         8.9140  -52.9210  -19.3940 C.ar      1 FAD444      0.0000 
     21 N3A         9.4200  -51.8820  -20.1370 N.ar      1 FAD444      0.0000 
     22 C4A         9.7210  -50.6950  -19.5440 C.ar      1 FAD444      0.0000 
     23 N1         21.8890  -40.7670  -25.3040 N.2       1 FAD444      0.0000 
     24 C2         22.9010  -40.7160  -26.2320 C.2       1 FAD444      0.0000 
     25 O2         23.9710  -41.2530  -25.9780 O.2       1 FAD444      0.0000 
     26 N3         22.7160  -40.0670  -27.4430 N.am      1 FAD444      0.0000 
     27 C4         21.5020  -39.4540  -27.7440 C.2       1 FAD444      0.0000 
     28 O4         21.3300  -38.8730  -28.8330 O.2       1 FAD444      0.0000 
     29 C4X        20.4800  -39.5140  -26.7910 C.2       1 FAD444      0.0000 
     30 N5         19.2740  -38.9280  -27.0640 N.2       1 FAD444      0.0000 
     31 C5X        18.2730  -38.9830  -26.1400 C.ar      1 FAD444      0.0000 
     32 C6         17.0640  -38.3720  -26.4550 C.ar      1 FAD444      0.0000 
     33 C7         16.0320  -38.4070  -25.5250 C.ar      1 FAD444      0.0000 
     34 C7M        14.7420  -37.7480  -25.8890 C.3       1 FAD444      0.0000 
     35 C8         16.2170  -39.0600  -24.2920 C.ar      1 FAD444      0.0000 
     36 C8M        15.1240  -39.1360  -23.2700 C.3       1 FAD444      0.0000 
     37 C9         17.4290  -39.6800  -23.9890 C.ar      1 FAD444      0.0000 
     38 C9A        18.4680  -39.6420  -24.9200 C.ar      1 FAD444      0.0000 
     39 N10        19.6810  -40.2410  -24.6460 N.pl3     1 FAD444      0.0000 
     40 C10        20.6820  -40.1710  -25.5800 C.2       1 FAD444      0.0000 
     41 C1'        19.9480  -40.9530  -23.3460 C.3       1 FAD444      0.0000 
     42 C2'        19.2350  -42.3010  -23.3420 C.3       1 FAD444      0.0000 
     43 O2'        19.0130  -42.6570  -22.0040 O.3       1 FAD444      0.0000 
     44 C3'        20.0420  -43.4030  -24.0140 C.3       1 FAD444      0.0000 
     45 O3'        20.3700  -43.0120  -25.3160 O.3       1 FAD444      0.0000 
     46 C4'        19.2550  -44.6890  -24.1310 C.3       1 FAD444      0.0000 
     47 O4'        17.8930  -44.4050  -24.3120 O.3       1 FAD444      0.0000 
     48 C5'        19.4220  -45.5520  -22.8940 C.3       1 FAD444      0.0000 
     49 O5'        18.9140  -46.8060  -23.2690 O.3       1 FAD444      0.0000 
     50 P          18.0700  -47.7680  -22.3010 P.3       1 FAD444      0.0000 
     51 O1P        17.7100  -48.9490  -23.1450 O.co2     1 FAD444      0.0000 
     52 O2P        18.8790  -48.1190  -21.0940 O.co2     1 FAD444      0.0000 
     53 O3P        16.7400  -47.0110  -21.8050 O.3       1 FAD444      0.0000 
     54 H          13.3417  -47.4726  -21.3158 H         1 FAD444      0.0000 
     55 H          14.1400  -49.0372  -21.0816 H         1 FAD444      0.0000 
     56 H          12.9859  -49.6103  -23.3700 H         1 FAD444      0.0000 
     57 H          12.0294  -47.1298  -23.2354 H         1 FAD444      0.0000 
     58 H          10.8457  -47.3003  -21.2874 H         1 FAD444      0.0000 
     59 H           9.8808  -50.0069  -22.0799 H         1 FAD444      0.0000 
     60 H          10.6680  -47.7291  -19.1129 H         1 FAD444      0.0000 
     61 H           8.0268  -50.1808  -16.3381 H         1 FAD444      0.0000 
     62 H           7.8257  -51.9040  -15.8738 H         1 FAD444      0.0000 
     63 H           8.6848  -53.8167  -19.8306 H         1 FAD444      0.0000 
     64 H          23.4858  -40.0360  -28.1322 H         1 FAD444      0.0000 
     65 H          16.9373  -37.9060  -27.3540 H         1 FAD444      0.0000 
     66 H          17.5555  -40.1575  -23.0942 H         1 FAD444      0.0000 
     67 H          19.5821  -40.3549  -22.5157 H         1 FAD444      0.0000 
     68 H          21.0159  -41.1154  -23.2267 H         1 FAD444      0.0000 
     69 H          18.2988  -42.1884  -23.8715 H         1 FAD444      0.0000 
     70 H          20.9231  -43.5953  -23.4273 H         1 FAD444      0.0000 
     71 H          19.6503  -45.2492  -24.9787 H         1 FAD444      0.0000 
     72 H          18.8618  -45.0980  -22.0906 H         1 FAD444      0.0000 
     73 H          20.4724  -45.5840  -22.6472 H         1 FAD444      0.0000 
     74 H          14.8623  -36.7725  -26.0733 H         1 FAD444      0.0000 
     75 H          14.3362  -38.1532  -26.7082 H         1 FAD444      0.0000 
     76 H          14.0652  -37.8267  -25.1570 H         1 FAD444      0.0000 
     77 H          15.4132  -39.6356  -22.4534 H         1 FAD444      0.0000 
     78 H          14.8322  -38.2278  -22.9700 H         1 FAD444      0.0000 
     79 H          14.3138  -39.6012  -23.6266 H         1 FAD444      0.0000 
     80 H          11.2290  -49.6061  -24.1637 H         1 FAD444      0.0000 
     81 H           9.3685  -47.7635  -23.6159 H         1 FAD444      0.0000 
     82 H          19.9234  -42.8279  -21.6273 H         1 FAD444      0.0000 
     83 H          21.3355  -42.7550  -25.2734 H         1 FAD444      0.0000 
     84 H          17.4295  -45.2852  -24.2101 H         1 FAD444      0.0000 
@<TRIPOS>BOND
     1    2    1 ar   
     2    3    1 ar   
     3    4    1 1    
     4   53    1 1    
     5    5    4 1    
     6    6    5 1    
     7   54    5 1    
     8   55    5 1    
     9    7    6 1    
    10    8    6 1    
    11   56    6 1    
    12   12    7 1    
    13    9    8 1    
    14   10    8 1    
    15   57    8 1    
    16   80    9 1    
    17   11   10 1    
    18   12   10 1    
    19   58   10 1    
    20   81   11 1    
    21   13   12 1    
    22   59   12 1    
    23   14   13 1    
    24   22   13 1    
    25   15   14 2    
    26   60   14 1    
    27   16   15 1    
    28   17   16 ar   
    29   22   16 ar   
    30   18   17 1    
    31   19   17 ar   
    32   61   18 1    
    33   62   18 1    
    34   20   19 ar   
    35   21   20 ar   
    36   63   20 1    
    37   22   21 ar   
    38   24   23 1    
    39   40   23 2    
    40   25   24 2    
    41   26   24 am   
    42   27   26 am   
    43   64   26 1    
    44   28   27 2    
    45   29   27 1    
    46   30   29 2    
    47   40   29 1    
    48   31   30 1    
    49   32   31 ar   
    50   38   31 ar   
    51   33   32 ar   
    52   65   32 1    
    53   34   33 1    
    54   35   33 ar   
    55   74   34 1    
    56   75   34 1    
    57   76   34 1    
    58   36   35 1    
    59   37   35 ar   
    60   77   36 1    
    61   78   36 1    
    62   79   36 1    
    63   38   37 ar   
    64   66   37 1    
    65   39   38 1    
    66   40   39 1    
    67   41   39 1    
    68   42   41 1    
    69   67   41 1    
    70   68   41 1    
    71   43   42 1    
    72   44   42 1    
    73   69   42 1    
    74   82   43 1    
    75   45   44 1    
    76   46   44 1    
    77   70   44 1    
    78   83   45 1    
    79   47   46 1    
    80   48   46 1    
    81   71   46 1    
    82   84   47 1    
    83   49   48 1    
    84   72   48 1    
    85   73   48 1    
    86   50   49 1    
    87   51   50 ar   
    88   52   50 ar   
    89   53   50 1    
@<TRIPOS>SUBSTRUCTURE
     1 FAD444      1 GROUP   
@<TRIPOS>SET

