#    Name: 1edo_NAP_1_INTS_M
#    Modification time : Mon Mar 24 23:31:51 2014

@<TRIPOS>MOLECULE
1edo_NAP_1_INTS_M
  120     0    12     0     0
SMALL
NO_CHARGES


@<TRIPOS>ATOM
      1 NZ        -42.5405   31.0460   17.6160 N.4       3 LYC4        0.0000 
      2 NZ        -41.9590   32.7770   18.0250 N.4      11 LYL4        0.0000 
      3 NZ        -43.1220   29.3150   17.2070 N.4       7 LYP4        0.0000 
      4 CA        -41.0100   28.5735   20.0835 C.3       4 GLC5        0.0000 
      5 CA        -42.4300   29.3640   21.4160 C.3      12 GLL5        0.0000 
      6 CA        -39.5900   27.7830   18.7510 C.3       8 GLP5        0.0000 
      7 N         -40.2095   27.4915   21.3660 N.am      2 SEC2        0.0000 
      8 N         -41.4320   28.3800   21.9400 N.am     10 SEL2        0.0000 
      9 N         -38.9870   26.6030   20.7920 N.am      6 SEP2        0.0000 
     10 O         -41.6670   26.9020   21.9300 O.2       1 ALC1        0.0000 
     11 O         -41.4320   28.3800   21.9400 O.2       9 ALL1        0.0000 
     12 O         -41.9020   25.4240   21.9200 O.2       5 ALP1        0.0000 
     13 CA        -43.6925   30.9860   25.0230 C.3       4 GLC5        0.0000 
     14 CA        -43.7750   29.8480   23.2150 C.3      12 GLL5        0.0000 
     15 CA        -43.6100   32.1240   26.8310 C.3       8 GLP5        0.0000 
     16 CA        -47.1095   32.6505   24.8965 C.3       4 GLC5        0.0000 
     17 CA        -46.9640   30.5830   24.7930 C.3      12 GLL5        0.0000 
     18 CA        -47.2550   34.7180   25.0000 C.3       8 GLP5        0.0000 
     19 CA        -48.9620   29.2995   27.2255 C.3       4 GLC5        0.0000 
     20 CA        -47.8750   30.4840   25.9030 C.3      12 GLL5        0.0000 
     21 CA        -50.0490   28.1150   28.5480 C.3       8 GLP5        0.0000 
     22 CA        -46.9515   31.0105   27.8345 C.3       4 GLC5        0.0000 
     23 CA        -46.0280   31.5370   29.7660 C.3       8 GLP5        0.0000 
     24 CA        -47.6700   32.4835   26.6815 C.3       4 GLC5        0.0000 
     25 CA        -47.4650   34.4830   27.4600 C.3       8 GLP5        0.0000 
     26 O         -50.0110   30.8425   26.9420 O.2       1 ALC1        0.0000 
     27 O         -49.0740   31.0320   25.9500 O.2       9 ALL1        0.0000 
     28 O         -50.9480   30.6530   27.9340 O.2       5 ALP1        0.0000 
     29 N         -47.9460   29.7500   28.2910 N.am      2 SEC2        0.0000 
     30 N         -47.3600   29.7950   26.9460 N.am     10 SEL2        0.0000 
     31 N         -48.5320   29.7050   29.6360 N.am      6 SEP2        0.0000 
     32 CA        -47.0510   28.0840   25.4910 C.3       4 GLC5        0.0000 
     33 CA        -46.1900   29.2060   26.9900 C.3      12 GLL5        0.0000 
     34 CA        -47.9120   26.9620   23.9920 C.3       8 GLP5        0.0000 
     35 CA        -48.1195   28.6605   27.7690 C.3       4 GLC5        0.0000 
     36 CA        -46.1090   30.3715   28.3780 C.3       4 GLC5        0.0000 
     37 CA        -44.9000   30.6650   26.9105 C.3       4 GLC5        0.0000 
     38 CA        -43.5720   29.4705   25.2085 C.3       4 GLC5        0.0000 
     39 CA        -45.7090   29.9790   24.8360 C.3      12 GLL5        0.0000 
     40 CA        -41.4350   28.9620   25.5810 C.3       8 GLP5        0.0000 
     41 N         -37.8320   34.9210   17.5090 N.am      2 SEC2        0.0000 
     42 N         -38.1680   35.0950   18.7140 N.am     10 SEL2        0.0000 
     43 N         -37.4960   34.7470   16.3040 N.am      6 SEP2        0.0000 
     44 N         -36.5875   32.3895   20.5100 N.am      2 SEC2        0.0000 
     45 N         -37.8420   33.1630   20.3160 N.am     10 SEL2        0.0000 
     46 N         -35.3330   31.6160   20.7040 N.am      6 SEP2        0.0000 
     47 CA        -37.5910   36.7690   24.6535 C.3       4 GLC5        0.0000 
     48 CA        -38.8700   35.6590   23.3450 C.3      12 GLL5        0.0000 
     49 CA        -36.3120   37.8790   25.9620 C.3       8 GLP5        0.0000 
     50 CA        -42.1075   36.1685   23.6970 C.3       4 GLC5        0.0000 
     51 CA        -40.2210   36.5480   23.3140 C.3      12 GLL5        0.0000 
     52 CA        -43.9940   35.7890   24.0800 C.3       8 GLP5        0.0000 
     53 N         -40.7725   38.4190   25.1050 N.am      2 SEC2        0.0000 
     54 N         -40.4350   37.0130   24.6190 N.am     10 SEL2        0.0000 
     55 N         -41.1100   39.8250   25.5910 N.am      6 SEP2        0.0000 
     56 O         -40.3765   35.8100   25.1970 O.2       1 ALC1        0.0000 
     57 O         -40.4350   37.0130   24.6190 O.2       9 ALL1        0.0000 
     58 O         -40.3180   34.6070   25.7750 O.2       5 ALP1        0.0000 
     59 CA        -40.5870   39.4095   23.5935 C.3       4 GLC5        0.0000 
     60 CA        -39.9660   37.6670   22.3190 C.3      12 GLL5        0.0000 
     61 CA        -41.2080   41.1520   24.8680 C.3       8 GLP5        0.0000 
     62 CA        -40.6430   37.6630   20.6245 C.3       4 GLC5        0.0000 
     63 CA        -41.3200   37.6590   18.9300 C.3       8 GLP5        0.0000 
     64 N         -40.6225   39.9600   22.0070 N.am      2 SEC2        0.0000 
     65 N         -40.7060   38.7270   22.6280 N.am     10 SEL2        0.0000 
     66 N         -40.5390   41.1930   21.3860 N.am      6 SEP2        0.0000 
     67 N         -40.9080   39.2760   24.1095 N.am      2 SEC2        0.0000 
     68 CA        -36.7910   36.8840   21.9660 C.3       4 GLC5        0.0000 
     69 CA        -38.5230   37.9250   22.7110 C.3      12 GLL5        0.0000 
     70 CA        -35.0590   35.8430   21.2210 C.3       8 GLP5        0.0000 
     71 CA        -37.4175   37.9020   24.3365 C.3       4 GLC5        0.0000 
     72 CA        -39.4150   38.4340   20.7945 C.3       4 GLC5        0.0000 
     73 CA        -40.3070   38.9430   18.8780 C.3       8 GLP5        0.0000 
     74 N         -34.7695   39.4805   16.8980 N.am      2 SEC2        0.0000 
     75 N         -36.1070   39.4030   17.4140 N.am     10 SEL2        0.0000 
     76 N         -33.4320   39.5580   16.3820 N.am      6 SEP2        0.0000 
     77 O         -37.2805   36.0735   17.0990 O.2       1 ALC1        0.0000 
     78 O         -37.0650   37.4000   17.8940 O.2       9 ALL1        0.0000 
     79 O         -37.4960   34.7470   16.3040 O.2       5 ALP1        0.0000 
     80 CA        -36.8360   38.9345   24.0730 C.3       4 GLC5        0.0000 
     81 CA        -37.3600   39.9900   22.1840 C.3      12 GLL5        0.0000 
     82 CA        -35.8120   40.5235   23.2455 C.3       4 GLC5        0.0000 
     83 CA        -34.2640   41.0570   24.3070 C.3       8 GLP5        0.0000 
     84 NZ        -44.2970   28.2955   19.0205 N.4       3 LYC4        0.0000 
     85 NZ        -44.6560   26.8440   19.8750 N.4      11 LYL4        0.0000 
     86 N         -44.2970   28.2955   19.0205 N.am      2 SEC2        0.0000 
     87 N         -44.6560   26.8440   19.8750 N.am     10 SEL2        0.0000 
     88 N         -43.9380   29.7470   18.1660 N.am      6 SEP2        0.0000 
     89 N         -44.5175   25.6455   19.2680 N.am      2 SEC2        0.0000 
     90 N         -44.3790   24.4470   18.6610 N.am      6 SEP2        0.0000 
     91 N         -43.2310   25.3725   21.8795 N.am      2 SEC2        0.0000 
     92 N         -44.5600   25.3210   21.8390 N.am     10 SEL2        0.0000 
     93 N         -41.9020   25.4240   21.9200 N.am      6 SEP2        0.0000 
     94 N         -45.3505   25.3065   23.0935 N.am      2 SEC2        0.0000 
     95 N         -46.1410   25.2920   24.3480 N.am      6 SEP2        0.0000 
     96 N         -46.1350   24.9890   21.9790 N.am      2 SEC2        0.0000 
     97 N         -47.7100   24.6570   22.1190 N.am      6 SEP2        0.0000 
     98 N         -45.2585   24.2830   21.1930 N.am      2 SEC2        0.0000 
     99 N         -45.9570   23.2450   20.5470 N.am      6 SEP2        0.0000 
    100 N         -44.4695   24.8840   20.2500 N.am      2 SEC2        0.0000 
    101 N         -46.2185   26.1490   22.9660 N.am      2 SEC2        0.0000 
    102 N         -46.2960   27.0060   21.5840 N.am     10 SEL2        0.0000 
    103 N         -47.0030   25.8315   21.8515 N.am      2 SEC2        0.0000 
    104 CA        -44.9733   31.2025   25.8227 C.3       4 GLC5        0.0000 
    105 CA        -47.2381   28.6091   24.5420 C.3       4 GLC5        0.0000 
    106 CA        -36.9273   35.4850   22.0400 C.3       4 GLC5        0.0000 
    107 CA        -38.7210   34.5950   22.3730 C.3      12 GLL5        0.0000 
    108 CA        -36.1232   37.3083   20.6202 C.3       4 GLC5        0.0000 
    109 CA        -37.5130   38.3200   20.4230 C.3      12 GLL5        0.0000 
    110 CA        -34.5765   39.5875   19.7243 C.3       4 GLC5        0.0000 
    111 CA        -36.8620   39.2270   19.6160 C.3      12 GLL5        0.0000 
    112 CA        -32.5080   39.3160   19.6700 C.3       8 GLP5        0.0000 
    113 CA        -34.8357   40.5120   21.4970 C.3       4 GLC5        0.0000 
    114 CA        -36.4280   40.4910   19.9410 C.3      12 GLL5        0.0000 
    115 CA        -33.1070   40.3650   22.3660 C.3       8 GLP5        0.0000 
    116 CA        -38.5574   39.2876   19.4291 C.3       4 GLC5        0.0000 
    117 CA        -37.6522   42.0192   22.4612 C.3       4 GLC5        0.0000 
    118 CA        -36.7010   40.8270   21.3150 C.3      12 GLL5        0.0000 
    119 CA        -38.2740   43.6300   23.1730 C.3       8 GLP5        0.0000 
    120 CA        -42.2281   29.3576   23.8555 C.3       4 GLC5        0.0000 
@<TRIPOS>BOND
@<TRIPOS>SUBSTRUCTURE
     1 ALC1       10 GROUP        1 X    ALC  0     ROOT ALC X 1
     2 SEC2        7 GROUP        1 X    SEC  0     **** SEC X 2
     3 LYC4        1 GROUP        1 X    LYC  0     **** LYC X 4
     4 GLC5        4 GROUP        1 X    GLC  0     **** GLC X 6
     5 ALP1       12 GROUP        1 Y    ALP  0     ROOT ALP Y 8
     6 SEP2        9 GROUP        1 Y    SEP  0     **** SEP Y 9
     7 LYP4        3 GROUP        1 Y    LYP  0     **** LYP Y 11
     8 GLP5        6 GROUP        1 Y    GLP  0     **** GLP Y 13
     9 ALL1       11 GROUP        1 Z    ALL  0     ROOT ALL Z 15
    10 SEL2        8 GROUP        1 Z    SEL  0     **** SEL Z 16
    11 LYL4        2 GROUP        1 Z    LYL  0     **** LYL Z 18
    12 GLL5        5 GROUP        1 Z    GLL  0     **** GLL Z 20
@<TRIPOS>SET

