#    Name: 1edo_NAP_1_ligand
#    Modification time : Mon Mar 24 23:31:51 2014

@<TRIPOS>MOLECULE
1edo_NAP_1_ligand
   73    77     1     0     0
SMALL
NO_CHARGES


@<TRIPOS>ATOM
      1 PA        -40.6640   32.4010   18.6890 P.3       1 NAP301      0.0000 
      2 O1A       -41.9590   32.7770   18.0250 O.co2     1 NAP301      0.0000 
      3 O2A       -39.6410   31.7670   17.8180 O.co2     1 NAP301      0.0000 
      4 O5B       -40.9090   31.5130   19.9760 O.3       1 NAP301      0.0000 
      5 C5B       -41.9280   31.8780   21.0310 C.3       1 NAP301      0.0000 
      6 C4B       -42.0670   30.7820   21.9830 C.3       1 NAP301      0.0000 
      7 O4B       -43.1490   31.0320   22.9490 O.3       1 NAP301      0.0000 
      8 C3B       -42.4300   29.3640   21.4160 C.3       1 NAP301      0.0000 
      9 O3B       -41.4320   28.3800   21.9400 O.3       1 NAP301      0.0000 
     10 C2B       -43.8130   29.0190   21.9060 C.3       1 NAP301      0.0000 
     11 O2B       -44.0320   27.7060   22.0910 O.3       1 NAP301      0.0000 
     12 C1B       -43.7750   29.8480   23.2150 C.3       1 NAP301      0.0000 
     13 N9A       -45.0720   30.2450   23.6020 N.pl3     1 NAP301      0.0000 
     14 C8A       -46.0000   30.9940   22.9200 C.2       1 NAP301      0.0000 
     15 N7A       -47.1130   31.2030   23.5880 N.2       1 NAP301      0.0000 
     16 C5A       -46.9640   30.5830   24.7930 C.ar      1 NAP301      0.0000 
     17 C6A       -47.8750   30.4840   25.9030 C.ar      1 NAP301      0.0000 
     18 N6A       -49.0740   31.0320   25.9500 N.pl3     1 NAP301      0.0000 
     19 N1A       -47.3600   29.7950   26.9460 N.ar      1 NAP301      0.0000 
     20 C2A       -46.1900   29.2060   26.9900 C.ar      1 NAP301      0.0000 
     21 N3A       -45.2860   29.2580   25.9400 N.ar      1 NAP301      0.0000 
     22 C4A       -45.7090   29.9790   24.8360 C.ar      1 NAP301      0.0000 
     23 O3        -40.0860   33.7180   19.3440 O.3       1 NAP301      0.0000 
     24 PN        -38.6070   34.2640   19.7660 P.3       1 NAP301      0.0000 
     25 O1N       -38.1680   35.0950   18.7140 O.co2     1 NAP301      0.0000 
     26 O2N       -37.8420   33.1630   20.3160 O.co2     1 NAP301      0.0000 
     27 O5D       -38.3010   35.0990   21.0570 O.3       1 NAP301      0.0000 
     28 C5D       -38.7210   34.5950   22.3730 C.3       1 NAP301      0.0000 
     29 C4D       -38.8700   35.6590   23.3450 C.3       1 NAP301      0.0000 
     30 O4D       -37.8910   36.6920   22.8250 O.3       1 NAP301      0.0000 
     31 C3D       -40.2210   36.5480   23.3140 C.3       1 NAP301      0.0000 
     32 O3D       -40.4350   37.0130   24.6190 O.3       1 NAP301      0.0000 
     33 C2D       -39.9660   37.6670   22.3190 C.3       1 NAP301      0.0000 
     34 O2D       -40.7060   38.7270   22.6280 O.3       1 NAP301      0.0000 
     35 C1D       -38.5230   37.9250   22.7110 C.3       1 NAP301      0.0000 
     36 N1N       -37.7370   38.7780   21.7140 N.pl3     1 NAP301      0.0000 
     37 C2N       -37.5130   38.3200   20.4230 C.ar      1 NAP301      0.0000 
     38 C3N       -36.8620   39.2270   19.6160 C.ar      1 NAP301      0.0000 
     39 C7N       -36.6420   38.6570   18.1830 C.2       1 NAP301      0.0000 
     40 O7N       -36.1070   39.4030   17.4140 O.2       1 NAP301      0.0000 
     41 N7N       -37.0650   37.4000   17.8940 N.am      1 NAP301      0.0000 
     42 C4N       -36.4280   40.4910   19.9410 C.ar      1 NAP301      0.0000 
     43 C5N       -36.7010   40.8270   21.3150 C.ar      1 NAP301      0.0000 
     44 C6N       -37.3600   39.9900   22.1840 C.ar      1 NAP301      0.0000 
     45 P2B       -44.9020   26.6970   21.3340 P.3       1 NAP301      0.0000 
     46 O1X       -44.6560   26.8440   19.8750 O.co2     1 NAP301      0.0000 
     47 O2X       -44.5600   25.3210   21.8390 O.co2     1 NAP301      0.0000 
     48 O3X       -46.2960   27.0060   21.5840 O.co2     1 NAP301      0.0000 
     49 H         -42.8821   32.0874   20.5381 H         1 NAP301      0.0000 
     50 H         -41.5975   32.7908   21.5355 H         1 NAP301      0.0000 
     51 H         -41.1468   30.6377   22.5671 H         1 NAP301      0.0000 
     52 H         -42.4063   29.4137   20.3654 H         1 NAP301      0.0000 
     53 H         -44.5018   29.5449   21.2631 H         1 NAP301      0.0000 
     54 H         -43.2900   29.2826   23.9601 H         1 NAP301      0.0000 
     55 H         -45.8155   31.3372   21.9948 H         1 NAP301      0.0000 
     56 H         -49.3694   31.5157   25.1261 H         1 NAP301      0.0000 
     57 H         -49.5785   30.9139   26.8053 H         1 NAP301      0.0000 
     58 H         -45.8926   28.6594   27.8494 H         1 NAP301      0.0000 
     59 H         -37.9792   33.8520   22.7328 H         1 NAP301      0.0000 
     60 H         -39.6774   34.0426   22.2638 H         1 NAP301      0.0000 
     61 H         -38.6256   35.4406   24.3113 H         1 NAP301      0.0000 
     62 H         -40.9758   35.9015   22.9486 H         1 NAP301      0.0000 
     63 H         -39.9861   37.2783   21.3710 H         1 NAP301      0.0000 
     64 H         -38.5204   38.4432   23.6700 H         1 NAP301      0.0000 
     65 H         -37.7967   37.4242   20.1160 H         1 NAP301      0.0000 
     66 H         -37.5014   36.8998   18.6419 H         1 NAP301      0.0000 
     67 H         -36.9028   37.0853   16.9588 H         1 NAP301      0.0000 
     68 H         -35.9860   41.1104   19.3401 H         1 NAP301      0.0000 
     69 H         -36.3689   41.7650   21.6437 H         1 NAP301      0.0000 
     70 H         -37.5521   40.2800   23.1417 H         1 NAP301      0.0000 
     71 H         -41.8584   27.4849   21.8100 H         1 NAP301      0.0000 
     72 H         -40.8669   36.2490   25.0983 H         1 NAP301      0.0000 
     73 H         -40.8645   38.6537   23.6126 H         1 NAP301      0.0000 
@<TRIPOS>BOND
     1    2    1 ar   
     2    3    1 ar   
     3    4    1 1    
     4   23    1 1    
     5    5    4 1    
     6    6    5 1    
     7   49    5 1    
     8   50    5 1    
     9    7    6 1    
    10    8    6 1    
    11   51    6 1    
    12   12    7 1    
    13    9    8 1    
    14   10    8 1    
    15   52    8 1    
    16   71    9 1    
    17   11   10 1    
    18   12   10 1    
    19   53   10 1    
    20   45   11 1    
    21   13   12 1    
    22   54   12 1    
    23   14   13 1    
    24   22   13 1    
    25   15   14 2    
    26   55   14 1    
    27   16   15 1    
    28   17   16 ar   
    29   22   16 ar   
    30   18   17 1    
    31   19   17 ar   
    32   56   18 1    
    33   57   18 1    
    34   20   19 ar   
    35   21   20 ar   
    36   58   20 1    
    37   22   21 ar   
    38   24   23 1    
    39   25   24 ar   
    40   26   24 ar   
    41   27   24 1    
    42   28   27 1    
    43   29   28 1    
    44   59   28 1    
    45   60   28 1    
    46   30   29 1    
    47   31   29 1    
    48   61   29 1    
    49   35   30 1    
    50   32   31 1    
    51   33   31 1    
    52   62   31 1    
    53   72   32 1    
    54   34   33 1    
    55   35   33 1    
    56   63   33 1    
    57   73   34 1    
    58   36   35 1    
    59   64   35 1    
    60   37   36 ar   
    61   44   36 ar   
    62   38   37 ar   
    63   65   37 1    
    64   39   38 1    
    65   42   38 ar   
    66   40   39 2    
    67   41   39 am   
    68   66   41 1    
    69   67   41 1    
    70   43   42 ar   
    71   68   42 1    
    72   44   43 ar   
    73   69   43 1    
    74   70   44 1    
    75   46   45 ar   
    76   47   45 ar   
    77   48   45 ar   
@<TRIPOS>SUBSTRUCTURE
     1 NAP301      1 GROUP   
@<TRIPOS>SET

