#    Name: 1FPC_1_CAVITY_N1_6.mol2
#    Modification time : Mon Mar 10 23:37:07 2014

@<TRIPOS>MOLECULE
1FPC_1_CAVITY_N1_6.mol2
  117     0     7     0     0
SMALL
NO_CHARGES


@<TRIPOS>ATOM
      1 CZ         20.3864  -17.3063   20.9059 C.ar      5 PHE5        0.0000 
      2 OG         20.4360  -15.4869   22.7599 O.2       1 SER1        0.0000 
      3 DU         19.2266  -15.8798   21.9642 H         7 CUB7        0.0000 
      4 OG         20.0463  -15.8588   20.7081 O.2       1 SER1        0.0000 
      5 DU         18.0173  -16.2726   21.1685 H         7 CUB7        0.0000 
      6 CZ         18.8369  -16.2517   19.9124 C.ar      5 PHE5        0.0000 
      7 N          15.1686  -16.7073   22.8850 N.2       2 ALA2        0.0000 
      8 N          13.9593  -17.1002   22.0893 N.2       2 ALA2        0.0000 
      9 NZ         14.7789  -17.0792   20.8332 N.2       4 LYS4        0.0000 
     10 NZ         12.7499  -17.4930   21.2936 N.2       4 LYS4        0.0000 
     11 CA         21.3053  -13.6466   23.3579 C.3       6 GLY6        0.0000 
     12 CA         22.1249  -13.6257   22.1018 C.3       6 GLY6        0.0000 
     13 CA         20.0959  -14.0394   22.5622 C.3       6 GLY6        0.0000 
     14 OG         20.9156  -14.0185   21.3061 O.2       1 SER1        0.0000 
     15 CA         18.0669  -14.4532   23.0225 C.3       6 GLY6        0.0000 
     16 DU         18.8866  -14.4323   21.7665 H         7 CUB7        0.0000 
     17 CZ         19.7062  -14.4113   20.5104 C.ar      5 PHE5        0.0000 
     18 CZ         20.5259  -14.3904   19.2543 C.ar      5 PHE5        0.0000 
     19 N          16.8576  -14.8461   22.2268 N.2       2 ALA2        0.0000 
     20 DU         17.6772  -14.8251   20.9707 H         7 CUB7        0.0000 
     21 CZ         18.4969  -14.8042   19.7147 C.ar      5 PHE5        0.0000 
     22 CZ         19.3165  -14.7832   18.4586 C.ar      5 PHE5        0.0000 
     23 CZ         20.1362  -14.7623   17.2025 C.ar      5 PHE5        0.0000 
     24 N          15.6482  -15.2389   21.4311 N.2       2 ALA2        0.0000 
     25 NZ         16.4679  -15.2180   20.1750 N.2       4 LYS4        0.0000 
     26 CZ         17.2875  -15.1970   18.9190 C.ar      5 PHE5        0.0000 
     27 N          13.6192  -15.6527   21.8915 N.2       2 ALA2        0.0000 
     28 NZ         14.4389  -15.6317   20.6354 N.2       4 LYS4        0.0000 
     29 CZ         19.3568  -15.5061   13.0989 C.ar      5 PHE5        0.0000 
     30 NZ         12.4099  -16.0455   21.0958 N.2       4 LYS4        0.0000 
     31 CA         20.5755  -12.5710   21.1083 C.3       6 GLY6        0.0000 
     32 CZ         21.3952  -12.5501   19.8522 C.ar      5 PHE5        0.0000 
     33 CA         18.5465  -12.9848   21.5687 C.3       6 GLY6        0.0000 
     34 CA         19.3662  -12.9638   20.3126 C.3       6 GLY6        0.0000 
     35 CA         20.1858  -12.9429   19.0565 C.3       6 GLY6        0.0000 
     36 CZ         21.0054  -12.9220   17.8004 C.ar      5 PHE5        0.0000 
     37 CA         16.5175  -13.3986   22.0291 C.3       6 GLY6        0.0000 
     38 DU         17.3372  -13.3776   20.7730 H         7 CUB7        0.0000 
     39 DU         18.1568  -13.3567   19.5169 H         7 CUB7        0.0000 
     40 CA         18.9764  -13.3357   18.2608 C.3       6 GLY6        0.0000 
     41 OD1        19.7961  -13.3148   17.0047 O.3       3 ASP3        0.0000 
     42 N          14.4885  -13.8123   22.4894 N.2       2 ALA2        0.0000 
     43 DU         15.3082  -13.7914   21.2333 H         7 CUB7        0.0000 
     44 DU         16.1278  -13.7705   19.9773 H         7 CUB7        0.0000 
     45 DU         16.9474  -13.7495   18.7212 H         7 CUB7        0.0000 
     46 CZ         17.7671  -13.7286   17.4651 C.ar      5 PHE5        0.0000 
     47 CZ         18.5867  -13.7076   16.2090 C.ar      5 PHE5        0.0000 
     48 N          12.4595  -14.2261   22.9498 N.2       2 ALA2        0.0000 
     49 N          13.2792  -14.2052   21.6937 N.2       2 ALA2        0.0000 
     50 NZ         14.0988  -14.1842   20.4376 N.2       4 LYS4        0.0000 
     51 NZ         14.9184  -14.1633   19.1816 N.2       4 LYS4        0.0000 
     52 NZ         15.7381  -14.1424   17.9255 N.2       4 LYS4        0.0000 
     53 CZ         16.5577  -14.1214   16.6694 C.ar      5 PHE5        0.0000 
     54 CZ         17.3774  -14.1005   15.4133 C.ar      5 PHE5        0.0000 
     55 OD1        18.1970  -14.0795   14.1572 O.3       3 ASP3        0.0000 
     56 OD1        19.0167  -14.0586   12.9012 O.3       3 ASP3        0.0000 
     57 CA         19.8363  -14.0377   11.6451 C.3       6 GLY6        0.0000 
     58 NZ         12.0698  -14.5980   20.8980 N.2       4 LYS4        0.0000 
     59 NZ         15.3484  -14.5143   15.8737 N.2       4 LYS4        0.0000 
     60 DU         16.1680  -14.4933   14.6176 H         7 CUB7        0.0000 
     61 DU         16.9877  -14.4724   13.3615 H         7 CUB7        0.0000 
     62 N          18.2064  -11.5373   21.3709 N.2       2 ALA2        0.0000 
     63 CA         16.1774  -11.9511   21.8313 C.3       6 GLY6        0.0000 
     64 N          16.9971  -11.9301   20.5752 N.2       2 ALA2        0.0000 
     65 N          17.8167  -11.9092   19.3191 N.2       2 ALA2        0.0000 
     66 OD1        19.4560  -11.8673   16.8070 O.3       3 ASP3        0.0000 
     67 O          13.3288  -12.3858   23.5477 O.2       2 ALA2        0.0000 
     68 O          14.1484  -12.3649   22.2917 O.2       2 ALA2        0.0000 
     69 OG         14.9681  -12.3439   21.0356 O.2       1 SER1        0.0000 
     70 OG         15.7877  -12.3230   19.7795 O.2       1 SER1        0.0000 
     71 N          16.6074  -12.3020   18.5234 N.2       2 ALA2        0.0000 
     72 CA         17.4270  -12.2811   17.2673 C.3       6 GLY6        0.0000 
     73 OD1        18.2467  -12.2601   16.0112 O.3       3 ASP3        0.0000 
     74 N          11.2998  -12.7996   24.0081 N.2       2 ALA2        0.0000 
     75 N          12.1194  -12.7786   22.7520 N.2       2 ALA2        0.0000 
     76 DU         12.9391  -12.7577   21.4959 H         7 CUB7        0.0000 
     77 OG         13.7587  -12.7367   20.2399 O.2       1 SER1        0.0000 
     78 OG         14.5784  -12.7158   18.9838 O.2       1 SER1        0.0000 
     79 OG         15.3980  -12.6949   17.7277 O.2       1 SER1        0.0000 
     80 DU         16.2177  -12.6739   16.4716 H         7 CUB7        0.0000 
     81 OD1        17.0373  -12.6530   15.2155 O.3       3 ASP3        0.0000 
     82 CA         10.9101  -13.1715   21.9563 C.3       6 GLY6        0.0000 
     83 O          11.7297  -13.1505   20.7002 O.2       2 ALA2        0.0000 
     84 CA         12.5494  -13.1296   19.4442 C.3       6 GLY6        0.0000 
     85 CA         13.3690  -13.1086   18.1881 C.3       6 GLY6        0.0000 
     86 CA         14.1887  -13.0877   16.9320 C.3       6 GLY6        0.0000 
     87 DU         15.0083  -13.0668   15.6759 H         7 CUB7        0.0000 
     88 DU         15.8280  -13.0458   14.4198 H         7 CUB7        0.0000 
     89 OD1        16.6476  -13.0249   13.1638 O.3       3 ASP3        0.0000 
     90 OD1        17.4673  -13.0039   11.9077 O.3       3 ASP3        0.0000 
     91 CA         13.7990  -13.4596   14.8802 C.3       6 GLY6        0.0000 
     92 DU         14.6186  -13.4387   13.6241 H         7 CUB7        0.0000 
     93 N          12.1691  -10.9592   24.6060 N.2       2 ALA2        0.0000 
     94 N          12.9887  -10.9383   23.3500 N.2       2 ALA2        0.0000 
     95 N          13.8084  -10.9174   22.0939 N.2       2 ALA2        0.0000 
     96 OG         14.6280  -10.8964   20.8378 O.2       1 SER1        0.0000 
     97 N          17.0870  -10.8336   17.0696 N.2       2 ALA2        0.0000 
     98 OD1        17.9066  -10.8126   15.8135 O.3       3 ASP3        0.0000 
     99 N          10.9597  -11.3521   23.8103 N.2       2 ALA2        0.0000 
    100 O          11.7794  -11.3311   22.5543 O.2       2 ALA2        0.0000 
    101 N          12.5990  -11.3102   21.2982 N.2       2 ALA2        0.0000 
    102 OG         13.4187  -11.2893   20.0421 O.2       1 SER1        0.0000 
    103 OG         15.8776  -11.2264   16.2738 O.2       1 SER1        0.0000 
    104 OD1        16.6973  -11.2055   15.0178 O.3       3 ASP3        0.0000 
    105 O          10.5700  -11.7240   21.7585 O.2       2 ALA2        0.0000 
    106 O          13.8486  -11.6402   16.7342 O.2       2 ALA2        0.0000 
    107 O          14.6683  -11.6193   15.4781 O.2       2 ALA2        0.0000 
    108 N          15.4879  -11.5983   14.2221 N.2       2 ALA2        0.0000 
    109 N          16.3076  -11.5774   12.9660 N.2       2 ALA2        0.0000 
    110 CA         12.6487   -9.4908   23.1522 C.3       6 GLY6        0.0000 
    111 CA         13.4683   -9.4699   21.8961 C.3       6 GLY6        0.0000 
    112 CA         11.4393   -9.8836   22.3565 C.3       6 GLY6        0.0000 
    113 CA         12.2589   -9.8627   21.1004 C.3       6 GLY6        0.0000 
    114 CA         15.5375   -9.7789   16.0761 C.3       6 GLY6        0.0000 
    115 CA         16.3572   -9.7580   14.8200 C.3       6 GLY6        0.0000 
    116 N          17.1768   -9.7371   13.5639 N.2       2 ALA2        0.0000 
    117 O          14.3282  -10.1718   15.2804 O.2       2 ALA2        0.0000 
@<TRIPOS>BOND
@<TRIPOS>SUBSTRUCTURE
     1 SER1        2 GROUP   
     2 ALA2        7 GROUP   
     3 ASP3       41 GROUP   
     4 LYS4        9 GROUP   
     5 PHE5        1 GROUP   
     6 GLY6       11 GROUP   
     7 CUB7        3 GROUP   
@<TRIPOS>SET

