#    Name: 1fpc_0ZI_1_INTS_M
#    Modification time : Tue Mar 25 01:51:02 2014

@<TRIPOS>MOLECULE
1fpc_0ZI_1_INTS_M
   53     0     9     0     0
SMALL
NO_CHARGES


@<TRIPOS>ATOM
      1 CA         16.3545  -16.9190   27.2405 C.3       3 GLC5        0.0000 
      2 CA         17.8740  -16.2710   25.8910 C.3       9 GLL5        0.0000 
      3 CA         14.8350  -17.5670   28.5900 C.3       6 GLP5        0.0000 
      4 CA         22.9700  -13.1340   26.5675 C.3       3 GLC5        0.0000 
      5 CA         21.6710  -13.9230   24.9480 C.3       9 GLL5        0.0000 
      6 CA         24.2690  -12.3450   28.1870 C.3       6 GLP5        0.0000 
      7 CA         21.2440  -12.4620   24.2420 C.3       3 GLC5        0.0000 
      8 CA         20.8170  -11.0010   23.5360 C.3       6 GLP5        0.0000 
      9 O          14.4510  -15.8140   23.6330 O.2       1 ALC1        0.0000 
     10 O          14.6980  -16.2450   22.3190 O.2       7 ALL1        0.0000 
     11 O          14.2040  -15.3830   24.9470 O.2       4 ALP1        0.0000 
     12 N          15.4950  -13.3680   24.2340 N.am      2 SEC2        0.0000 
     13 N          16.1180  -13.9270   22.9870 N.am      8 SEL2        0.0000 
     14 N          14.8720  -12.8090   25.4810 N.am      5 SEP2        0.0000 
     15 O          10.6155  -14.0555   23.4015 O.2       1 ALC1        0.0000 
     16 O          10.9800  -12.7740   22.5580 O.2       7 ALL1        0.0000 
     17 O          10.2510  -15.3370   24.2450 O.2       4 ALP1        0.0000 
     18 O          12.9740  -10.6435   21.9490 O.2       1 ALC1        0.0000 
     19 O          11.8990  -10.7000   22.7900 O.2       7 ALL1        0.0000 
     20 O          14.0490  -10.5870   21.1080 O.2       4 ALP1        0.0000 
     21 O           9.2480  -12.1850   25.1945 O.2       1 ALC1        0.0000 
     22 O          10.6820  -11.7010   24.4910 O.2       7 ALL1        0.0000 
     23 O           7.8140  -12.6690   25.8980 O.2       4 ALP1        0.0000 
     24 O          10.3775  -12.5165   25.6850 O.2       1 ALC1        0.0000 
     25 O          10.0730  -13.3320   26.8790 O.2       4 ALP1        0.0000 
     26 CA         17.7365  -12.2145   23.1200 C.3       3 GLC5        0.0000 
     27 CA         17.8720  -12.8090   21.3660 C.3       9 GLL5        0.0000 
     28 CA         17.6010  -11.6200   24.8740 C.3       6 GLP5        0.0000 
     29 CA         18.4030  -15.4585   17.3910 C.3       3 GLC5        0.0000 
     30 CA         17.7980  -14.0640   18.5390 C.3       9 GLL5        0.0000 
     31 CA         19.0080  -16.8530   16.2430 C.3       6 GLP5        0.0000 
     32 CA         19.5925  -15.0115   17.3635 C.3       3 GLC5        0.0000 
     33 CA         20.1770  -13.1700   18.4840 C.3       9 GLL5        0.0000 
     34 CA         20.2800  -14.9585   16.2855 C.3       3 GLC5        0.0000 
     35 CA         20.3190  -13.0360   16.9390 C.3       9 GLL5        0.0000 
     36 CA         20.2410  -16.8810   15.6320 C.3       6 GLP5        0.0000 
     37 CA         20.6370  -11.9495   15.1730 C.3       3 GLC5        0.0000 
     38 CA         20.9550  -10.8630   13.4070 C.3       6 GLP5        0.0000 
     39 CA         10.1100  -12.9560   20.6807 C.3       3 GLC5        0.0000 
     40 CA         11.9190  -14.5210   21.3030 C.3       9 GLL5        0.0000 
     41 CA          8.5400  -12.0570   20.1100 C.3       6 GLP5        0.0000 
     42 CA         11.2795  -13.3875   19.2413 C.3       3 GLC5        0.0000 
     43 CA         11.4410  -13.1890   21.2000 C.3       9 GLL5        0.0000 
     44 CA         10.8790  -12.9200   17.2310 C.3       6 GLP5        0.0000 
     45 CA         10.0350  -14.4915   21.1777 C.3       3 GLC5        0.0000 
     46 CA          8.3900  -15.1280   21.1040 C.3       6 GLP5        0.0000 
     47 CA         19.6707  -11.9187   22.2560 C.3       3 GLC5        0.0000 
     48 CA         19.0275  -11.1890   19.1450 C.3       3 GLC5        0.0000 
     49 CA         19.1770  -12.8640   20.5860 C.3       9 GLL5        0.0000 
     50 CA         19.0340   -9.4840   18.4930 C.3       6 GLP5        0.0000 
     51 CA         19.6410  -11.2935   18.1023 C.3       3 GLC5        0.0000 
     52 CA         21.7755  -14.0650   17.6513 C.3       3 GLC5        0.0000 
     53 CA         23.3030  -15.0270   17.5910 C.3       6 GLP5        0.0000 
@<TRIPOS>BOND
@<TRIPOS>SUBSTRUCTURE
     1 ALC1        9 GROUP        1 X    ALC  0     ROOT ALC X 1
     2 SEC2       12 GROUP        1 X    SEC  0     **** SEC X 2
     3 GLC5        1 GROUP        1 X    GLC  0     **** GLC X 6
     4 ALP1       11 GROUP        1 Y    ALP  0     ROOT ALP Y 8
     5 SEP2       14 GROUP        1 Y    SEP  0     **** SEP Y 9
     6 GLP5        3 GROUP        1 Y    GLP  0     **** GLP Y 13
     7 ALL1       10 GROUP        1 Z    ALL  0     ROOT ALL Z 15
     8 SEL2       13 GROUP        1 Z    SEL  0     **** SEL Z 16
     9 GLL5        2 GROUP        1 Z    GLL  0     **** GLL Z 20
@<TRIPOS>SET

