#    Name: 1fpc_0ZI_1_ligand
#    Modification time : Tue Mar 25 01:51:02 2014

@<TRIPOS>MOLECULE
1fpc_0ZI_1_ligand
   74    76     1     0     0
SMALL
NO_CHARGES


@<TRIPOS>ATOM
      1 C1         17.5650  -17.0930   22.3550 C.ar      1 0ZI371      0.0000 
      2 C2         18.3640  -17.0780   21.1800 C.ar      1 0ZI371      0.0000 
      3 C3         19.6660  -16.6580   21.2390 C.ar      1 0ZI371      0.0000 
      4 C4         20.2110  -16.2220   22.4590 C.ar      1 0ZI371      0.0000 
      5 C4A        19.4500  -16.2300   23.6240 C.ar      1 0ZI371      0.0000 
      6 C5         19.9740  -15.8220   24.8170 C.ar      1 0ZI371      0.0000 
      7 C6         19.2000  -15.7920   25.9650 C.ar      1 0ZI371      0.0000 
      8 C7         17.8740  -16.2710   25.8910 C.ar      1 0ZI371      0.0000 
      9 C8         17.3140  -16.6790   24.6970 C.ar      1 0ZI371      0.0000 
     10 C8A        18.0840  -16.6810   23.5630 C.ar      1 0ZI371      0.0000 
     11 N          21.2910  -15.3480   24.8670 N.3       1 0ZI371      0.0000 
     12 CM1        21.6710  -13.9230   24.9480 C.3       1 0ZI371      0.0000 
     13 CM2        22.2730  -16.2210   25.8110 C.3       1 0ZI371      0.0000 
     14 S          15.7800  -17.6380   22.1970 S.o2      1 0ZI371      0.0000 
     15 O1S        15.6560  -18.0790   20.7840 O.2       1 0ZI371      0.0000 
     16 O2S        15.0610  -18.5890   23.1260 O.2       1 0ZI371      0.0000 
     17 N1         14.6980  -16.2450   22.3190 N.pl3     1 0ZI371      0.0000 
     18 CA         14.7870  -15.1650   21.3470 C.3       1 0ZI371      0.0000 
     19 C          15.8750  -14.1850   21.7940 C.2       1 0ZI371      0.0000 
     20 O          16.1180  -13.9270   22.9870 O.2       1 0ZI371      0.0000 
     21 CB         13.4540  -14.4560   21.2730 C.3       1 0ZI371      0.0000 
     22 CG         11.9190  -14.5210   21.3030 C.3       1 0ZI371      0.0000 
     23 CD         11.4410  -13.1890   21.2000 C.3       1 0ZI371      0.0000 
     24 NE         10.9800  -12.7740   22.5580 N.pl3     1 0ZI371      0.0000 
     25 CZ         11.1730  -11.7290   23.3130 C.cat     1 0ZI371      0.0000 
     26 NH1        11.8990  -10.7000   22.7900 N.pl3     1 0ZI371      0.0000 
     27 NH2        10.6820  -11.7010   24.4910 N.pl3     1 0ZI371      0.0000 
     28 N11        16.8870  -13.8810   20.8120 N.am      1 0ZI371      0.0000 
     29 C21        17.8720  -12.8090   21.3660 C.3       1 0ZI371      0.0000 
     30 C31        19.1770  -12.8640   20.5860 C.3       1 0ZI371      0.0000 
     31 C41        18.8650  -12.9240   19.0080 C.3       1 0ZI371      0.0000 
     32 C51        17.7980  -14.0640   18.5390 C.3       1 0ZI371      0.0000 
     33 C61        16.4600  -13.9480   19.3070 C.3       1 0ZI371      0.0000 
     34 C1'        20.1770  -13.1700   18.4840 C.3       1 0ZI371      0.0000 
     35 C2'        20.3190  -13.0360   16.9390 C.3       1 0ZI371      0.0000 
     36 H          17.9424  -17.3875   20.2949 H         1 0ZI371      0.0000 
     37 H          20.2599  -16.6555   20.3974 H         1 0ZI371      0.0000 
     38 H          21.1884  -15.8929   22.4848 H         1 0ZI371      0.0000 
     39 H          19.5647  -15.4376   26.8421 H         1 0ZI371      0.0000 
     40 H          17.3155  -16.3124   26.7662 H         1 0ZI371      0.0000 
     41 H          16.3308  -16.9769   24.6634 H         1 0ZI371      0.0000 
     42 H          14.0996  -16.3248   23.0711 H         1 0ZI371      0.0000 
     43 H          15.0419  -15.5421   20.3804 H         1 0ZI371      0.0000 
     44 H          13.6419  -13.6583   20.2725 H         1 0ZI371      0.0000 
     45 H          13.6665  -13.4286   22.0294 H         1 0ZI371      0.0000 
     46 H          11.6280  -14.9945   22.2362 H         1 0ZI371      0.0000 
     47 H          11.5997  -15.1412   20.4705 H         1 0ZI371      0.0000 
     48 H          10.6009  -13.1140   20.5075 H         1 0ZI371      0.0000 
     49 H          12.2240  -12.5034   20.8719 H         1 0ZI371      0.0000 
     50 H          10.3142  -13.5914   22.9806 H         1 0ZI371      0.0000 
     51 H          12.2405  -10.8309   21.8593 H         1 0ZI371      0.0000 
     52 H          12.0260   -9.9050   23.3832 H         1 0ZI371      0.0000 
     53 H          10.8291  -10.8584   25.0091 H         1 0ZI371      0.0000 
     54 H          10.1964  -12.5243   24.7850 H         1 0ZI371      0.0000 
     55 H          18.0562  -13.0182   22.4105 H         1 0ZI371      0.0000 
     56 H          17.4167  -11.8346   21.2572 H         1 0ZI371      0.0000 
     57 H          19.7348  -13.7502   20.8356 H         1 0ZI371      0.0000 
     58 H          19.7656  -11.9800   20.7622 H         1 0ZI371      0.0000 
     59 H          18.5084  -11.9666   18.7243 H         1 0ZI371      0.0000 
     60 H          18.2569  -15.0235   18.7272 H         1 0ZI371      0.0000 
     61 H          17.6357  -13.9290   17.4797 H         1 0ZI371      0.0000 
     62 H          15.9729  -13.0491   19.0456 H         1 0ZI371      0.0000 
     63 H          15.8800  -14.8156   19.1505 H         1 0ZI371      0.0000 
     64 H          20.5347  -14.1953   18.7480 H         1 0ZI371      0.0000 
     65 H          20.9307  -12.4780   18.9334 H         1 0ZI371      0.0000 
     66 H          22.6636  -13.8042   24.9741 H         1 0ZI371      0.0000 
     67 H          21.3342  -13.4036   24.1626 H         1 0ZI371      0.0000 
     68 H          21.3019  -13.4863   25.7684 H         1 0ZI371      0.0000 
     69 H          23.2035  -15.8548   25.8181 H         1 0ZI371      0.0000 
     70 H          21.9575  -16.2382   26.7598 H         1 0ZI371      0.0000 
     71 H          22.3342  -17.1711   25.5052 H         1 0ZI371      0.0000 
     72 H          21.2533  -13.2213   16.6345 H         1 0ZI371      0.0000 
     73 H          19.7207  -13.6741   16.4543 H         1 0ZI371      0.0000 
     74 H          20.0846  -12.1167   16.6228 H         1 0ZI371      0.0000 
@<TRIPOS>BOND
     1    2    1 ar   
     2   10    1 ar   
     3   14    1 1    
     4    3    2 ar   
     5   36    2 1    
     6    4    3 ar   
     7   37    3 1    
     8    5    4 ar   
     9   38    4 1    
    10    6    5 ar   
    11   10    5 ar   
    12    7    6 ar   
    13   11    6 1    
    14    8    7 ar   
    15   39    7 1    
    16    9    8 ar   
    17   40    8 1    
    18   10    9 ar   
    19   41    9 1    
    20   12   11 1    
    21   13   11 1    
    22   66   12 1    
    23   67   12 1    
    24   68   12 1    
    25   69   13 1    
    26   70   13 1    
    27   71   13 1    
    28   15   14 2    
    29   16   14 2    
    30   17   14 1    
    31   18   17 1    
    32   42   17 1    
    33   19   18 1    
    34   21   18 1    
    35   43   18 1    
    36   20   19 2    
    37   28   19 am   
    38   22   21 1    
    39   44   21 1    
    40   45   21 1    
    41   23   22 1    
    42   46   22 1    
    43   47   22 1    
    44   24   23 1    
    45   48   23 1    
    46   49   23 1    
    47   25   24 ar   
    48   50   24 1    
    49   26   25 ar   
    50   27   25 ar   
    51   51   26 1    
    52   52   26 1    
    53   53   27 1    
    54   54   27 1    
    55   29   28 1    
    56   33   28 1    
    57   30   29 1    
    58   55   29 1    
    59   56   29 1    
    60   31   30 1    
    61   57   30 1    
    62   58   30 1    
    63   32   31 1    
    64   34   31 1    
    65   59   31 1    
    66   33   32 1    
    67   60   32 1    
    68   61   32 1    
    69   62   33 1    
    70   63   33 1    
    71   35   34 1    
    72   64   34 1    
    73   65   34 1    
    74   72   35 1    
    75   73   35 1    
    76   74   35 1    
@<TRIPOS>SUBSTRUCTURE
     1 0ZI371      1 GROUP   
@<TRIPOS>SET

