#    Name: 1ry2_AMP_1_INTS_M
#    Modification time : Tue Mar 25 01:28:23 2014

@<TRIPOS>MOLECULE
1ry2_AMP_1_INTS_M
   43     0     9     0     0
SMALL
NO_CHARGES


@<TRIPOS>ATOM
      1 N          95.2180   30.5320   -4.0505 N.am      2 SEC2        0.0000 
      2 N          94.6390   31.3810   -5.0920 N.am      8 SEL2        0.0000 
      3 N          95.7970   29.6830   -3.0090 N.am      5 SEP2        0.0000 
      4 N          94.7485   30.1240   -5.3525 N.am      2 SEC2        0.0000 
      5 N          94.8580   28.8670   -5.6130 N.am      5 SEP2        0.0000 
      6 CA         94.6905   32.7375   -2.5330 C.3       3 GLC5        0.0000 
      7 CA         93.7850   34.0320   -3.7180 C.3       9 GLL5        0.0000 
      8 CA         95.5960   31.4430   -1.3480 C.3       6 GLP5        0.0000 
      9 CA         95.8930   34.8795   -2.0140 C.3       3 GLC5        0.0000 
     10 CA         94.7910   36.1930   -2.9090 C.3       9 GLL5        0.0000 
     11 CA         96.9950   33.5660   -1.1190 C.3       6 GLP5        0.0000 
     12 N          97.1570   35.9945   -2.8950 N.am      2 SEC2        0.0000 
     13 N          95.8280   36.7950   -3.6550 N.am      8 SEL2        0.0000 
     14 N          98.4860   35.1940   -2.1350 N.am      5 SEP2        0.0000 
     15 N          96.6780   37.0620   -4.6805 N.am      2 SEC2        0.0000 
     16 N          97.5280   37.3290   -5.7060 N.am      5 SEP2        0.0000 
     17 O          96.4460   37.7555   -2.7970 O.2       1 ALC1        0.0000 
     18 O          95.8280   36.7950   -3.6550 O.2       7 ALL1        0.0000 
     19 O          97.0640   38.7160   -1.9390 O.2       4 ALP1        0.0000 
     20 O          95.7540   38.6035   -2.0735 O.2       1 ALC1        0.0000 
     21 O          94.4440   38.4910   -2.2080 O.2       7 ALL1        0.0000 
     22 N          89.1900   34.8900   -0.4695 N.am      2 SEC2        0.0000 
     23 N          90.5820   35.4410    0.2660 N.am      8 SEL2        0.0000 
     24 N          87.7980   34.3390   -1.2050 N.am      5 SEP2        0.0000 
     25 O          87.8355   37.2360    3.1490 O.2       1 ALC1        0.0000 
     26 O          89.0460   36.6050    2.5040 O.2       7 ALL1        0.0000 
     27 O          86.6250   37.8670    3.7940 O.2       4 ALP1        0.0000 
     28 O          89.3695   35.3425    2.8325 O.2       1 ALC1        0.0000 
     29 O          89.6930   34.0800    3.1610 O.2       4 ALP1        0.0000 
     30 CA         89.3020   39.0065   -0.8435 C.3       3 GLC5        0.0000 
     31 CA         90.3860   39.5390    0.7540 C.3       9 GLL5        0.0000 
     32 CA         88.2180   38.4740   -2.4410 C.3       6 GLP5        0.0000 
     33 CA         89.0030   40.5520    0.2400 C.3       3 GLC5        0.0000 
     34 CA         87.6200   41.5650   -0.2740 C.3       6 GLP5        0.0000 
     35 CA         91.9400   40.4360    0.9750 C.3       3 GLC5        0.0000 
     36 CA         93.4940   41.3330    1.1960 C.3       6 GLP5        0.0000 
     37 CA         94.7392   37.0555   -0.5602 C.3       3 GLC5        0.0000 
     38 CA         94.0160   37.1690   -2.0440 C.3       9 GLL5        0.0000 
     39 CA         95.0750   37.4300    1.3560 C.3       6 GLP5        0.0000 
     40 CA         91.0968   36.1350    2.4630 C.3       3 GLC5        0.0000 
     41 CA         90.4110   36.7420    0.5720 C.3       9 GLL5        0.0000 
     42 CA         92.1390   35.2250    3.8320 C.3       6 GLP5        0.0000 
     43 CA         89.3984   37.8815   -1.0387 C.3       3 GLC5        0.0000 
@<TRIPOS>BOND
@<TRIPOS>SUBSTRUCTURE
     1 ALC1       17 GROUP        1 X    ALC  0     ROOT ALC X 1
     2 SEC2        1 GROUP        1 X    SEC  0     **** SEC X 2
     3 GLC5        6 GROUP        1 X    GLC  0     **** GLC X 6
     4 ALP1       19 GROUP        1 Y    ALP  0     ROOT ALP Y 8
     5 SEP2        3 GROUP        1 Y    SEP  0     **** SEP Y 9
     6 GLP5        8 GROUP        1 Y    GLP  0     **** GLP Y 13
     7 ALL1       18 GROUP        1 Z    ALL  0     ROOT ALL Z 15
     8 SEL2        2 GROUP        1 Z    SEL  0     **** SEL Z 16
     9 GLL5        7 GROUP        1 Z    GLL  0     **** GLL Z 20
@<TRIPOS>SET

