#    Name: 1ry2_AMP_1_ligand
#    Modification time : Tue Mar 25 01:28:23 2014

@<TRIPOS>MOLECULE
1ry2_AMP_1_ligand
   35    37     1     0     0
SMALL
NO_CHARGES


@<TRIPOS>ATOM
      1 P          93.1760   31.8950   -5.0810 P.3       1 AMP720      0.0000 
      2 O1P        92.4060   31.2350   -3.9030 O.co2     1 AMP720      0.0000 
      3 O2P        92.5120   31.5620   -6.3640 O.co2     1 AMP720      0.0000 
      4 O3P        94.6390   31.3810   -5.0920 O.co2     1 AMP720      0.0000 
      5 O5'        93.2100   33.4780   -4.8730 O.3       1 AMP720      0.0000 
      6 C5'        93.7850   34.0320   -3.7180 C.3       1 AMP720      0.0000 
      7 C4'        93.7570   35.5350   -3.8010 C.3       1 AMP720      0.0000 
      8 O4'        92.4780   36.0650   -3.4520 O.3       1 AMP720      0.0000 
      9 C3'        94.7910   36.1930   -2.9090 C.3       1 AMP720      0.0000 
     10 O3'        95.8280   36.7950   -3.6550 O.3       1 AMP720      0.0000 
     11 C2'        94.0160   37.1690   -2.0440 C.3       1 AMP720      0.0000 
     12 O2'        94.4440   38.4910   -2.2080 O.3       1 AMP720      0.0000 
     13 C1'        92.5530   37.0430   -2.4200 C.3       1 AMP720      0.0000 
     14 N9         91.6990   36.6530   -1.2520 N.pl3     1 AMP720      0.0000 
     15 C8         91.3650   35.3810   -0.8450 C.2       1 AMP720      0.0000 
     16 N7         90.5820   35.4410    0.2660 N.2       1 AMP720      0.0000 
     17 C5         90.4110   36.7420    0.5720 C.ar      1 AMP720      0.0000 
     18 C6         89.6980   37.3480    1.6160 C.ar      1 AMP720      0.0000 
     19 N6         89.0460   36.6050    2.5040 N.pl3     1 AMP720      0.0000 
     20 N1         89.7030   38.7600    1.6820 N.ar      1 AMP720      0.0000 
     21 C2         90.3860   39.5390    0.7540 C.ar      1 AMP720      0.0000 
     22 N3         91.1000   38.9280   -0.2890 N.ar      1 AMP720      0.0000 
     23 C4         91.1030   37.5330   -0.3670 C.ar      1 AMP720      0.0000 
     24 H          94.8341   33.7197   -3.5890 H         1 AMP720      0.0000 
     25 H          93.2452   33.7334   -2.8046 H         1 AMP720      0.0000 
     26 H          93.9991   35.8259   -4.8366 H         1 AMP720      0.0000 
     27 H          95.1677   35.4094   -2.2419 H         1 AMP720      0.0000 
     28 H          94.1074   36.8342   -1.0112 H         1 AMP720      0.0000 
     29 H          92.2262   38.0079   -2.7956 H         1 AMP720      0.0000 
     30 H          91.6496   34.5698   -1.2896 H         1 AMP720      0.0000 
     31 H          88.2260   37.0150    2.9034 H         1 AMP720      0.0000 
     32 H          89.4342   35.7029    2.6927 H         1 AMP720      0.0000 
     33 H          90.3716   40.5631    0.8268 H         1 AMP720      0.0000 
     34 H          95.8725   37.7371   -3.3225 H         1 AMP720      0.0000 
     35 H          95.4405   38.4513   -2.1342 H         1 AMP720      0.0000 
@<TRIPOS>BOND
     1    2    1 ar   
     2    3    1 ar   
     3    4    1 ar   
     4    5    1 1    
     5    6    5 1    
     6    7    6 1    
     7   24    6 1    
     8   25    6 1    
     9    8    7 1    
    10    9    7 1    
    11   26    7 1    
    12   13    8 1    
    13   10    9 1    
    14   11    9 1    
    15   27    9 1    
    16   34   10 1    
    17   12   11 1    
    18   13   11 1    
    19   28   11 1    
    20   35   12 1    
    21   14   13 1    
    22   29   13 1    
    23   15   14 1    
    24   23   14 1    
    25   16   15 2    
    26   30   15 1    
    27   17   16 1    
    28   18   17 ar   
    29   23   17 ar   
    30   19   18 1    
    31   20   18 ar   
    32   31   19 1    
    33   32   19 1    
    34   21   20 ar   
    35   22   21 ar   
    36   33   21 1    
    37   23   22 ar   
@<TRIPOS>SUBSTRUCTURE
     1 AMP720      1 GROUP   
@<TRIPOS>SET

