#    Name: 3be9_P04_1_INTS_M
#    Modification time : Mon Mar 24 19:19:33 2014

@<TRIPOS>MOLECULE
3be9_P04_1_INTS_M
   74     0     9     0     0
SMALL
NO_CHARGES


@<TRIPOS>ATOM
      1 N          18.9855   10.9725   20.6430 N.am      2 SEC2        0.0000 
      2 N          19.8520    9.7850   20.2670 N.am      8 SEL2        0.0000 
      3 N          18.1190   12.1600   21.0190 N.am      5 SEP2        0.0000 
      4 CA         19.5575    7.8435   18.6120 C.3       3 GLC5        0.0000 
      5 CA         21.0430    9.2650   18.4140 C.3       9 GLL5        0.0000 
      6 CA         18.0720    6.4220   18.8100 C.3       6 GLP5        0.0000 
      7 CA         20.0405    7.0400   19.9325 C.3       3 GLC5        0.0000 
      8 CA         21.4070    8.3690   19.4940 C.3       9 GLL5        0.0000 
      9 CA         18.6740    5.7110   20.3710 C.3       6 GLP5        0.0000 
     10 CA         21.1900    6.5770   18.2350 C.3       3 GLC5        0.0000 
     11 CA         20.9730    4.7850   16.9760 C.3       6 GLP5        0.0000 
     12 O          18.8340    9.3160   22.8660 O.2       1 ALC1        0.0000 
     13 O          20.0240    8.5140   22.7680 O.2       7 ALL1        0.0000 
     14 O          17.6440   10.1180   22.9640 O.2       4 ALP1        0.0000 
     15 CA         19.3880    6.7495   22.2030 C.3       3 GLC5        0.0000 
     16 CA         20.1020    7.7880   24.0350 C.3       9 GLL5        0.0000 
     17 CA         22.9180    8.0015   25.3310 C.3       3 GLC5        0.0000 
     18 CA         21.1270    8.4590   24.9540 C.3       9 GLL5        0.0000 
     19 CA         24.7090    7.5440   25.7080 C.3       6 GLP5        0.0000 
     20 CA         22.2045    9.7475   23.4825 C.3       3 GLC5        0.0000 
     21 CA         23.2820   11.0360   22.0110 C.3       6 GLP5        0.0000 
     22 CA         20.9470   10.4940   24.8090 C.3       3 GLC5        0.0000 
     23 CA         20.7670   12.5290   24.6640 C.3       6 GLP5        0.0000 
     24 CA         19.6095   10.6605   25.2925 C.3       3 GLC5        0.0000 
     25 CA         19.6250    8.6740   25.1890 C.3       9 GLL5        0.0000 
     26 CA         19.5940   12.6470   25.3960 C.3       6 GLP5        0.0000 
     27 CA         17.6555    9.7180   24.9925 C.3       3 GLC5        0.0000 
     28 CA         15.6860   10.7620   24.7960 C.3       6 GLP5        0.0000 
     29 CA         25.2060    6.3835   20.4995 C.3       3 GLC5        0.0000 
     30 CA         23.9800    4.9910   20.1530 C.3       9 GLL5        0.0000 
     31 CA         26.4320    7.7760   20.8460 C.3       6 GLP5        0.0000 
     32 CA         27.3625    2.6190   20.7495 C.3       3 GLC5        0.0000 
     33 CA         25.5220    3.1510   19.8160 C.3       9 GLL5        0.0000 
     34 CA         29.2030    2.0870   21.6830 C.3       6 GLP5        0.0000 
     35 O          25.3810    3.7100   15.6170 O.2       1 ALC1        0.0000 
     36 O          25.0850    4.8270   16.6100 O.2       7 ALL1        0.0000 
     37 O          25.6770    2.5930   14.6240 O.2       4 ALP1        0.0000 
     38 N          26.3600    5.7395   13.8770 N.am      2 SEC2        0.0000 
     39 N          25.1020    5.9790   14.6700 N.am      8 SEL2        0.0000 
     40 N          27.6180    5.5000   13.0840 N.am      5 SEP2        0.0000 
     41 CA         26.5735    7.3290   15.6035 C.3       3 GLC5        0.0000 
     42 CA         24.8560    7.3170   16.5840 C.3       9 GLL5        0.0000 
     43 CA         28.2910    7.3410   14.6230 C.3       6 GLP5        0.0000 
     44 CA         25.4545    8.8265   15.3035 C.3       3 GLC5        0.0000 
     45 CA         26.0530   10.3360   14.0230 C.3       6 GLP5        0.0000 
     46 CA         22.1700    6.2300   16.7860 C.3       3 GLC5        0.0000 
     47 CA         23.3670    7.6750   16.5960 C.3       9 GLL5        0.0000 
     48 CA         22.7970   10.5770   18.3295 C.3       3 GLC5        0.0000 
     49 CA         21.5600    9.3760   16.9990 C.3       9 GLL5        0.0000 
     50 CA         24.0340   11.7780   19.6600 C.3       6 GLP5        0.0000 
     51 CA         22.4545   10.9580   16.2470 C.3       3 GLC5        0.0000 
     52 CA         23.3490   12.5400   15.4950 C.3       6 GLP5        0.0000 
     53 CA         22.0435   10.1690   19.7835 C.3       3 GLC5        0.0000 
     54 CA         22.8620   11.5210   20.6130 C.3       6 GLP5        0.0000 
     55 CA         20.2227    8.0938   16.5663 C.3       3 GLC5        0.0000 
     56 CA         19.1440    6.8670   15.4260 C.3       6 GLP5        0.0000 
     57 CA         18.2332    7.2940   23.8645 C.3       3 GLC5        0.0000 
     58 CA         16.6030    6.3570   23.1170 C.3       6 GLP5        0.0000 
     59 CA         26.1410    5.4357   19.0650 C.3       3 GLC5        0.0000 
     60 CA         24.1130    5.3020   18.7990 C.3       9 GLL5        0.0000 
     61 CA         27.7610    5.9350   19.7620 C.3       6 GLP5        0.0000 
     62 CA         22.7304    4.8219   17.8412 C.3       3 GLC5        0.0000 
     63 CA         24.9290    4.5710   17.9370 C.3       9 GLL5        0.0000 
     64 CA         25.8865    3.6700   22.0515 C.3       3 GLC5        0.0000 
     65 CA         26.6630    3.8120   23.8700 C.3       6 GLP5        0.0000 
     66 CA         26.4489    4.7739   19.8289 C.3       3 GLC5        0.0000 
     67 CA         24.6980    3.9050   20.6500 C.3       9 GLL5        0.0000 
     68 CA         24.2620    9.7473   15.8510 C.3       3 GLC5        0.0000 
     69 CA         23.0690    9.1300   16.9560 C.3       9 GLL5        0.0000 
     70 CA         25.3060   11.0920   14.9260 C.3       6 GLP5        0.0000 
     71 CA         24.2521    9.4260   18.1710 C.3       3 GLC5        0.0000 
     72 CA         24.9140   10.5390   19.5690 C.3       6 GLP5        0.0000 
     73 CA         21.1847    9.8500   15.4727 C.3       3 GLC5        0.0000 
     74 CA         20.0550   10.4470   13.9680 C.3       6 GLP5        0.0000 
@<TRIPOS>BOND
@<TRIPOS>SUBSTRUCTURE
     1 ALC1       12 GROUP        1 X    ALC  0     ROOT ALC X 1
     2 SEC2        1 GROUP        1 X    SEC  0     **** SEC X 2
     3 GLC5        4 GROUP        1 X    GLC  0     **** GLC X 6
     4 ALP1       14 GROUP        1 Y    ALP  0     ROOT ALP Y 8
     5 SEP2        3 GROUP        1 Y    SEP  0     **** SEP Y 9
     6 GLP5        6 GROUP        1 Y    GLP  0     **** GLP Y 13
     7 ALL1       13 GROUP        1 Z    ALL  0     ROOT ALL Z 15
     8 SEL2        2 GROUP        1 Z    SEL  0     **** SEL Z 16
     9 GLL5        5 GROUP        1 Z    GLL  0     **** GLL Z 20
@<TRIPOS>SET

