#    Name: 3be9_P04_1_ligand
#    Modification time : Mon Mar 24 19:19:33 2014

@<TRIPOS>MOLECULE
3be9_P04_1_ligand
   48    52     1     0     0
SMALL
NO_CHARGES


@<TRIPOS>ATOM
      1 N01        19.8520    9.7850   20.2670 N.2       1 P04501      0.0000 
      2 C02        20.0680   10.1140   18.9670 C.2       1 P04501      0.0000 
      3 C03        21.0430    9.2650   18.4140 C.2       1 P04501      0.0000 
      4 C04        21.4070    8.3690   19.4940 C.2       1 P04501      0.0000 
      5 N05        20.6640    8.7370   20.5790 N.pl3     1 P04501      0.0000 
      6 N06        22.2670    7.3390   19.6120 N.2       1 P04501      0.0000 
      7 C07        22.3540    6.7320   20.7960 C.2       1 P04501      0.0000 
      8 N08        21.6370    7.0920   21.8580 N.2       1 P04501      0.0000 
      9 C09        20.7880    8.1060   21.7270 C.2       1 P04501      0.0000 
     10 N10        20.0240    8.5140   22.7680 N.pl3     1 P04501      0.0000 
     11 C11        20.1020    7.7880   24.0350 C.3       1 P04501      0.0000 
     12 C12        21.1270    8.4590   24.9540 C.3       1 P04501      0.0000 
     13 C13        19.6250    8.6740   25.1890 C.3       1 P04501      0.0000 
     14 N17        23.1880    5.6780   21.0220 N.pl3     1 P04501      0.0000 
     15 C18        23.9800    4.9910   20.1530 C.ar      1 P04501      0.0000 
     16 C19        24.1130    5.3020   18.7990 C.ar      1 P04501      0.0000 
     17 C20        24.9290    4.5710   17.9370 C.ar      1 P04501      0.0000 
     18 C21        25.6290    3.4900   18.4670 C.ar      1 P04501      0.0000 
     19 C22        25.5220    3.1510   19.8160 C.ar      1 P04501      0.0000 
     20 C23        24.6980    3.9050   20.6500 C.ar      1 P04501      0.0000 
     21 N27        25.0850    4.8270   16.6100 N.am      1 P04501      0.0000 
     22 C28        25.0230    5.9710   15.8930 C.2       1 P04501      0.0000 
     23 O29        25.1020    5.9790   14.6700 O.2       1 P04501      0.0000 
     24 C30        24.8560    7.3170   16.5840 C.3       1 P04501      0.0000 
     25 C31        23.3670    7.6750   16.5960 C.3       1 P04501      0.0000 
     26 C32        23.0690    9.1300   16.9560 C.3       1 P04501      0.0000 
     27 C33        21.5600    9.3760   16.9990 C.3       1 P04501      0.0000 
     28 H          19.6330   10.8176   18.4741 H         1 P04501      0.0000 
     29 H          19.3898    9.3078   22.7189 H         1 P04501      0.0000 
     30 H          20.0163    6.9269   24.2578 H         1 P04501      0.0000 
     31 H          21.4528    9.2224   24.5047 H         1 P04501      0.0000 
     32 H          21.4180    7.8102   25.5746 H         1 P04501      0.0000 
     33 H          19.3672    8.1040   25.8957 H         1 P04501      0.0000 
     34 H          19.4019    9.5162   24.8259 H         1 P04501      0.0000 
     35 H          23.2273    5.3277   22.0709 H         1 P04501      0.0000 
     36 H          23.5793    6.1154   18.4167 H         1 P04501      0.0000 
     37 H          26.2404    2.9268   17.8493 H         1 P04501      0.0000 
     38 H          26.0448    2.3546   20.1901 H         1 P04501      0.0000 
     39 H          24.6187    3.6553   21.6494 H         1 P04501      0.0000 
     40 H          25.3078    3.9109   15.9954 H         1 P04501      0.0000 
     41 H          25.4005    8.0742   16.0411 H         1 P04501      0.0000 
     42 H          25.2152    7.2512   17.5995 H         1 P04501      0.0000 
     43 H          22.8486    7.0154   17.3138 H         1 P04501      0.0000 
     44 H          22.9413    7.4583   15.6006 H         1 P04501      0.0000 
     45 H          23.5178    9.7837   16.2116 H         1 P04501      0.0000 
     46 H          23.4967    9.3541   17.9306 H         1 P04501      0.0000 
     47 H          21.3523   10.3719   16.6086 H         1 P04501      0.0000 
     48 H          21.0631    8.6404   16.3672 H         1 P04501      0.0000 
@<TRIPOS>BOND
     1    2    1 2    
     2    5    1 1    
     3    3    2 1    
     4   28    2 1    
     5    4    3 2    
     6   27    3 1    
     7    5    4 1    
     8    6    4 1    
     9    9    5 1    
    10    7    6 2    
    11    8    7 1    
    12   14    7 1    
    13    9    8 2    
    14   10    9 1    
    15   11   10 1    
    16   29   10 1    
    17   12   11 1    
    18   13   11 1    
    19   30   11 1    
    20   13   12 1    
    21   31   12 1    
    22   32   12 1    
    23   33   13 1    
    24   34   13 1    
    25   15   14 1    
    26   35   14 1    
    27   16   15 ar   
    28   20   15 ar   
    29   17   16 ar   
    30   36   16 1    
    31   18   17 ar   
    32   21   17 1    
    33   19   18 ar   
    34   37   18 1    
    35   20   19 ar   
    36   38   19 1    
    37   39   20 1    
    38   22   21 am   
    39   40   21 1    
    40   23   22 2    
    41   24   22 1    
    42   25   24 1    
    43   41   24 1    
    44   42   24 1    
    45   26   25 1    
    46   43   25 1    
    47   44   25 1    
    48   27   26 1    
    49   45   26 1    
    50   46   26 1    
    51   47   27 1    
    52   48   27 1    
@<TRIPOS>SUBSTRUCTURE
     1 P04501      1 GROUP   
@<TRIPOS>SET

