#    Name: 10gs_VWW_2_INTS_M
#    Modification time : Mon Mar 24 17:41:54 2014

@<TRIPOS>MOLECULE
10gs_VWW_2_INTS_M
   65     0    15     0     0
SMALL
NO_CHARGES


@<TRIPOS>ATOM
      1 OD1        16.4855   11.6195   11.2410 O.co2     3 ASC3        0.0000 
      2 OD1        17.0770   12.9450   10.1620 O.co2    13 ASL3        0.0000 
      3 OD1        15.8940   10.2940   12.3200 O.co2     8 ASP3        0.0000 
      4 OD1        16.8765   11.4930   10.2265 O.co2     3 ASC3        0.0000 
      5 OD1        16.6760   10.0410   10.2910 O.co2     8 ASP3        0.0000 
      6 O          16.8765   11.4930   10.2265 O.2       1 ALC1        0.0000 
      7 O          17.0770   12.9450   10.1620 O.2      11 ALL1        0.0000 
      8 O          16.6760   10.0410   10.2910 O.2       6 ALP1        0.0000 
      9 O          18.3210   12.4640   10.1245 O.2       1 ALC1        0.0000 
     10 O          19.5650   11.9830   10.0870 O.2       6 ALP1        0.0000 
     11 N          20.2130   15.6765    8.8865 N.am      2 SEC2        0.0000 
     12 N          18.9400   15.3910    8.2880 N.am     12 SEL2        0.0000 
     13 N          21.4860   15.9620    9.4850 N.am      7 SEP2        0.0000 
     14 CA         16.0935   13.8565    5.2745 C.3       5 GLC5        0.0000 
     15 CA         16.1060   14.9030    7.0110 C.3      15 GLL5        0.0000 
     16 CA         16.0810   12.8100    3.5380 C.3      10 GLP5        0.0000 
     17 NZ         16.9095   16.2490   11.1730 N.4       4 LYC4        0.0000 
     18 NZ         18.3080   15.3650   10.3990 N.4      14 LYL4        0.0000 
     19 NZ         15.5110   17.1330   11.9470 N.4       9 LYP4        0.0000 
     20 N          19.8970   15.6635    9.9420 N.am      2 SEC2        0.0000 
     21 N          18.3080   15.3650   10.3990 N.am     12 SEL2        0.0000 
     22 N          19.0125   16.4245   10.7695 N.am      2 SEC2        0.0000 
     23 N          19.7170   17.4840   11.1400 N.am      7 SEP2        0.0000 
     24 O          16.0915   16.2115    4.8340 O.2       1 ALC1        0.0000 
     25 O          14.8420   15.8220    5.1910 O.2      11 ALL1        0.0000 
     26 O          17.3410   16.6010    4.4770 O.2       6 ALP1        0.0000 
     27 CA         14.8825   14.5920    4.0210 C.3       5 GLC5        0.0000 
     28 CA         13.6840   16.3740    4.5040 C.3      15 GLL5        0.0000 
     29 CA         14.2030   18.2720    2.5045 C.3       5 GLC5        0.0000 
     30 CA         13.8600   17.8800    4.3040 C.3      15 GLL5        0.0000 
     31 CA         14.5460   18.6640    0.7050 C.3      10 GLP5        0.0000 
     32 CA         10.2435   20.3290    6.2570 C.3       5 GLC5        0.0000 
     33 CA         12.1460   19.4180    5.8160 C.3      15 GLL5        0.0000 
     34 CA          8.3410   21.2400    6.6980 C.3      10 GLP5        0.0000 
     35 CA         13.3050   22.0200    1.4615 C.3       5 GLC5        0.0000 
     36 CA         11.8680   21.6090    2.7170 C.3      15 GLL5        0.0000 
     37 CA         14.7420   22.4310    0.2060 C.3      10 GLP5        0.0000 
     38 N          16.0170   15.2600    2.3990 N.am      2 SEC2        0.0000 
     39 N          14.5060   15.3670    2.4910 N.am     12 SEL2        0.0000 
     40 N          17.5280   15.1530    2.3070 N.am      7 SEP2        0.0000 
     41 CA         13.1230   16.7045    0.3815 C.3       5 GLC5        0.0000 
     42 CA         11.9530   15.1870    1.3570 C.3      15 GLL5        0.0000 
     43 CA         14.2930   18.2220   -0.5940 C.3      10 GLP5        0.0000 
     44 CA         13.0225   14.9860   -0.3890 C.3       5 GLC5        0.0000 
     45 CA         14.0920   14.7850   -2.1350 C.3      10 GLP5        0.0000 
     46 NZ         12.3665   11.6725   -0.2315 N.4       4 LYC4        0.0000 
     47 NZ         11.9040   13.1310    0.1760 N.4      14 LYL4        0.0000 
     48 NZ         12.8290   10.2140   -0.6390 N.4       9 LYP4        0.0000 
     49 N          12.3180   14.0215   -0.9665 N.am      2 SEC2        0.0000 
     50 N          11.9040   13.1310    0.1760 N.am     12 SEL2        0.0000 
     51 N          12.7320   14.9120   -2.1090 N.am      7 SEP2        0.0000 
     52 N          12.2735   12.8530    3.6895 N.am      2 SEC2        0.0000 
     53 N          11.6660   13.0220    2.3580 N.am     12 SEL2        0.0000 
     54 N          12.8810   12.6840    5.0210 N.am      7 SEP2        0.0000 
     55 CA         16.1363   16.3400    8.7435 C.3       5 GLC5        0.0000 
     56 CA         16.2330   18.0860    9.7860 C.3      10 GLP5        0.0000 
     57 CA         15.4880   19.4925    4.6223 C.3       5 GLC5        0.0000 
     58 CA         13.8640   18.8700    5.7950 C.3      15 GLL5        0.0000 
     59 CA         17.1140   20.6100    4.1950 C.3      10 GLP5        0.0000 
     60 CA         13.0252   22.9545    3.6050 C.3       5 GLC5        0.0000 
     61 CA         12.3090   21.0810    3.9290 C.3      15 GLL5        0.0000 
     62 CA         13.9620   24.5640    3.8870 C.3      10 GLP5        0.0000 
     63 CA         10.0907   22.6175    2.9233 C.3       5 GLC5        0.0000 
     64 CA         10.7810   21.0400    2.0710 C.3      15 GLL5        0.0000 
     65 CA          9.0180   24.1840    3.3110 C.3      10 GLP5        0.0000 
@<TRIPOS>BOND
@<TRIPOS>SUBSTRUCTURE
     1 ALC1        6 GROUP        1 X    ALC  0     ROOT ALC X 1
     2 SEC2       11 GROUP        1 X    SEC  0     **** SEC X 2
     3 ASC3        1 GROUP        1 X    ASC  0     **** ASC X 3
     4 LYC4       17 GROUP        1 X    LYC  0     **** LYC X 4
     5 GLC5       14 GROUP        1 X    GLC  0     **** GLC X 6
     6 ALP1        8 GROUP        1 Y    ALP  0     ROOT ALP Y 8
     7 SEP2       13 GROUP        1 Y    SEP  0     **** SEP Y 9
     8 ASP3        3 GROUP        1 Y    ASP  0     **** ASP Y 10
     9 LYP4       19 GROUP        1 Y    LYP  0     **** LYP Y 11
    10 GLP5       16 GROUP        1 Y    GLP  0     **** GLP Y 13
    11 ALL1        7 GROUP        1 Z    ALL  0     ROOT ALL Z 15
    12 SEL2       12 GROUP        1 Z    SEL  0     **** SEL Z 16
    13 ASL3        2 GROUP        1 Z    ASL  0     **** ASL Z 17
    14 LYL4       18 GROUP        1 Z    LYL  0     **** LYL Z 18
    15 GLL5       15 GROUP        1 Z    GLL  0     **** GLL Z 20
@<TRIPOS>SET

