#    Name: 10gs_VWW_2_ligand
#    Modification time : Mon Mar 24 17:41:54 2014

@<TRIPOS>MOLECULE
10gs_VWW_2_ligand
   59    60     1     0     0
SMALL
NO_CHARGES


@<TRIPOS>ATOM
      1 N          17.0770   12.9450   10.1620 N.4       1 VWW210      0.0000 
      2 CA         17.3060   13.7630    8.9400 C.3       1 VWW210      0.0000 
      3 C          18.2530   14.9310    9.2290 C.2       1 VWW210      0.0000 
      4 O          18.9400   15.3910    8.2880 O.co2     1 VWW210      0.0000 
      5 CB         15.9730   14.2850    8.3910 C.3       1 VWW210      0.0000 
      6 CG         16.1060   14.9030    7.0110 C.3       1 VWW210      0.0000 
      7 CD         14.8050   15.4310    6.4600 C.2       1 VWW210      0.0000 
      8 OE1        13.7830   15.4490    7.1460 O.2       1 VWW210      0.0000 
      9 OXT        18.3080   15.3650   10.3990 O.co2     1 VWW210      0.0000 
     10 N1         14.8420   15.8220    5.1910 N.am      1 VWW210      0.0000 
     11 CA1        13.6840   16.3740    4.5040 C.3       1 VWW210      0.0000 
     12 CB1        13.8600   17.8800    4.3040 C.3       1 VWW210      0.0000 
     13 SG         13.8640   18.8700    5.7950 S.3       1 VWW210      0.0000 
     14 CD1        12.1460   19.4180    5.8160 C.3       1 VWW210      0.0000 
     15 CE         11.6710   19.9860    4.5050 C.ar      1 VWW210      0.0000 
     16 CZ1        10.5840   19.4260    3.8470 C.ar      1 VWW210      0.0000 
     17 CZ2        12.3090   21.0810    3.9290 C.ar      1 VWW210      0.0000 
     18 CT1        10.1370   19.9460    2.6370 C.ar      1 VWW210      0.0000 
     19 CT2        11.8680   21.6090    2.7170 C.ar      1 VWW210      0.0000 
     20 CH         10.7810   21.0400    2.0710 C.ar      1 VWW210      0.0000 
     21 C1         13.5270   15.7540    3.1300 C.2       1 VWW210      0.0000 
     22 O1         14.5060   15.3670    2.4910 O.2       1 VWW210      0.0000 
     23 N2         12.2840   15.7050    2.6720 N.am      1 VWW210      0.0000 
     24 CA2        11.9530   15.1870    1.3570 C.3       1 VWW210      0.0000 
     25 CB2        10.8280   15.9430    0.7240 C.ar      1 VWW210      0.0000 
     26 CG1         9.5060   15.5560    0.9220 C.ar      1 VWW210      0.0000 
     27 CD11        8.4600   16.3040    0.3920 C.ar      1 VWW210      0.0000 
     28 CE1         8.7340   17.4490   -0.3450 C.ar      1 VWW210      0.0000 
     29 CD2        10.0510   17.8400   -0.5510 C.ar      1 VWW210      0.0000 
     30 CG2        11.0880   17.0860   -0.0190 C.ar      1 VWW210      0.0000 
     31 C2         11.8270   13.6650    1.2990 C.2       1 VWW210      0.0000 
     32 O2         11.9040   13.1310    0.1760 O.co2     1 VWW210      0.0000 
     33 OXT1       11.6660   13.0220    2.3580 O.co2     1 VWW210      0.0000 
     34 H          17.7614   13.1432    8.1710 H         1 VWW210      0.0000 
     35 H          15.5727   15.0330    9.0879 H         1 VWW210      0.0000 
     36 H          15.2579   13.4530    8.3500 H         1 VWW210      0.0000 
     37 H          16.5144   14.1467    6.3187 H         1 VWW210      0.0000 
     38 H          16.8420   15.7241    7.0567 H         1 VWW210      0.0000 
     39 H          15.7156   15.7518    4.6155 H         1 VWW210      0.0000 
     40 H          12.7829   16.2141    5.0594 H         1 VWW210      0.0000 
     41 H          13.0548   18.3252    3.7227 H         1 VWW210      0.0000 
     42 H          14.8125   18.1359    3.8437 H         1 VWW210      0.0000 
     43 H          12.1450   20.1340    6.6272 H         1 VWW210      0.0000 
     44 H          11.6237   18.5193    6.1165 H         1 VWW210      0.0000 
     45 H          10.0995   18.6111    4.2615 H         1 VWW210      0.0000 
     46 H          13.1203   21.5084    4.4058 H         1 VWW210      0.0000 
     47 H           9.3304   19.5211    2.1616 H         1 VWW210      0.0000 
     48 H          12.3493   22.4181    2.3056 H         1 VWW210      0.0000 
     49 H          10.4516   21.4246    1.1770 H         1 VWW210      0.0000 
     50 H          11.4700   16.0413    3.2424 H         1 VWW210      0.0000 
     51 H          12.8748   15.4225    0.6902 H         1 VWW210      0.0000 
     52 H           9.2997   14.7040    1.4685 H         1 VWW210      0.0000 
     53 H           7.4879   16.0098    0.5456 H         1 VWW210      0.0000 
     54 H           7.9642   18.0057   -0.7371 H         1 VWW210      0.0000 
     55 H          10.2569   18.6867   -1.0968 H         1 VWW210      0.0000 
     56 H          12.0674   17.3801   -0.1785 H         1 VWW210      0.0000 
     57 H          16.6687   13.4841   10.8987 H         1 VWW210      0.0000 
     58 H          16.4614   12.1771    9.9849 H         1 VWW210      0.0000 
     59 H          17.9294   12.5614   10.5173 H         1 VWW210      0.0000 
@<TRIPOS>BOND
     1    2    1 1    
     2   57    1 1    
     3   58    1 1    
     4   59    1 1    
     5    3    2 1    
     6    5    2 1    
     7   34    2 1    
     8    4    3 ar   
     9    9    3 ar   
    10    6    5 1    
    11   35    5 1    
    12   36    5 1    
    13    7    6 1    
    14   37    6 1    
    15   38    6 1    
    16    8    7 2    
    17   10    7 am   
    18   11   10 1    
    19   39   10 1    
    20   12   11 1    
    21   21   11 1    
    22   40   11 1    
    23   13   12 1    
    24   41   12 1    
    25   42   12 1    
    26   14   13 1    
    27   15   14 1    
    28   43   14 1    
    29   44   14 1    
    30   16   15 ar   
    31   17   15 ar   
    32   18   16 ar   
    33   45   16 1    
    34   19   17 ar   
    35   46   17 1    
    36   20   18 ar   
    37   47   18 1    
    38   20   19 ar   
    39   48   19 1    
    40   49   20 1    
    41   22   21 2    
    42   23   21 am   
    43   24   23 1    
    44   50   23 1    
    45   25   24 1    
    46   31   24 1    
    47   51   24 1    
    48   26   25 ar   
    49   30   25 ar   
    50   27   26 ar   
    51   52   26 1    
    52   28   27 ar   
    53   53   27 1    
    54   29   28 ar   
    55   54   28 1    
    56   30   29 ar   
    57   55   29 1    
    58   56   30 1    
    59   32   31 ar   
    60   33   31 ar   
@<TRIPOS>SUBSTRUCTURE
     1 VWW210      1 GROUP   
@<TRIPOS>SET

