#    Name: 4myq_19T_1_INTS_M
#    Modification time : Tue Mar 25 12:27:59 2014

@<TRIPOS>MOLECULE
4myq_19T_1_INTS_M
   63     0     9     0     0
SMALL
NO_CHARGES


@<TRIPOS>ATOM
      1 CA        -17.8675   31.6175   -5.7615 C.3       3 GLC5        0.0000 
      2 CA        -17.7070   32.6790   -7.6990 C.3       9 GLL5        0.0000 
      3 CA        -18.0280   30.5560   -3.8240 C.3       6 GLP5        0.0000 
      4 CA        -16.3100   37.9805   -7.0125 C.3       3 GLC5        0.0000 
      5 CA        -14.5480   36.6580   -6.7060 C.3       9 GLL5        0.0000 
      6 CA        -18.0720   39.3030   -7.3190 C.3       6 GLP5        0.0000 
      7 CA        -14.5410   33.8815   -3.5185 C.3       3 GLC5        0.0000 
      8 CA        -13.4460   34.6950   -5.0770 C.3       9 GLL5        0.0000 
      9 CA        -15.6360   33.0680   -1.9600 C.3       6 GLP5        0.0000 
     10 CA        -15.4325   33.3850   -4.5485 C.3       3 GLC5        0.0000 
     11 CA        -14.2120   34.2950   -6.1650 C.3       9 GLL5        0.0000 
     12 CA        -16.6530   32.4750   -2.9320 C.3       6 GLP5        0.0000 
     13 O         -12.9165   32.3910   -6.1415 O.2       1 ALC1        0.0000 
     14 O         -14.4410   32.9480   -6.3630 O.2       7 ALL1        0.0000 
     15 O         -11.3920   31.8340   -5.9200 O.2       4 ALP1        0.0000 
     16 CA        -16.1255   32.4535   -4.8770 C.3       3 GLC5        0.0000 
     17 CA        -15.5980   32.4320   -6.8220 C.3       9 GLL5        0.0000 
     18 CA        -12.6935   31.4495   -8.8075 C.3       3 GLC5        0.0000 
     19 CA        -13.6440   29.9980   -7.4360 C.3       9 GLL5        0.0000 
     20 CA        -11.7430   32.9010  -10.1790 C.3       6 GLP5        0.0000 
     21 CA        -13.5015   27.9925   -7.4920 C.3       3 GLC5        0.0000 
     22 CA        -13.3590   25.9870   -7.5480 C.3       6 GLP5        0.0000 
     23 CA        -14.9135   30.5245   -9.0000 C.3       3 GLC5        0.0000 
     24 CA        -16.1830   31.0510  -10.5640 C.3       6 GLP5        0.0000 
     25 CA        -17.5735   27.2885   -8.4265 C.3       3 GLC5        0.0000 
     26 CA        -17.2150   28.9930   -7.4070 C.3       9 GLL5        0.0000 
     27 CA        -17.9320   25.5840   -9.4460 C.3       6 GLP5        0.0000 
     28 CA        -18.2125   27.8300   -5.8735 C.3       3 GLC5        0.0000 
     29 CA        -19.2100   26.6670   -4.3400 C.3       6 GLP5        0.0000 
     30 CA        -17.6215   29.7745   -5.6155 C.3       3 GLC5        0.0000 
     31 CA        -16.6990   30.0220   -8.9855 C.3       3 GLC5        0.0000 
     32 N         -19.2795   30.5850   -8.0465 N.am      2 SEC2        0.0000 
     33 N         -17.9370   31.3340   -7.7830 N.am      8 SEL2        0.0000 
     34 N         -20.6220   29.8360   -8.3100 N.am      5 SEP2        0.0000 
     35 CA        -22.5500   33.6920   -9.4885 C.3       3 GLC5        0.0000 
     36 CA        -20.5170   34.4050   -9.2950 C.3       9 GLL5        0.0000 
     37 CA        -24.5830   32.9790   -9.6820 C.3       6 GLP5        0.0000 
     38 CA        -18.2380   37.2795   -7.7505 C.3       3 GLC5        0.0000 
     39 CA        -18.4040   35.2560   -8.1820 C.3       9 GLL5        0.0000 
     40 CA        -20.7780   38.2695  -10.6980 C.3       3 GLC5        0.0000 
     41 CA        -20.4560   37.2330   -9.3890 C.3       9 GLL5        0.0000 
     42 CA        -21.1000   39.3060  -12.0070 C.3       6 GLP5        0.0000 
     43 CA        -21.3483   36.6693   -7.9747 C.3       3 GLC5        0.0000 
     44 CA        -19.8550   35.5620   -8.9820 C.3       9 GLL5        0.0000 
     45 CA        -22.5410   36.9410   -6.7640 C.3       6 GLP5        0.0000 
     46 CA        -19.9675   35.7843  -11.0723 C.3       3 GLC5        0.0000 
     47 CA        -19.7490   36.5850  -13.0060 C.3       6 GLP5        0.0000 
     48 CA        -19.8193   37.8392   -7.9508 C.3       3 GLC5        0.0000 
     49 CA        -19.4830   39.2810   -6.7160 C.3       6 GLP5        0.0000 
     50 CA        -12.3180   37.1971   -6.6629 C.3       3 GLC5        0.0000 
     51 CA        -13.7920   37.0090   -5.5720 C.3       9 GLL5        0.0000 
     52 CA        -10.9640   37.7830   -7.9050 C.3       6 GLP5        0.0000 
     53 CA        -12.0645   34.8005   -6.7160 C.3       3 GLC5        0.0000 
     54 CA        -10.3000   35.1060   -7.8110 C.3       6 GLP5        0.0000 
     55 CA        -13.2910   29.8265   -5.0747 C.3       3 GLC5        0.0000 
     56 CA        -12.4100   29.5950   -3.2600 C.3       6 GLP5        0.0000 
     57 CA        -16.7880   30.4992   -5.2686 C.3       3 GLC5        0.0000 
     58 CA        -14.7000   30.1180   -6.3430 C.3       9 GLL5        0.0000 
     59 CA        -21.6088   34.0170   -7.8447 C.3       3 GLC5        0.0000 
     60 CA        -19.8080   33.2590   -8.8600 C.3       9 GLL5        0.0000 
     61 CA        -23.0550   34.2020   -6.6120 C.3       6 GLP5        0.0000 
     62 CA        -19.7507   32.9810  -10.7578 C.3       3 GLC5        0.0000 
     63 CA        -19.3390   32.1300  -12.4380 C.3       6 GLP5        0.0000 
@<TRIPOS>BOND
@<TRIPOS>SUBSTRUCTURE
     1 ALC1       13 GROUP        1 X    ALC  0     ROOT ALC X 1
     2 SEC2       32 GROUP        1 X    SEC  0     **** SEC X 2
     3 GLC5        1 GROUP        1 X    GLC  0     **** GLC X 6
     4 ALP1       15 GROUP        1 Y    ALP  0     ROOT ALP Y 8
     5 SEP2       34 GROUP        1 Y    SEP  0     **** SEP Y 9
     6 GLP5        3 GROUP        1 Y    GLP  0     **** GLP Y 13
     7 ALL1       14 GROUP        1 Z    ALL  0     ROOT ALL Z 15
     8 SEL2       33 GROUP        1 Z    SEL  0     **** SEL Z 16
     9 GLL5        2 GROUP        1 Z    GLL  0     **** GLL Z 20
@<TRIPOS>SET

