#    Name: 4myq_19T_1_ligand
#    Modification time : Tue Mar 25 12:27:59 2014

@<TRIPOS>MOLECULE
4myq_19T_1_ligand
   43    45     1     0     0
SMALL
NO_CHARGES


@<TRIPOS>ATOM
      1 C2        -17.7070   32.6790   -7.6990 C.ar      1 19T701      0.0000 
      2 C4        -16.9960   30.5010   -7.3390 C.ar      1 19T701      0.0000 
      3 C5        -15.7960   31.0330   -6.8280 C.ar      1 19T701      0.0000 
      4 C9        -19.8550   35.5620   -8.9820 C.2       1 19T701      0.0000 
      5 O26       -15.3430   38.8990   -3.7860 O.co2     1 19T701      0.0000 
      6 C24       -14.7370   39.1950   -4.8370 C.2       1 19T701      0.0000 
      7 O25       -15.0800   40.1180   -5.5630 O.co2     1 19T701      0.0000 
      8 C23       -13.4800   38.4800   -5.2500 C.3       1 19T701      0.0000 
      9 C20       -13.7920   37.0090   -5.5720 C.ar      1 19T701      0.0000 
     10 C19       -14.5480   36.6580   -6.7060 C.ar      1 19T701      0.0000 
     11 C18       -14.7710   35.2800   -7.0210 C.ar      1 19T701      0.0000 
     12 C21       -13.2520   36.0210   -4.7830 C.ar      1 19T701      0.0000 
     13 C22       -13.4460   34.6950   -5.0770 C.ar      1 19T701      0.0000 
     14 C17       -14.2120   34.2950   -6.1650 C.ar      1 19T701      0.0000 
     15 N16       -14.4410   32.9480   -6.3630 N.pl3     1 19T701      0.0000 
     16 C6        -15.5980   32.4320   -6.8220 C.ar      1 19T701      0.0000 
     17 C14       -14.7000   30.1180   -6.3430 C.3       1 19T701      0.0000 
     18 C15       -13.6440   29.9980   -7.4360 C.3       1 19T701      0.0000 
     19 C13       -17.2150   28.9930   -7.4070 C.3       1 19T701      0.0000 
     20 N3        -17.9370   31.3340   -7.7830 N.ar      1 19T701      0.0000 
     21 N7        -16.5420   33.1910   -7.2460 N.ar      1 19T701      0.0000 
     22 C7        -18.6340   33.6030   -8.2230 C.2       1 19T701      0.0000 
     23 C11       -19.8080   33.2590   -8.8600 C.2       1 19T701      0.0000 
     24 C10       -20.5170   34.4050   -9.2950 C.2       1 19T701      0.0000 
     25 S8        -18.4040   35.2560   -8.1820 S.3       1 19T701      0.0000 
     26 CL1       -20.4560   37.2330   -9.3890 Cl        1 19T701      0.0000 
     27 H         -12.7500   38.5136   -4.4452 H         1 19T701      0.0000 
     28 H         -13.0577   38.9488   -6.1352 H         1 19T701      0.0000 
     29 H         -14.9416   37.3784   -7.3103 H         1 19T701      0.0000 
     30 H         -15.3100   35.0216   -7.8283 H         1 19T701      0.0000 
     31 H         -12.6868   36.2847   -3.9490 H         1 19T701      0.0000 
     32 H         -13.0112   33.9639   -4.4738 H         1 19T701      0.0000 
     33 H         -13.6392   32.2813   -6.1331 H         1 19T701      0.0000 
     34 H         -15.1059   29.1373   -6.1304 H         1 19T701      0.0000 
     35 H         -14.2447   30.5290   -5.4511 H         1 19T701      0.0000 
     36 H         -20.1244   32.3558   -9.0015 H         1 19T701      0.0000 
     37 H         -21.3694   34.3504   -9.7581 H         1 19T701      0.0000 
     38 H         -13.2406   30.8848   -7.6616 H         1 19T701      0.0000 
     39 H         -12.8938   29.3957   -7.1631 H         1 19T701      0.0000 
     40 H         -14.0258   29.6259   -8.2820 H         1 19T701      0.0000 
     41 H         -16.5263   28.5430   -7.9755 H         1 19T701      0.0000 
     42 H         -17.1700   28.5700   -6.5020 H         1 19T701      0.0000 
     43 H         -18.1087   28.7645   -7.7932 H         1 19T701      0.0000 
@<TRIPOS>BOND
     1   20    1 ar   
     2   21    1 ar   
     3   22    1 1    
     4    3    2 ar   
     5   19    2 1    
     6   20    2 ar   
     7   16    3 ar   
     8   17    3 1    
     9   24    4 2    
    10   25    4 1    
    11   26    4 1    
    12    6    5 ar   
    13    7    6 ar   
    14    8    6 1    
    15    9    8 1    
    16   27    8 1    
    17   28    8 1    
    18   10    9 ar   
    19   12    9 ar   
    20   11   10 ar   
    21   29   10 1    
    22   14   11 ar   
    23   30   11 1    
    24   13   12 ar   
    25   31   12 1    
    26   14   13 ar   
    27   32   13 1    
    28   15   14 1    
    29   16   15 1    
    30   33   15 1    
    31   21   16 ar   
    32   18   17 1    
    33   34   17 1    
    34   35   17 1    
    35   38   18 1    
    36   39   18 1    
    37   40   18 1    
    38   41   19 1    
    39   42   19 1    
    40   43   19 1    
    41   23   22 2    
    42   25   22 1    
    43   24   23 1    
    44   36   23 1    
    45   37   24 1    
@<TRIPOS>SUBSTRUCTURE
     1 19T701      1 GROUP   
@<TRIPOS>SET

