#    Name: 2c2s_NDP_2_INTS_M
#    Modification time : Mon Mar 24 22:21:32 2014

@<TRIPOS>MOLECULE
2c2s_NDP_2_INTS_M
  111     0    12     0     0
SMALL
NO_CHARGES


@<TRIPOS>ATOM
      1 N          21.7220   38.9190   29.2825 N.am      2 SEC2        0.0000 
      2 N          21.6320   38.0420   30.5420 N.am     10 SEL2        0.0000 
      3 N          21.8120   39.7960   28.0230 N.am      6 SEP2        0.0000 
      4 N          25.2650   39.4040   30.4350 N.am      2 SEC2        0.0000 
      5 N          23.8660   39.0720   30.3260 N.am     10 SEL2        0.0000 
      6 N          26.6640   39.7360   30.5440 N.am      6 SEP2        0.0000 
      7 N          24.4490   39.5775   29.2610 N.am      2 SEC2        0.0000 
      8 N          25.0320   40.0830   28.1960 N.am      6 SEP2        0.0000 
      9 N          22.8390   39.4340   29.1745 N.am      2 SEC2        0.0000 
     10 N          24.7375   38.4440   32.8175 N.am      2 SEC2        0.0000 
     11 N          23.3610   37.8670   32.4020 N.am     10 SEL2        0.0000 
     12 N          26.1140   39.0210   33.2330 N.am      6 SEP2        0.0000 
     13 CA         24.4325   36.5015   33.2115 C.3       4 GLC5        0.0000 
     14 CA         22.5410   36.9930   33.1510 C.3      12 GLL5        0.0000 
     15 CA         26.3240   36.0100   33.2720 C.3       8 GLP5        0.0000 
     16 CA         23.6845   38.9370   35.2465 C.3       4 GLC5        0.0000 
     17 CA         22.2820   37.5930   34.5200 C.3      12 GLL5        0.0000 
     18 CA         25.0870   40.2810   35.9730 C.3       8 GLP5        0.0000 
     19 N          22.8920   39.8625   34.1265 N.am      2 SEC2        0.0000 
     20 N          21.7170   38.8960   34.3980 N.am     10 SEL2        0.0000 
     21 N          24.0670   40.8290   33.8550 N.am      6 SEP2        0.0000 
     22 CA         21.5500   40.3485   33.7675 C.3       4 GLC5        0.0000 
     23 CA         20.6460   39.0770   35.2980 C.3      12 GLL5        0.0000 
     24 CA         22.4540   41.6200   32.2370 C.3       8 GLP5        0.0000 
     25 CA         20.5535   40.4620   36.8855 C.3       4 GLC5        0.0000 
     26 CA         20.4610   41.8470   38.4730 C.3       8 GLP5        0.0000 
     27 N          18.0195   37.8215   32.1495 N.am      2 SEC2        0.0000 
     28 N          18.0060   38.9720   32.7840 N.am     10 SEL2        0.0000 
     29 N          18.0330   36.6710   31.5150 N.am      6 SEP2        0.0000 
     30 CA         18.2620   40.2760   32.1030 C.3       4 GLC5        0.0000 
     31 CA         17.3670   39.6390   33.7540 C.3      12 GLL5        0.0000 
     32 CA         19.1570   40.9130   30.4520 C.3       8 GLP5        0.0000 
     33 CA         16.6895   42.0670   33.2565 C.3       4 GLC5        0.0000 
     34 CA         16.0730   40.1730   33.8090 C.3      12 GLL5        0.0000 
     35 CA         17.3060   43.9610   32.7040 C.3       8 GLP5        0.0000 
     36 O          15.2560   39.2960   31.2000 O.2       1 ALC1        0.0000 
     37 O          15.3070   40.1610   32.7130 O.2       9 ALL1        0.0000 
     38 O          15.2050   38.4310   29.6870 O.2       5 ALP1        0.0000 
     39 O          14.4300   41.2030   32.5565 O.2       1 ALC1        0.0000 
     40 O          13.5530   42.2450   32.4000 O.2       5 ALP1        0.0000 
     41 N          14.2770   40.9065   35.2095 N.am      2 SEC2        0.0000 
     42 N          15.6760   40.8220   34.9590 N.am     10 SEL2        0.0000 
     43 N          12.8780   40.9910   35.4600 N.am      6 SEP2        0.0000 
     44 CA         17.7790   42.2850   35.2855 C.3       4 GLC5        0.0000 
     45 CA         16.5650   40.9370   36.0320 C.3      12 GLL5        0.0000 
     46 CA         18.9930   43.6330   34.5390 C.3       8 GLP5        0.0000 
     47 CA         16.5025   40.2945   38.0650 C.3       4 GLC5        0.0000 
     48 CA         16.4400   39.6520   40.0980 C.3       8 GLP5        0.0000 
     49 CA         15.2295   42.7020   36.1310 C.3       4 GLC5        0.0000 
     50 CA         13.8940   44.4670   36.2300 C.3       8 GLP5        0.0000 
     51 N          21.3195   36.0140   27.7165 N.am      2 SEC2        0.0000 
     52 N          22.3670   35.3740   28.4280 N.am     10 SEL2        0.0000 
     53 N          20.2720   36.6540   27.0050 N.am      6 SEP2        0.0000 
     54 CA         26.3245   36.6980   30.0860 C.3       4 GLC5        0.0000 
     55 CA         25.9920   36.5140   28.0800 C.3      12 GLL5        0.0000 
     56 CA         26.6570   36.8820   32.0920 C.3       8 GLP5        0.0000 
     57 CA         26.5105   38.5760   28.7675 C.3       4 GLC5        0.0000 
     58 CA         27.0290   40.6380   29.4550 C.3       8 GLP5        0.0000 
     59 CA         24.9670   34.5215   26.4320 C.3       4 GLC5        0.0000 
     60 CA         26.5240   35.7650   26.8480 C.3      12 GLL5        0.0000 
     61 CA         23.4100   33.2780   26.0160 C.3       8 GLP5        0.0000 
     62 CA         29.7775   35.0470   27.2320 C.3       4 GLC5        0.0000 
     63 CA         28.0160   35.9480   26.6130 C.3      12 GLL5        0.0000 
     64 CA         31.5390   34.1460   27.8510 C.3       8 GLP5        0.0000 
     65 O          29.4950   34.7105   24.6775 O.2       1 ALC1        0.0000 
     66 O          28.5270   34.8290   25.9490 O.2       9 ALL1        0.0000 
     67 O          30.4630   34.5920   23.4060 O.2       5 ALP1        0.0000 
     68 CA         29.4840   38.2330   26.9385 C.3       4 GLC5        0.0000 
     69 CA         28.0800   37.1440   25.7010 C.3      12 GLL5        0.0000 
     70 CA         30.8880   39.3220   28.1760 C.3       8 GLP5        0.0000 
     71 CA         27.1060   35.1820   23.9400 C.3       4 GLC5        0.0000 
     72 CA         26.8600   36.8770   24.8210 C.3      12 GLL5        0.0000 
     73 CA         27.3520   33.4870   23.0590 C.3       8 GLP5        0.0000 
     74 N          23.9315   40.2425   18.9965 N.am      2 SEC2        0.0000 
     75 N          24.4870   40.1540   20.3350 N.am     10 SEL2        0.0000 
     76 N          23.3760   40.3310   17.6580 N.am      6 SEP2        0.0000 
     77 O          24.9060   37.9660   19.0040 O.2       1 ALC1        0.0000 
     78 O          25.7480   38.2360   20.0710 O.2       9 ALL1        0.0000 
     79 O          24.0640   37.6960   17.9370 O.2       5 ALP1        0.0000 
     80 O          26.1525   36.9580   20.8310 O.2       1 ALC1        0.0000 
     81 O          26.5570   35.6800   21.5910 O.2       5 ALP1        0.0000 
     82 NZ         23.6110   36.9570   39.1575 N.4       3 LYC4        0.0000 
     83 NZ         21.8640   36.2880   38.7120 N.4      11 LYL4        0.0000 
     84 NZ         25.3580   37.6260   39.6030 N.4       7 LYP4        0.0000 
     85 NZ         23.9405   38.0415   39.5795 N.4       3 LYC4        0.0000 
     86 NZ         22.5230   38.4570   39.5560 N.4      11 LYL4        0.0000 
     87 N          23.9405   38.0415   39.5795 N.am      2 SEC2        0.0000 
     88 N          22.5230   38.4570   39.5560 N.am     10 SEL2        0.0000 
     89 N          25.3580   37.6260   39.6030 N.am      6 SEP2        0.0000 
     90 N          22.3535   39.7060   39.7590 N.am      2 SEC2        0.0000 
     91 N          22.1840   40.9550   39.9620 N.am      6 SEP2        0.0000 
     92 N          19.6365   39.3225   39.6825 N.am      2 SEC2        0.0000 
     93 N          20.0930   37.9660   39.2180 N.am     10 SEL2        0.0000 
     94 N          19.1800   40.6790   40.1470 N.am      6 SEP2        0.0000 
     95 CA         18.3995   41.6700   34.4153 C.3       4 GLC5        0.0000 
     96 CA         18.2450   39.7750   34.8290 C.3      12 GLL5        0.0000 
     97 CA         27.3110   34.6718   24.8947 C.3       4 GLC5        0.0000 
     98 CA         24.6193   37.1157   21.9950 C.3       4 GLC5        0.0000 
     99 CA         26.1710   38.1990   22.9020 C.3      12 GLL5        0.0000 
    100 CA         23.5270   35.5970   21.3620 C.3       8 GLP5        0.0000 
    101 CA         27.5347   38.5277   21.7610 C.3       4 GLC5        0.0000 
    102 CA         25.2520   39.0700   22.3540 C.3      12 GLL5        0.0000 
    103 CA         29.3580   38.4210   20.8940 C.3       8 GLP5        0.0000 
    104 CA         23.2095   40.7062   24.9860 C.3       4 GLC5        0.0000 
    105 CA         24.6160   40.1790   23.1530 C.3      12 GLL5        0.0000 
    106 CA         21.6850   41.3200   26.0900 C.3       8 GLP5        0.0000 
    107 CA         25.7005   40.8197   26.2558 C.3       4 GLC5        0.0000 
    108 CA         24.8520   40.0060   24.6110 C.3      12 GLL5        0.0000 
    109 CA         26.1440   42.1320   27.6550 C.3       8 GLP5        0.0000 
    110 CA         23.4840   39.0517   26.0263 C.3       4 GLC5        0.0000 
    111 CA         21.7110   38.5960   27.1960 C.3       8 GLP5        0.0000 
@<TRIPOS>BOND
@<TRIPOS>SUBSTRUCTURE
     1 ALC1       36 GROUP        1 X    ALC  0     ROOT ALC X 1
     2 SEC2        1 GROUP        1 X    SEC  0     **** SEC X 2
     3 LYC4       82 GROUP        1 X    LYC  0     **** LYC X 4
     4 GLC5       13 GROUP        1 X    GLC  0     **** GLC X 6
     5 ALP1       38 GROUP        1 Y    ALP  0     ROOT ALP Y 8
     6 SEP2        3 GROUP        1 Y    SEP  0     **** SEP Y 9
     7 LYP4       84 GROUP        1 Y    LYP  0     **** LYP Y 11
     8 GLP5       15 GROUP        1 Y    GLP  0     **** GLP Y 13
     9 ALL1       37 GROUP        1 Z    ALL  0     ROOT ALL Z 15
    10 SEL2        2 GROUP        1 Z    SEL  0     **** SEL Z 16
    11 LYL4       83 GROUP        1 Z    LYL  0     **** LYL Z 18
    12 GLL5       14 GROUP        1 Z    GLL  0     **** GLL Z 20
@<TRIPOS>SET

