#    Name: 2c2s_NDP_2_ligand
#    Modification time : Mon Mar 24 22:21:32 2014

@<TRIPOS>MOLECULE
2c2s_NDP_2_ligand
   74    78     1     0     0
SMALL
NO_CHARGES


@<TRIPOS>ATOM
      1 PA         23.0790   37.9410   30.8420 P.3       1 NDP1187     0.0000 
      2 O1A        21.6320   38.0420   30.5420 O.co2     1 NDP1187     0.0000 
      3 O2A        23.8660   39.0720   30.3260 O.co2     1 NDP1187     0.0000 
      4 O5B        23.3610   37.8670   32.4020 O.3       1 NDP1187     0.0000 
      5 C5B        22.5410   36.9930   33.1510 C.3       1 NDP1187     0.0000 
      6 C4B        22.2820   37.5930   34.5200 C.3       1 NDP1187     0.0000 
      7 O4B        21.7170   38.8960   34.3980 O.3       1 NDP1187     0.0000 
      8 C3B        21.3070   36.7920   35.3580 C.3       1 NDP1187     0.0000 
      9 O3B        21.9280   35.7530   36.0920 O.3       1 NDP1187     0.0000 
     10 C2B        20.7390   37.8930   36.2300 C.3       1 NDP1187     0.0000 
     11 O2B        21.6400   38.2980   37.2320 O.3       1 NDP1187     0.0000 
     12 C1B        20.6460   39.0770   35.2980 C.3       1 NDP1187     0.0000 
     13 N9A        19.4190   39.1500   34.4780 N.pl3     1 NDP1187     0.0000 
     14 C8A        19.2570   38.6790   33.2060 C.2       1 NDP1187     0.0000 
     15 N7A        18.0060   38.9720   32.7840 N.2       1 NDP1187     0.0000 
     16 C5A        17.3670   39.6390   33.7540 C.ar      1 NDP1187     0.0000 
     17 C6A        16.0730   40.1730   33.8090 C.ar      1 NDP1187     0.0000 
     18 N6A        15.3070   40.1610   32.7130 N.pl3     1 NDP1187     0.0000 
     19 N1A        15.6760   40.8220   34.9590 N.ar      1 NDP1187     0.0000 
     20 C2A        16.5650   40.9370   36.0320 C.ar      1 NDP1187     0.0000 
     21 N3A        17.8460   40.4070   35.9670 N.ar      1 NDP1187     0.0000 
     22 C4A        18.2450   39.7750   34.8290 C.ar      1 NDP1187     0.0000 
     23 O3         23.6420   36.4730   30.3980 O.3       1 NDP1187     0.0000 
     24 PN         23.7130   35.5600   29.0340 P.3       1 NDP1187     0.0000 
     25 O1N        24.5630   34.4020   29.4100 O.co2     1 NDP1187     0.0000 
     26 O2N        22.3670   35.3740   28.4280 O.co2     1 NDP1187     0.0000 
     27 O5D        24.5700   36.5010   28.0360 O.3       1 NDP1187     0.0000 
     28 C5D        25.9920   36.5140   28.0800 C.3       1 NDP1187     0.0000 
     29 C4D        26.5240   35.7650   26.8480 C.3       1 NDP1187     0.0000 
     30 O4D        25.9060   36.2160   25.6490 O.3       1 NDP1187     0.0000 
     31 C3D        28.0160   35.9480   26.6130 C.3       1 NDP1187     0.0000 
     32 O3D        28.5270   34.8290   25.9490 O.3       1 NDP1187     0.0000 
     33 C2D        28.0800   37.1440   25.7010 C.3       1 NDP1187     0.0000 
     34 O2D        29.3000   37.2040   25.0000 O.3       1 NDP1187     0.0000 
     35 C1D        26.8600   36.8770   24.8210 C.3       1 NDP1187     0.0000 
     36 N1N        26.2760   38.1140   24.2600 N.pl3     1 NDP1187     0.0000 
     37 C2N        26.1710   38.1990   22.9020 C.2       1 NDP1187     0.0000 
     38 C3N        25.2520   39.0700   22.3540 C.2       1 NDP1187     0.0000 
     39 C7N        25.2070   39.1480   20.8740 C.2       1 NDP1187     0.0000 
     40 O7N        24.4870   40.1540   20.3350 O.2       1 NDP1187     0.0000 
     41 N7N        25.7480   38.2360   20.0710 N.am      1 NDP1187     0.0000 
     42 C4N        24.6160   40.1790   23.1530 C.3       1 NDP1187     0.0000 
     43 C5N        24.8520   40.0060   24.6110 C.2       1 NDP1187     0.0000 
     44 C6N        25.6620   39.0090   25.1020 C.2       1 NDP1187     0.0000 
     45 P2B        21.5040   37.7400   38.7220 P.3       1 NDP1187     0.0000 
     46 O1X        21.8640   36.2880   38.7120 O.co2     1 NDP1187     0.0000 
     47 O2X        22.5230   38.4570   39.5560 O.co2     1 NDP1187     0.0000 
     48 O3X        20.0930   37.9660   39.2180 O.co2     1 NDP1187     0.0000 
     49 H          23.0118   36.0122   33.2979 H         1 NDP1187     0.0000 
     50 H          21.5692   36.8261   32.6683 H         1 NDP1187     0.0000 
     51 H          23.2207   37.6486   35.0644 H         1 NDP1187     0.0000 
     52 H          20.5222   36.4662   34.7054 H         1 NDP1187     0.0000 
     53 H          19.7893   37.6486   36.5625 H         1 NDP1187     0.0000 
     54 H          20.7860   39.9773   35.8568 H         1 NDP1187     0.0000 
     55 H          19.9320   38.2128   32.6967 H         1 NDP1187     0.0000 
     56 H          14.9855   41.0515   32.3910 H         1 NDP1187     0.0000 
     57 H          15.1244   39.2626   32.3136 H         1 NDP1187     0.0000 
     58 H          16.2570   41.4287   36.8911 H         1 NDP1187     0.0000 
     59 H          26.3814   36.0099   28.9654 H         1 NDP1187     0.0000 
     60 H          26.3959   37.5267   28.0495 H         1 NDP1187     0.0000 
     61 H          26.3429   34.7010   26.9806 H         1 NDP1187     0.0000 
     62 H          28.4785   36.1771   27.5220 H         1 NDP1187     0.0000 
     63 H          27.8607   38.0074   26.2931 H         1 NDP1187     0.0000 
     64 H          27.1740   36.2184   24.0208 H         1 NDP1187     0.0000 
     65 H          26.7651   37.6251   22.2901 H         1 NDP1187     0.0000 
     66 H          26.2401   37.4904   20.5204 H         1 NDP1187     0.0000 
     67 H          25.6139   38.3782   19.0903 H         1 NDP1187     0.0000 
     68 H          23.5366   40.1933   22.9493 H         1 NDP1187     0.0000 
     69 H          25.0280   41.1415   22.8204 H         1 NDP1187     0.0000 
     70 H          24.3746   40.6749   25.2310 H         1 NDP1187     0.0000 
     71 H          25.8120   38.9318   26.1296 H         1 NDP1187     0.0000 
     72 H          21.8197   36.0135   37.0514 H         1 NDP1187     0.0000 
     73 H          29.2551   35.1857   25.3637 H         1 NDP1187     0.0000 
     74 H          29.7654   38.0129   25.3594 H         1 NDP1187     0.0000 
@<TRIPOS>BOND
     1    2    1 ar   
     2    3    1 ar   
     3    4    1 1    
     4   23    1 1    
     5    5    4 1    
     6    6    5 1    
     7   49    5 1    
     8   50    5 1    
     9    7    6 1    
    10    8    6 1    
    11   51    6 1    
    12   12    7 1    
    13    9    8 1    
    14   10    8 1    
    15   52    8 1    
    16   72    9 1    
    17   11   10 1    
    18   12   10 1    
    19   53   10 1    
    20   45   11 1    
    21   13   12 1    
    22   54   12 1    
    23   14   13 1    
    24   22   13 1    
    25   15   14 2    
    26   55   14 1    
    27   16   15 1    
    28   17   16 ar   
    29   22   16 ar   
    30   18   17 1    
    31   19   17 ar   
    32   56   18 1    
    33   57   18 1    
    34   20   19 ar   
    35   21   20 ar   
    36   58   20 1    
    37   22   21 ar   
    38   24   23 1    
    39   25   24 ar   
    40   26   24 ar   
    41   27   24 1    
    42   28   27 1    
    43   29   28 1    
    44   59   28 1    
    45   60   28 1    
    46   30   29 1    
    47   31   29 1    
    48   61   29 1    
    49   35   30 1    
    50   32   31 1    
    51   33   31 1    
    52   62   31 1    
    53   73   32 1    
    54   34   33 1    
    55   35   33 1    
    56   63   33 1    
    57   74   34 1    
    58   36   35 1    
    59   64   35 1    
    60   37   36 1    
    61   44   36 1    
    62   38   37 2    
    63   65   37 1    
    64   39   38 1    
    65   42   38 1    
    66   40   39 2    
    67   41   39 am   
    68   66   41 1    
    69   67   41 1    
    70   43   42 1    
    71   68   42 1    
    72   69   42 1    
    73   44   43 2    
    74   70   43 1    
    75   71   44 1    
    76   46   45 ar   
    77   47   45 ar   
    78   48   45 ar   
@<TRIPOS>SUBSTRUCTURE
     1 NDP1187     1 GROUP   
@<TRIPOS>SET

