#    Name: 1RKW_1_CAVITY_N1_6.mol2
#    Modification time : Tue Mar 11 06:04:06 2014

@<TRIPOS>MOLECULE
1RKW_1_CAVITY_N1_6.mol2
  153     0     6     0     0
SMALL
NO_CHARGES


@<TRIPOS>ATOM
      1 O         -56.1628  -44.4630   -0.8936 O.2       2 ALA2        0.0000 
      2 DU        -58.1183  -46.8483   -2.2111 H         6 CUB7        0.0000 
      3 O         -58.5416  -45.4285   -2.4455 O.2       2 ALA2        0.0000 
      4 CZ        -59.3077  -47.3311   -2.9871 C.ar      4 PHE5        0.0000 
      5 OG        -59.7311  -45.9113   -3.2215 O.2       1 SER1        0.0000 
      6 CA        -55.7465  -46.8860    2.8754 C.3       5 GLY6        0.0000 
      7 CA        -56.1699  -45.4663    2.6410 C.3       5 GLY6        0.0000 
      8 NZ        -56.9359  -47.3688    2.0995 N.2       3 LYS4        0.0000 
      9 CA        -57.3593  -45.9490    1.8650 C.3       5 GLY6        0.0000 
     10 O         -57.7826  -44.5292    1.6306 O.2       2 ALA2        0.0000 
     11 CZ        -58.1254  -47.8516    1.3235 C.ar      4 PHE5        0.0000 
     12 CZ        -58.5487  -46.4318    1.0890 C.ar      4 PHE5        0.0000 
     13 O         -58.9721  -45.0120    0.8546 O.2       2 ALA2        0.0000 
     14 CZ        -59.7382  -46.9146    0.3131 C.ar      4 PHE5        0.0000 
     15 CZ        -60.1615  -45.4948    0.0786 C.ar      4 PHE5        0.0000 
     16 CZ        -60.9276  -47.3974   -0.4629 C.ar      4 PHE5        0.0000 
     17 OG        -61.3509  -45.9776   -0.6973 O.2       1 SER1        0.0000 
     18 N         -62.1170  -47.8802   -1.2389 N.2       2 ALA2        0.0000 
     19 CZ        -68.6334  -45.2726    7.1269 C.ar      4 PHE5        0.0000 
     20 CZ        -69.0567  -43.8528    6.8925 C.ar      4 PHE5        0.0000 
     21 DU        -69.3994  -47.1751    6.5854 H         6 CUB7        0.0000 
     22 N         -69.8228  -45.7553    6.3509 N.2       2 ALA2        0.0000 
     23 N         -70.2462  -44.3355    6.1165 N.2       2 ALA2        0.0000 
     24 N         -70.6695  -42.9158    5.8821 N.2       2 ALA2        0.0000 
     25 N         -71.0929  -41.4960    5.6477 N.2       2 ALA2        0.0000 
     26 O         -70.5889  -47.6579    5.8094 O.2       2 ALA2        0.0000 
     27 N         -71.0122  -46.2381    5.5750 N.2       2 ALA2        0.0000 
     28 O         -71.7783  -48.1407    5.0334 O.2       2 ALA2        0.0000 
     29 NZ        -60.1686  -46.4981    3.6132 N.2       3 LYS4        0.0000 
     30 CA        -60.5920  -45.0783    3.3788 C.3       5 GLY6        0.0000 
     31 CZ        -61.3580  -46.9809    2.8373 C.ar      4 PHE5        0.0000 
     32 CZ        -61.7814  -45.5611    2.6028 C.ar      4 PHE5        0.0000 
     33 CZ        -62.5475  -47.4637    2.0613 C.ar      4 PHE5        0.0000 
     34 CZ        -62.9708  -46.0439    1.8268 C.ar      4 PHE5        0.0000 
     35 CZ        -63.7369  -47.9465    1.2853 C.ar      4 PHE5        0.0000 
     36 OG        -64.1603  -46.5267    1.0509 O.2       1 SER1        0.0000 
     37 OG        -64.5836  -45.1069    0.8164 O.2       1 SER1        0.0000 
     38 CZ        -65.0070  -43.6871    0.5820 C.ar      4 PHE5        0.0000 
     39 CA        -64.9264  -48.4292    0.5093 C.3       5 GLY6        0.0000 
     40 CA        -65.3497  -47.0094    0.2749 C.3       5 GLY6        0.0000 
     41 OG        -65.7731  -45.5897    0.0405 O.2       1 SER1        0.0000 
     42 CA        -66.1964  -44.1699   -0.1940 C.3       5 GLY6        0.0000 
     43 NZ        -58.1692  -45.9822    3.1271 N.2       3 LYS4        0.0000 
     44 O         -58.5926  -44.5624    2.8927 O.2       2 ALA2        0.0000 
     45 CZ        -59.3587  -46.4650    2.3511 C.ar      4 PHE5        0.0000 
     46 CA        -59.7820  -45.0452    2.1167 C.3       5 GLY6        0.0000 
     47 CZ        -60.5481  -46.9477    1.5752 C.ar      4 PHE5        0.0000 
     48 CZ        -60.9715  -45.5280    1.3407 C.ar      4 PHE5        0.0000 
     49 CZ        -61.7375  -47.4305    0.7992 C.ar      4 PHE5        0.0000 
     50 OG        -62.1609  -46.0107    0.5648 O.2       1 SER1        0.0000 
     51 CZ        -62.9270  -47.9133    0.0232 C.ar      4 PHE5        0.0000 
     52 CA        -55.7833  -44.0133    1.1445 C.3       5 GLY6        0.0000 
     53 DU        -56.5493  -45.9159    0.6029 H         6 CUB7        0.0000 
     54 O         -56.9727  -44.4961    0.3685 O.2       2 ALA2        0.0000 
     55 DU        -57.3154  -47.8185    0.0614 H         6 CUB7        0.0000 
     56 O         -57.7388  -46.3987   -0.1730 O.2       2 ALA2        0.0000 
     57 CZ        -58.5049  -48.3013   -0.7146 C.ar      4 PHE5        0.0000 
     58 DU        -58.9282  -46.8815   -0.9490 H         6 CUB7        0.0000 
     59 O         -59.3516  -45.4617   -1.1834 O.2       2 ALA2        0.0000 
     60 CZ        -59.6943  -48.7841   -1.4906 C.ar      4 PHE5        0.0000 
     61 CA        -60.1176  -47.3643   -1.7250 C.3       5 GLY6        0.0000 
     62 CA        -60.5410  -45.9445   -1.9594 C.3       5 GLY6        0.0000 
     63 CA        -60.8837  -49.2668   -2.2666 C.3       5 GLY6        0.0000 
     64 OG        -62.1680  -47.0140    4.0993 O.2       1 SER1        0.0000 
     65 OG        -62.5914  -45.5942    3.8649 O.2       1 SER1        0.0000 
     66 CZ        -63.3574  -47.4968    3.3234 C.ar      4 PHE5        0.0000 
     67 OG        -63.7808  -46.0770    3.0889 O.2       1 SER1        0.0000 
     68 CZ        -64.2041  -44.6572    2.8545 C.ar      4 PHE5        0.0000 
     69 CZ        -64.5469  -47.9796    2.5474 C.ar      4 PHE5        0.0000 
     70 DU        -64.9702  -46.5598    2.3130 H         6 CUB7        0.0000 
     71 DU        -65.3936  -45.1400    2.0785 H         6 CUB7        0.0000 
     72 CZ        -65.8169  -43.7202    1.8441 C.ar      4 PHE5        0.0000 
     73 CZ        -66.2403  -42.3004    1.6097 C.ar      4 PHE5        0.0000 
     74 N         -65.7363  -48.4624    1.7714 N.2       2 ALA2        0.0000 
     75 CA        -66.1597  -47.0426    1.5370 C.3       5 GLY6        0.0000 
     76 CA        -66.5830  -45.6228    1.3026 C.3       5 GLY6        0.0000 
     77 CA        -67.0064  -44.2030    1.0681 C.3       5 GLY6        0.0000 
     78 CA        -67.4297  -42.7832    0.8337 C.3       5 GLY6        0.0000 
     79 N         -68.1958  -44.6858    0.2922 N.2       2 ALA2        0.0000 
     80 CA        -68.9619  -46.5884   -0.2494 C.3       5 GLY6        0.0000 
     81 N         -69.3852  -45.1686   -0.4838 N.2       2 ALA2        0.0000 
     82 OG        -62.9779  -47.0472    5.3614 O.2       1 SER1        0.0000 
     83 CZ        -64.1674  -47.5299    4.5855 C.ar      4 PHE5        0.0000 
     84 OG        -64.5907  -46.1102    4.3510 O.2       1 SER1        0.0000 
     85 N         -65.3568  -48.0127    3.8095 N.2       2 ALA2        0.0000 
     86 OG        -65.7802  -46.5929    3.5751 O.2       1 SER1        0.0000 
     87 CZ        -66.2035  -45.1731    3.3406 C.ar      4 PHE5        0.0000 
     88 CZ        -66.6269  -43.7533    3.1062 C.ar      4 PHE5        0.0000 
     89 CZ        -67.0502  -42.3336    2.8718 C.ar      4 PHE5        0.0000 
     90 N         -66.9696  -47.0757    2.7991 N.2       2 ALA2        0.0000 
     91 DU        -67.3930  -45.6559    2.5647 H         6 CUB7        0.0000 
     92 DU        -67.8163  -44.2361    2.3302 H         6 CUB7        0.0000 
     93 OG        -68.2397  -42.8163    2.0958 O.2       1 SER1        0.0000 
     94 OG        -68.6630  -41.3965    1.8614 O.2       1 SER1        0.0000 
     95 N         -68.1590  -47.5585    2.0231 N.2       2 ALA2        0.0000 
     96 CA        -68.5824  -46.1387    1.7887 C.3       5 GLY6        0.0000 
     97 DU        -69.0058  -44.7189    1.5542 H         6 CUB7        0.0000 
     98 CA        -69.4291  -43.2991    1.3198 C.3       5 GLY6        0.0000 
     99 OG        -69.8525  -41.8793    1.0854 O.2       1 SER1        0.0000 
    100 NZ        -69.3485  -48.0413    1.2471 N.2       3 LYS4        0.0000 
    101 CA        -69.7718  -46.6215    1.0127 C.3       5 GLY6        0.0000 
    102 CA        -70.1952  -45.2017    0.7783 C.3       5 GLY6        0.0000 
    103 CA        -70.6185  -43.7819    0.5438 C.3       5 GLY6        0.0000 
    104 CA        -70.5379  -48.5241    0.4711 C.3       5 GLY6        0.0000 
    105 OG        -64.9773  -47.5631    5.8476 O.2       1 SER1        0.0000 
    106 N         -66.1668  -48.0459    5.0716 N.2       2 ALA2        0.0000 
    107 OG        -66.5901  -46.6261    4.8371 O.2       1 SER1        0.0000 
    108 CZ        -67.0135  -45.2063    4.6027 C.ar      4 PHE5        0.0000 
    109 CZ        -67.4368  -43.7865    4.3683 C.ar      4 PHE5        0.0000 
    110 CZ        -67.8602  -42.3667    4.1339 C.ar      4 PHE5        0.0000 
    111 OG        -68.2835  -40.9469    3.8995 O.2       1 SER1        0.0000 
    112 N         -67.7795  -47.1089    4.0612 N.2       2 ALA2        0.0000 
    113 DU        -68.2029  -45.6891    3.8267 H         6 CUB7        0.0000 
    114 DU        -68.6263  -44.2693    3.5923 H         6 CUB7        0.0000 
    115 DU        -69.0496  -42.8495    3.3579 H         6 CUB7        0.0000 
    116 OG        -69.4730  -41.4297    3.1235 O.2       1 SER1        0.0000 
    117 CZ        -69.8963  -40.0099    2.8891 C.ar      4 PHE5        0.0000 
    118 N         -68.9690  -47.5916    3.2852 N.2       2 ALA2        0.0000 
    119 O         -69.3923  -46.1719    3.0508 O.2       2 ALA2        0.0000 
    120 N         -69.8157  -44.7521    2.8163 N.2       2 ALA2        0.0000 
    121 N         -70.2391  -43.3323    2.5819 N.2       2 ALA2        0.0000 
    122 N         -70.6624  -41.9125    2.3475 N.2       2 ALA2        0.0000 
    123 OG        -71.0858  -40.4927    2.1131 O.2       1 SER1        0.0000 
    124 O         -70.1584  -48.0744    2.5092 O.2       2 ALA2        0.0000 
    125 O         -70.5818  -46.6546    2.2748 O.2       2 ALA2        0.0000 
    126 O         -71.0051  -45.2348    2.0404 O.2       2 ALA2        0.0000 
    127 N         -71.4285  -43.8150    1.8059 N.2       2 ALA2        0.0000 
    128 CA        -71.8519  -42.3953    1.5715 C.3       5 GLY6        0.0000 
    129 O         -70.9245  -49.9770    1.9676 O.2       2 ALA2        0.0000 
    130 OG        -71.3479  -48.5572    1.7332 O.2       1 SER1        0.0000 
    131 OG        -65.7873  -47.5962    7.1096 O.2       1 SER1        0.0000 
    132 OG        -66.2106  -46.1764    6.8752 O.2       1 SER1        0.0000 
    133 CA        -66.9767  -48.0790    6.3337 C.3       5 GLY6        0.0000 
    134 CZ        -67.4001  -46.6592    6.0992 C.ar      4 PHE5        0.0000 
    135 CZ        -67.8234  -45.2394    5.8648 C.ar      4 PHE5        0.0000 
    136 CZ        -68.2468  -43.8196    5.6304 C.ar      4 PHE5        0.0000 
    137 CZ        -68.6701  -42.3998    5.3960 C.ar      4 PHE5        0.0000 
    138 CA        -69.0935  -40.9800    5.1616 C.3       5 GLY6        0.0000 
    139 N         -68.1661  -48.5618    5.5577 N.2       2 ALA2        0.0000 
    140 DU        -68.5895  -47.1420    5.3233 H         6 CUB7        0.0000 
    141 DU        -69.0129  -45.7222    5.0888 H         6 CUB7        0.0000 
    142 N         -69.4362  -44.3024    4.8544 N.2       2 ALA2        0.0000 
    143 N         -69.8596  -42.8826    4.6200 N.2       2 ALA2        0.0000 
    144 N         -70.2829  -41.4628    4.3856 N.2       2 ALA2        0.0000 
    145 CZ        -70.7063  -40.0430    4.1512 C.ar      4 PHE5        0.0000 
    146 O         -69.3556  -49.0446    4.7817 O.2       2 ALA2        0.0000 
    147 O         -69.7789  -47.6248    4.5473 O.2       2 ALA2        0.0000 
    148 O         -70.2023  -46.2050    4.3129 O.2       2 ALA2        0.0000 
    149 N         -71.4724  -41.9456    3.6096 N.2       2 ALA2        0.0000 
    150 N         -71.8957  -40.5258    3.3752 N.2       2 ALA2        0.0000 
    151 O         -70.5450  -49.5274    4.0057 O.2       2 ALA2        0.0000 
    152 O         -70.9684  -48.1076    3.7713 O.2       2 ALA2        0.0000 
    153 OG        -72.1578  -48.5904    2.9953 O.2       1 SER1        0.0000 
@<TRIPOS>BOND
@<TRIPOS>SUBSTRUCTURE
     1 SER1        5 GROUP   
     2 ALA2        1 GROUP   
     3 LYS4        8 GROUP   
     4 PHE5        4 GROUP   
     5 GLY6        6 GROUP   
     6 CUB7        2 GROUP   
@<TRIPOS>SET

