#    Name: 1rkw_PNT_1_INTS_M
#    Modification time : Tue Mar 25 00:50:52 2014

@<TRIPOS>MOLECULE
1rkw_PNT_1_INTS_M
   53     0     6     0     0
SMALL
NO_CHARGES


@<TRIPOS>ATOM
      1 CA        -64.3025  -43.9845    0.1460 C.3       2 GLC5        0.0000 
      2 CA        -65.6190  -45.3210    0.8430 C.3       6 GLL5        0.0000 
      3 CA        -62.9860  -42.6480   -0.5510 C.3       4 GLP5        0.0000 
      4 CA        -64.2180  -48.5680    1.5120 C.3       2 GLC5        0.0000 
      5 CA        -65.1670  -46.7530    0.9750 C.3       6 GLL5        0.0000 
      6 CA        -63.2690  -50.3830    2.0490 C.3       4 GLP5        0.0000 
      7 CA        -69.3890  -39.6295    1.6195 C.3       2 GLC5        0.0000 
      8 CA        -70.5910  -41.4730    1.8270 C.3       6 GLL5        0.0000 
      9 CA        -68.1870  -37.7860    1.4120 C.3       4 GLP5        0.0000 
     10 CA        -71.0405  -39.4130    2.4005 C.3       2 GLC5        0.0000 
     11 CA        -71.4900  -37.3530    2.9740 C.3       4 GLP5        0.0000 
     12 CA        -71.8690  -41.2840    0.4180 C.3       2 GLC5        0.0000 
     13 CA        -73.1470  -41.0950   -0.9910 C.3       4 GLP5        0.0000 
     14 CA        -63.3445  -45.9475   -1.2410 C.3       2 GLC5        0.0000 
     15 CA        -63.7210  -46.4610    0.8340 C.3       6 GLL5        0.0000 
     16 CA        -62.9680  -45.4340   -3.3160 C.3       4 GLP5        0.0000 
     17 CA        -64.9135  -47.5125   -0.6950 C.3       2 GLC5        0.0000 
     18 CA        -66.1060  -48.5640   -2.2240 C.3       4 GLP5        0.0000 
     19 CA        -63.0985  -48.3725    0.8710 C.3       2 GLC5        0.0000 
     20 CA        -62.4760  -50.2840    0.9080 C.3       4 GLP5        0.0000 
     21 CA        -60.2810  -43.9620    3.0165 C.3       2 GLC5        0.0000 
     22 CA        -59.4130  -45.6260    2.3000 C.3       6 GLL5        0.0000 
     23 CA        -61.1490  -42.2980    3.7330 C.3       4 GLP5        0.0000 
     24 CA        -61.0915  -47.7880    1.9690 C.3       2 GLC5        0.0000 
     25 CA        -61.5490  -46.0340    1.6250 C.3       6 GLL5        0.0000 
     26 CA        -60.6340  -49.5420    2.3130 C.3       4 GLP5        0.0000 
     27 CA        -62.2065  -47.9695    2.7680 C.3       2 GLC5        0.0000 
     28 CA        -62.9460  -46.2820    2.1070 C.3       6 GLL5        0.0000 
     29 CA        -61.4670  -49.6570    3.4290 C.3       4 GLP5        0.0000 
     30 O         -70.9335  -39.1710    1.3055 O.2       1 ALC1        0.0000 
     31 O         -70.1720  -40.2150    1.8820 O.2       5 ALL1        0.0000 
     32 O         -71.6950  -38.1270    0.7290 O.2       3 ALP1        0.0000 
     33 O         -73.2260  -41.4550    2.6075 O.2       1 ALC1        0.0000 
     34 O         -71.9330  -41.7260    1.8760 O.2       5 ALL1        0.0000 
     35 O         -74.5190  -41.1840    3.3390 O.2       3 ALP1        0.0000 
     36 CA        -68.0615  -43.0802   -0.0155 C.3       2 GLC5        0.0000 
     37 CA        -67.3030  -43.2690    1.6030 C.3       6 GLL5        0.0000 
     38 CA        -68.5810  -42.2260   -1.5850 C.3       4 GLP5        0.0000 
     39 CA        -69.1150  -43.2767   -0.0025 C.3       2 GLC5        0.0000 
     40 CA        -70.0980  -43.8120    1.6360 C.3       6 GLL5        0.0000 
     41 CA        -66.3720  -47.1105   -0.2375 C.3       2 GLC5        0.0000 
     42 CA        -67.3510  -48.1840   -1.3840 C.3       4 GLP5        0.0000 
     43 CA        -69.1775  -42.0686    0.0933 C.3       2 GLC5        0.0000 
     44 CA        -68.2410  -42.2270    1.7070 C.3       6 GLL5        0.0000 
     45 CA        -59.1077  -43.1407    2.2430 C.3       2 GLC5        0.0000 
     46 CA        -57.7580  -44.5740    0.9070 C.3       6 GLL5        0.0000 
     47 CA        -59.7880  -41.6510    3.3730 C.3       4 GLP5        0.0000 
     48 CA        -57.0330  -45.0351    3.5982 C.3       2 GLC5        0.0000 
     49 CA        -57.0420  -46.3070    2.4290 C.3       6 GLL5        0.0000 
     50 CA        -56.0980  -43.9020    4.6940 C.3       4 GLP5        0.0000 
     51 CA        -62.3816  -44.4529    1.1114 C.3       2 GLC5        0.0000 
     52 CA        -62.3220  -42.7030    0.6750 C.3       4 GLP5        0.0000 
     53 CA        -56.2064  -44.5117    2.9058 C.3       2 GLC5        0.0000 
@<TRIPOS>BOND
@<TRIPOS>SUBSTRUCTURE
     1 ALC1       30 GROUP        1 X    ALC  0     ROOT ALC X 1
     2 GLC5        1 GROUP        1 X    GLC  0     **** GLC X 6
     3 ALP1       32 GROUP        1 Y    ALP  0     ROOT ALP Y 8
     4 GLP5        3 GROUP        1 Y    GLP  0     **** GLP Y 13
     5 ALL1       31 GROUP        1 Z    ALL  0     ROOT ALL Z 15
     6 GLL5        2 GROUP        1 Z    GLL  0     **** GLL Z 20
@<TRIPOS>SET

