#    Name: 1rkw_PNT_1_ligand
#    Modification time : Tue Mar 25 00:50:52 2014

@<TRIPOS>MOLECULE
1rkw_PNT_1_ligand
   51    52     1     0     0
SMALL
NO_CHARGES


@<TRIPOS>ATOM
      1 C1        -67.7810  -44.6000    1.5050 C.ar      1 PNT225      0.0000 
      2 C2        -67.3030  -43.2690    1.6030 C.ar      1 PNT225      0.0000 
      3 C3        -68.2410  -42.2270    1.7070 C.ar      1 PNT225      0.0000 
      4 C4        -69.6730  -42.4720    1.7250 C.ar      1 PNT225      0.0000 
      5 C5        -70.0980  -43.8120    1.6360 C.ar      1 PNT225      0.0000 
      6 C6        -69.2000  -44.8430    1.5240 C.ar      1 PNT225      0.0000 
      7 C7        -65.6190  -45.3210    0.8430 C.3       1 PNT225      0.0000 
      8 C8        -65.1670  -46.7530    0.9750 C.3       1 PNT225      0.0000 
      9 C9        -70.5910  -41.4730    1.8270 C.2       1 PNT225      0.0000 
     10 C10       -63.7210  -46.4610    0.8340 C.3       1 PNT225      0.0000 
     11 C1'       -59.4130  -45.6260    2.3000 C.ar      1 PNT225      0.0000 
     12 C2'       -59.0970  -44.6870    1.3190 C.ar      1 PNT225      0.0000 
     13 C3'       -57.7580  -44.5740    0.9070 C.ar      1 PNT225      0.0000 
     14 C4'       -56.7110  -45.3860    1.4650 C.ar      1 PNT225      0.0000 
     15 C5'       -57.0420  -46.3070    2.4290 C.ar      1 PNT225      0.0000 
     16 C6'       -58.3750  -46.4330    2.8520 C.ar      1 PNT225      0.0000 
     17 C7'       -61.5490  -46.0340    1.6250 C.3       1 PNT225      0.0000 
     18 C8'       -62.9460  -46.2820    2.1070 C.3       1 PNT225      0.0000 
     19 C9'       -55.3950  -45.2630    1.0490 C.2       1 PNT225      0.0000 
     20 O1        -66.9580  -45.6400    1.4110 O.3       1 PNT225      0.0000 
     21 O1'       -60.6620  -45.8050    2.7390 O.3       1 PNT225      0.0000 
     22 N1        -70.1720  -40.2150    1.8820 N.pl3     1 PNT225      0.0000 
     23 N2        -71.9330  -41.7260    1.8760 N.pl3     1 PNT225      0.0000 
     24 N1'       -55.0940  -44.3390    0.0920 N.pl3     1 PNT225      0.0000 
     25 N2'       -54.3560  -46.0540    1.5790 N.pl3     1 PNT225      0.0000 
     26 H         -66.3109  -43.0794    1.5978 H         1 PNT225      0.0000 
     27 H         -67.9215  -41.2482    1.7738 H         1 PNT225      0.0000 
     28 H         -71.1183  -44.0076    1.6571 H         1 PNT225      0.0000 
     29 H         -69.5186  -45.8227    1.4502 H         1 PNT225      0.0000 
     30 H         -65.6936  -45.0646   -0.1471 H         1 PNT225      0.0000 
     31 H         -65.0845  -44.7223    1.4813 H         1 PNT225      0.0000 
     32 H         -65.5149  -47.3103    0.1709 H         1 PNT225      0.0000 
     33 H         -65.3847  -47.1074    1.9264 H         1 PNT225      0.0000 
     34 H         -63.5901  -45.5405    0.2064 H         1 PNT225      0.0000 
     35 H         -63.2367  -47.2767    0.2354 H         1 PNT225      0.0000 
     36 H         -59.8128  -44.0969    0.9091 H         1 PNT225      0.0000 
     37 H         -57.5030  -43.8862    0.1772 H         1 PNT225      0.0000 
     38 H         -56.3229  -46.9111    2.8496 H         1 PNT225      0.0000 
     39 H         -58.6187  -47.1231    3.5789 H         1 PNT225      0.0000 
     40 H         -61.5599  -45.1665    0.9477 H         1 PNT225      0.0000 
     41 H         -61.2213  -46.9036    1.0352 H         1 PNT225      0.0000 
     42 H         -62.9819  -47.1748    2.6854 H         1 PNT225      0.0000 
     43 H         -63.3072  -45.4335    2.6386 H         1 PNT225      0.0000 
     44 H         -69.2797  -40.0666    2.3084 H         1 PNT225      0.0000 
     45 H         -70.7865  -39.5291    1.4922 H         1 PNT225      0.0000 
     46 H         -72.4170  -41.3798    2.6797 H         1 PNT225      0.0000 
     47 H         -72.3133  -42.2352    1.1039 H         1 PNT225      0.0000 
     48 H         -54.1351  -44.2915   -0.1876 H         1 PNT225      0.0000 
     49 H         -55.8587  -43.7903   -0.2459 H         1 PNT225      0.0000 
     50 H         -54.6247  -46.7332    2.2620 H         1 PNT225      0.0000 
     51 H         -53.4385  -45.8687    1.2270 H         1 PNT225      0.0000 
@<TRIPOS>BOND
     1    2    1 ar   
     2    6    1 ar   
     3   20    1 1    
     4    3    2 ar   
     5   26    2 1    
     6    4    3 ar   
     7   27    3 1    
     8    5    4 ar   
     9    9    4 1    
    10    6    5 ar   
    11   28    5 1    
    12   29    6 1    
    13    8    7 1    
    14   20    7 1    
    15   30    7 1    
    16   31    7 1    
    17   10    8 1    
    18   32    8 1    
    19   33    8 1    
    20   22    9 1    
    21   23    9 1    
    22   18   10 1    
    23   34   10 1    
    24   35   10 1    
    25   12   11 ar   
    26   16   11 ar   
    27   21   11 1    
    28   13   12 ar   
    29   36   12 1    
    30   14   13 ar   
    31   37   13 1    
    32   15   14 ar   
    33   19   14 1    
    34   16   15 ar   
    35   38   15 1    
    36   39   16 1    
    37   18   17 1    
    38   21   17 1    
    39   40   17 1    
    40   41   17 1    
    41   42   18 1    
    42   43   18 1    
    43   24   19 1    
    44   25   19 1    
    45   44   22 1    
    46   45   22 1    
    47   46   23 1    
    48   47   23 1    
    49   48   24 1    
    50   49   24 1    
    51   50   25 1    
    52   51   25 1    
@<TRIPOS>SUBSTRUCTURE
     1 PNT225      1 GROUP   
@<TRIPOS>SET

