#    Name: 3e18_NAD_2_INTS_M
#    Modification time : Tue Mar 25 00:49:45 2014

@<TRIPOS>MOLECULE
3e18_NAD_2_INTS_M
   99     0    12     0     0
SMALL
NO_CHARGES


@<TRIPOS>ATOM
      1 N          48.4900  104.7270  -16.4365 N.am      2 SEC2        0.0000 
      2 N          49.6360  103.8470  -15.9380 N.am     10 SEL2        0.0000 
      3 N          47.3440  105.6070  -16.9350 N.am      6 SEP2        0.0000 
      4 N          52.0610  102.7425  -13.6365 N.am      2 SEC2        0.0000 
      5 N          51.8260  103.3850  -15.0100 N.am     10 SEL2        0.0000 
      6 N          52.2960  102.1000  -12.2630 N.am      6 SEP2        0.0000 
      7 CA         52.1465  107.3575  -12.2240 C.3       4 GLC5        0.0000 
      8 CA         51.8960  106.2790  -14.1070 C.3      12 GLL5        0.0000 
      9 CA         52.3970  108.4360  -10.3410 C.3       8 GLP5        0.0000 
     10 CA         51.8915  109.4300  -14.4605 C.3       4 GLC5        0.0000 
     11 CA         52.3950  107.4840  -14.8900 C.3      12 GLL5        0.0000 
     12 CA         51.3880  111.3760  -14.0310 C.3       8 GLP5        0.0000 
     13 N          52.6580  106.7275  -18.2835 N.am      2 SEC2        0.0000 
     14 N          52.6900  107.6710  -17.2270 N.am     10 SEL2        0.0000 
     15 N          52.6260  105.7840  -19.3400 N.am      6 SEP2        0.0000 
     16 O          52.7785  109.0615  -17.2455 O.2       1 ALC1        0.0000 
     17 O          52.6900  107.6710  -17.2270 O.2       9 ALL1        0.0000 
     18 O          52.8670  110.4520  -17.2640 O.2       5 ALP1        0.0000 
     19 O          55.1405  109.1140  -17.3955 O.2       1 ALC1        0.0000 
     20 O          55.2970  107.8490  -16.9500 O.2       9 ALL1        0.0000 
     21 O          54.9840  110.3790  -17.8410 O.2       5 ALP1        0.0000 
     22 CA         52.8910  110.0060  -14.4390 C.3       4 GLC5        0.0000 
     23 CA         54.3940  108.6360  -14.8470 C.3      12 GLL5        0.0000 
     24 CA         58.3440  111.7550  -13.4835 C.3       4 GLC5        0.0000 
     25 CA         57.3480  111.1550  -11.9310 C.3      12 GLL5        0.0000 
     26 CA         59.3400  112.3550  -15.0360 C.3       8 GLP5        0.0000 
     27 CA         54.5625  113.7175  -12.1830 C.3       4 GLC5        0.0000 
     28 CA         55.7740  112.5080  -13.1510 C.3      12 GLL5        0.0000 
     29 CA         53.3510  114.9270  -11.2150 C.3       8 GLP5        0.0000 
     30 CA         55.2525  112.9120  -15.1285 C.3       4 GLC5        0.0000 
     31 CA         54.7310  113.3160  -17.1060 C.3       8 GLP5        0.0000 
     32 CA         57.5570  112.4315  -14.0935 C.3       4 GLC5        0.0000 
     33 CA         54.6810  111.5765  -11.9240 C.3       4 GLC5        0.0000 
     34 CA         53.5880  110.6450  -10.6970 C.3       8 GLP5        0.0000 
     35 N          51.1115  102.9600  -12.8290 N.am      2 SEC2        0.0000 
     36 N          49.9270  103.8200  -13.3950 N.am     10 SEL2        0.0000 
     37 NZ         47.4405  101.7580  -12.2295 N.4       3 LYC4        0.0000 
     38 NZ         47.6600  102.6920  -13.2060 N.4      11 LYL4        0.0000 
     39 NZ         48.1660   99.9020  -11.3750 N.4       7 LYP4        0.0000 
     40 N          48.3560  101.3405  -12.7865 N.am      2 SEC2        0.0000 
     41 N          47.6600  102.6920  -13.2060 N.am     10 SEL2        0.0000 
     42 N          49.0520   99.9890  -12.3670 N.am      6 SEP2        0.0000 
     43 N          47.4405  101.7580  -12.2295 N.am      2 SEC2        0.0000 
     44 N          47.2210  100.8240  -11.2530 N.am      6 SEP2        0.0000 
     45 N          46.5990  105.6080  -14.2995 N.am      2 SEC2        0.0000 
     46 N          47.8750  105.1950  -13.8020 N.am     10 SEL2        0.0000 
     47 N          45.3230  106.0210  -14.7970 N.am      6 SEP2        0.0000 
     48 CA         47.4895  106.8705   -8.2500 C.3       4 GLC5        0.0000 
     49 CA         48.5090  105.6720   -9.5070 C.3      12 GLL5        0.0000 
     50 CA         46.4700  108.0690   -6.9930 C.3       8 GLP5        0.0000 
     51 O          49.9615  104.4820   -6.4860 O.2       1 ALC1        0.0000 
     52 O          49.1640  105.1810   -7.2630 O.2       9 ALL1        0.0000 
     53 O          50.7590  103.7830   -5.7090 O.2       5 ALP1        0.0000 
     54 N          46.2020  102.3045   -6.9085 N.am      2 SEC2        0.0000 
     55 N          47.5690  102.9140   -7.2700 N.am     10 SEL2        0.0000 
     56 N          44.8350  101.6950   -6.5470 N.am      6 SEP2        0.0000 
     57 O          47.2670  103.7200   -6.1745 O.2       1 ALC1        0.0000 
     58 O          47.5690  102.9140   -7.2700 O.2       9 ALL1        0.0000 
     59 O          46.9650  104.5260   -5.0790 O.2       5 ALP1        0.0000 
     60 CA         46.5345  106.3550   -7.8185 C.3       4 GLC5        0.0000 
     61 CA         46.5990  104.6410   -8.6440 C.3      12 GLL5        0.0000 
     62 CA         44.8340  106.3130   -8.3385 C.3       4 GLC5        0.0000 
     63 CA         44.2070  104.3370   -8.5500 C.3      12 GLL5        0.0000 
     64 CA         45.4610  108.2890   -8.1270 C.3       8 GLP5        0.0000 
     65 CA         44.6030  103.2745   -6.8570 C.3       4 GLC5        0.0000 
     66 CA         44.9990  102.2120   -5.1640 C.3       8 GLP5        0.0000 
     67 N          39.2250  104.4440   -8.3485 N.am      2 SEC2        0.0000 
     68 N          40.5610  103.5290   -8.6350 N.am     10 SEL2        0.0000 
     69 N          37.8890  105.3590   -8.0620 N.am      6 SEP2        0.0000 
     70 O          42.7745  106.0530   -7.1775 O.2       1 ALC1        0.0000 
     71 O          41.6510  105.2400   -7.4020 O.2       9 ALL1        0.0000 
     72 O          43.8980  106.8660   -6.9530 O.2       5 ALP1        0.0000 
     73 O          40.4030  105.4175   -6.8130 O.2       1 ALC1        0.0000 
     74 O          39.1550  105.5950   -6.2240 O.2       5 ALP1        0.0000 
     75 CA         42.4575  104.6330  -11.1120 C.3       4 GLC5        0.0000 
     76 CA         42.9740  103.1550  -10.2130 C.3      12 GLL5        0.0000 
     77 CA         41.9410  106.1110  -12.0110 C.3       8 GLP5        0.0000 
     78 CA         53.2433  106.5337  -12.7793 C.3       4 GLC5        0.0000 
     79 CA         54.3410  106.1860  -11.0600 C.3       8 GLP5        0.0000 
     80 CA         50.8926  107.0886  -16.2629 C.3       4 GLC5        0.0000 
     81 CA         49.1110  107.2260  -17.2340 C.3       8 GLP5        0.0000 
     82 CA         57.4233  110.0835  -14.4337 C.3       4 GLC5        0.0000 
     83 CA         55.7820  110.1590  -13.4520 C.3      12 GLL5        0.0000 
     84 CA         58.5460  110.0760  -15.8740 C.3       8 GLP5        0.0000 
     85 CA         55.0104  110.5095  -11.7698 C.3       4 GLC5        0.0000 
     86 CA         56.8190  110.0230  -12.5350 C.3      12 GLL5        0.0000 
     87 CA         48.8065  107.6693  -10.1872 C.3       4 GLC5        0.0000 
     88 CA         49.0230  105.4750  -10.9360 C.3      12 GLL5        0.0000 
     89 CA         48.8470  109.7650  -10.1530 C.3       8 GLP5        0.0000 
     90 CA         49.8780  103.8307  -10.1728 C.3       4 GLC5        0.0000 
     91 CA         50.9900  102.0880  -10.1240 C.3       8 GLP5        0.0000 
     92 CA         49.6910  102.8972   -8.6498 C.3       4 GLC5        0.0000 
     93 CA         48.9260  104.5770   -8.5200 C.3      12 GLL5        0.0000 
     94 CA         51.0600  101.6830   -8.8080 C.3       8 GLP5        0.0000 
     95 CA         43.5703  105.4412  -10.1395 C.3       4 GLC5        0.0000 
     96 CA         43.5430  106.7740  -11.4940 C.3       8 GLP5        0.0000 
     97 CA         44.7175  104.7512  -11.5353 C.3       4 GLC5        0.0000 
     98 CA         44.1670  102.9090  -10.9000 C.3      12 GLL5        0.0000 
     99 CA         44.6650  106.3550  -12.4250 C.3       8 GLP5        0.0000 
@<TRIPOS>BOND
@<TRIPOS>SUBSTRUCTURE
     1 ALC1       16 GROUP        1 X    ALC  0     ROOT ALC X 1
     2 SEC2        1 GROUP        1 X    SEC  0     **** SEC X 2
     3 LYC4       37 GROUP        1 X    LYC  0     **** LYC X 4
     4 GLC5        7 GROUP        1 X    GLC  0     **** GLC X 6
     5 ALP1       18 GROUP        1 Y    ALP  0     ROOT ALP Y 8
     6 SEP2        3 GROUP        1 Y    SEP  0     **** SEP Y 9
     7 LYP4       39 GROUP        1 Y    LYP  0     **** LYP Y 11
     8 GLP5        9 GROUP        1 Y    GLP  0     **** GLP Y 13
     9 ALL1       17 GROUP        1 Z    ALL  0     ROOT ALL Z 15
    10 SEL2        2 GROUP        1 Z    SEL  0     **** SEL Z 16
    11 LYL4       38 GROUP        1 Z    LYL  0     **** LYL Z 18
    12 GLL5        8 GROUP        1 Z    GLL  0     **** GLL Z 20
@<TRIPOS>SET

