#    Name: 3e18_NAD_2_ligand
#    Modification time : Tue Mar 25 00:49:46 2014

@<TRIPOS>MOLECULE
3e18_NAD_2_ligand
   70    74     1     0     0
SMALL
NO_CHARGES


@<TRIPOS>ATOM
      1 PA         50.5640  104.1330  -14.8340 P.3       1 NAD359      0.0000 
      2 O1A        49.6360  103.8470  -15.9380 O.co2     1 NAD359      0.0000 
      3 O2A        51.8260  103.3850  -15.0100 O.co2     1 NAD359      0.0000 
      4 O5B        50.8060  105.7250  -14.8090 O.3       1 NAD359      0.0000 
      5 C5B        51.8960  106.2790  -14.1070 C.3       1 NAD359      0.0000 
      6 C4B        52.3950  107.4840  -14.8900 C.3       1 NAD359      0.0000 
      7 O4B        53.2310  108.3140  -14.0980 O.3       1 NAD359      0.0000 
      8 C3B        53.2030  107.0210  -16.0850 C.3       1 NAD359      0.0000 
      9 O3B        52.6900  107.6710  -17.2270 O.3       1 NAD359      0.0000 
     10 C2B        54.6240  107.4620  -15.7770 C.3       1 NAD359      0.0000 
     11 O2B        55.2970  107.8490  -16.9500 O.3       1 NAD359      0.0000 
     12 C1B        54.3940  108.6360  -14.8470 C.3       1 NAD359      0.0000 
     13 N9A        55.4720  108.9050  -13.8960 N.pl3     1 NAD359      0.0000 
     14 C8A        56.2940  108.0110  -13.2660 C.2       1 NAD359      0.0000 
     15 N7A        57.1140  108.7060  -12.4380 N.2       1 NAD359      0.0000 
     16 C5A        56.8190  110.0230  -12.5350 C.ar      1 NAD359      0.0000 
     17 C6A        57.3480  111.1550  -11.9310 C.ar      1 NAD359      0.0000 
     18 N6A        58.0810  111.0320  -10.8290 N.pl3     1 NAD359      0.0000 
     19 N1A        56.8180  112.3850  -12.2470 N.ar      1 NAD359      0.0000 
     20 C2A        55.7740  112.5080  -13.1510 C.ar      1 NAD359      0.0000 
     21 N3A        55.2720  111.3800  -13.7590 N.ar      1 NAD359      0.0000 
     22 C4A        55.7820  110.1590  -13.4520 C.ar      1 NAD359      0.0000 
     23 O3         49.9270  103.8200  -13.3950 O.3       1 NAD359      0.0000 
     24 PN         48.3550  104.0040  -13.0710 P.3       1 NAD359      0.0000 
     25 O1N        47.6600  102.6920  -13.2060 O.co2     1 NAD359      0.0000 
     26 O2N        47.8750  105.1950  -13.8020 O.co2     1 NAD359      0.0000 
     27 O5D        48.3950  104.3320  -11.5000 O.3       1 NAD359      0.0000 
     28 C5D        49.0230  105.4750  -10.9360 C.3       1 NAD359      0.0000 
     29 C4D        48.5090  105.6720   -9.5070 C.3       1 NAD359      0.0000 
     30 O4D        47.0950  105.6220   -9.5410 O.3       1 NAD359      0.0000 
     31 C3D        48.9260  104.5770   -8.5200 C.3       1 NAD359      0.0000 
     32 O3D        49.1640  105.1810   -7.2630 O.3       1 NAD359      0.0000 
     33 C2D        47.7180  103.6460   -8.4630 C.3       1 NAD359      0.0000 
     34 O2D        47.5690  102.9140   -7.2700 O.3       1 NAD359      0.0000 
     35 C1D        46.5990  104.6410   -8.6440 C.3       1 NAD359      0.0000 
     36 N1N        45.3660  104.0890   -9.2170 N.pl3     1 NAD359      0.0000 
     37 C2N        44.2070  104.3370   -8.5500 C.ar      1 NAD359      0.0000 
     38 C3N        42.9880  103.8800   -9.0200 C.ar      1 NAD359      0.0000 
     39 C7N        41.7060  104.2550   -8.3130 C.2       1 NAD359      0.0000 
     40 O7N        40.5610  103.5290   -8.6350 O.2       1 NAD359      0.0000 
     41 N7N        41.6510  105.2400   -7.4020 N.am      1 NAD359      0.0000 
     42 C4N        42.9740  103.1550  -10.2130 C.ar      1 NAD359      0.0000 
     43 C5N        44.1670  102.9090  -10.9000 C.ar      1 NAD359      0.0000 
     44 C6N        45.3730  103.3860  -10.3910 C.ar      1 NAD359      0.0000 
     45 H          52.7267  105.5769  -14.0100 H         1 NAD359      0.0000 
     46 H          51.6151  106.6225  -13.1093 H         1 NAD359      0.0000 
     47 H          51.5398  108.0299  -15.2626 H         1 NAD359      0.0000 
     48 H          53.1633  105.9709  -16.1298 H         1 NAD359      0.0000 
     49 H          55.0952  106.6892  -15.2282 H         1 NAD359      0.0000 
     50 H          54.1957  109.5131  -15.4517 H         1 NAD359      0.0000 
     51 H          56.2867  107.0613  -13.3920 H         1 NAD359      0.0000 
     52 H          58.4294  111.8826  -10.4350 H         1 NAD359      0.0000 
     53 H          58.2179  110.1000  -10.4934 H         1 NAD359      0.0000 
     54 H          55.3825  113.4335  -13.3617 H         1 NAD359      0.0000 
     55 H          48.7987  106.3865  -11.4972 H         1 NAD359      0.0000 
     56 H          50.1098  105.3639  -10.8846 H         1 NAD359      0.0000 
     57 H          48.8441  106.6178   -9.1335 H         1 NAD359      0.0000 
     58 H          49.7454  104.0621   -8.9205 H         1 NAD359      0.0000 
     59 H          47.7410  103.0427   -9.3545 H         1 NAD359      0.0000 
     60 H          46.3938  105.1019   -7.6861 H         1 NAD359      0.0000 
     61 H          44.2263  104.8851   -7.6599 H         1 NAD359      0.0000 
     62 H          42.5158  105.6980   -7.1964 H         1 NAD359      0.0000 
     63 H          40.7501  105.4275   -7.0105 H         1 NAD359      0.0000 
     64 H          42.0856  102.8009  -10.5880 H         1 NAD359      0.0000 
     65 H          44.1517  102.3777  -11.7775 H         1 NAD359      0.0000 
     66 H          46.2461  103.2071  -10.8967 H         1 NAD359      0.0000 
     67 H          52.8618  108.6436  -17.0702 H         1 NAD359      0.0000 
     68 H          55.0267  108.7998  -17.1016 H         1 NAD359      0.0000 
     69 H          49.7452  104.5331   -6.7706 H         1 NAD359      0.0000 
     70 H          47.3901  103.6009   -6.5656 H         1 NAD359      0.0000 
@<TRIPOS>BOND
     1    2    1 ar   
     2    3    1 ar   
     3    4    1 1    
     4   23    1 1    
     5    5    4 1    
     6    6    5 1    
     7   45    5 1    
     8   46    5 1    
     9    7    6 1    
    10    8    6 1    
    11   47    6 1    
    12   12    7 1    
    13    9    8 1    
    14   10    8 1    
    15   48    8 1    
    16   67    9 1    
    17   11   10 1    
    18   12   10 1    
    19   49   10 1    
    20   68   11 1    
    21   13   12 1    
    22   50   12 1    
    23   14   13 1    
    24   22   13 1    
    25   15   14 2    
    26   51   14 1    
    27   16   15 1    
    28   17   16 ar   
    29   22   16 ar   
    30   18   17 1    
    31   19   17 ar   
    32   52   18 1    
    33   53   18 1    
    34   20   19 ar   
    35   21   20 ar   
    36   54   20 1    
    37   22   21 ar   
    38   24   23 1    
    39   25   24 ar   
    40   26   24 ar   
    41   27   24 1    
    42   28   27 1    
    43   29   28 1    
    44   55   28 1    
    45   56   28 1    
    46   30   29 1    
    47   31   29 1    
    48   57   29 1    
    49   35   30 1    
    50   32   31 1    
    51   33   31 1    
    52   58   31 1    
    53   69   32 1    
    54   34   33 1    
    55   35   33 1    
    56   59   33 1    
    57   70   34 1    
    58   36   35 1    
    59   60   35 1    
    60   37   36 ar   
    61   44   36 ar   
    62   38   37 ar   
    63   61   37 1    
    64   39   38 1    
    65   42   38 ar   
    66   40   39 2    
    67   41   39 am   
    68   62   41 1    
    69   63   41 1    
    70   43   42 ar   
    71   64   42 1    
    72   44   43 ar   
    73   65   43 1    
    74   66   44 1    
@<TRIPOS>SUBSTRUCTURE
     1 NAD359      1 GROUP   
@<TRIPOS>SET

