#    Name: 2ii3_CAO_5_INTS_M
#    Modification time : Tue Mar 25 18:13:08 2014

@<TRIPOS>MOLECULE
2ii3_CAO_5_INTS_M
  104     0    12     0     0
SMALL
NO_CHARGES


@<TRIPOS>ATOM
      1 N          94.2040  -16.0240   25.6040 N.am      2 SEC2        0.0000 
      2 N          93.1860  -15.6680   26.5500 N.am     10 SEL2        0.0000 
      3 N          95.2220  -16.3800   24.6580 N.am      6 SEP2        0.0000 
      4 CA         92.4465  -15.8365   24.5930 C.3       4 GLC5        0.0000 
      5 CA         92.1250  -16.4820   26.3710 C.3      12 GLL5        0.0000 
      6 CA         92.7680  -15.1910   22.8150 C.3       8 GLP5        0.0000 
      7 CA         93.7425  -17.5600   26.0605 C.3       4 GLC5        0.0000 
      8 CA         95.3600  -18.6380   25.7500 C.3       8 GLP5        0.0000 
      9 CA         93.4480  -12.9700   26.8150 C.3       4 GLC5        0.0000 
     10 CA         93.3180  -14.8610   27.6050 C.3      12 GLL5        0.0000 
     11 CA         93.5780  -11.0790   26.0250 C.3       8 GLP5        0.0000 
     12 CA         94.0620  -14.4820   25.7455 C.3       4 GLC5        0.0000 
     13 CA         94.8060  -14.1030   23.8860 C.3       8 GLP5        0.0000 
     14 CA         94.5775  -16.3795   27.3005 C.3       4 GLC5        0.0000 
     15 CA         95.8370  -17.8980   26.9960 C.3       8 GLP5        0.0000 
     16 O          94.4250  -12.8320   28.7180 O.2       1 ALC1        0.0000 
     17 O          94.4280  -14.0750   27.7380 O.2       9 ALL1        0.0000 
     18 O          94.4220  -11.5890   29.6980 O.2       5 ALP1        0.0000 
     19 O          95.4345  -13.7205   26.8895 O.2       1 ALC1        0.0000 
     20 O          96.4410  -13.3660   26.0410 O.2       5 ALP1        0.0000 
     21 N          92.3735  -13.0775   30.5455 N.am      2 SEC2        0.0000 
     22 N          91.9420  -14.2600   29.8100 N.am     10 SEL2        0.0000 
     23 N          92.8050  -11.8950   31.2810 N.am      6 SEP2        0.0000 
     24 CA         91.2165  -18.0705   30.9820 C.3       4 GLC5        0.0000 
     25 CA         89.1870  -17.3250   30.7350 C.3      12 GLL5        0.0000 
     26 CA         93.2460  -18.8160   31.2290 C.3       8 GLP5        0.0000 
     27 NZ         87.6980  -20.5375   32.5650 N.4       3 LYC4        0.0000 
     28 NZ         86.7900  -20.5700   31.8180 N.4      11 LYL4        0.0000 
     29 NZ         89.7460  -21.1510   33.0730 N.4       7 LYP4        0.0000 
     30 NZ         86.1795  -21.8105   32.2465 N.4       3 LYC4        0.0000 
     31 NZ         85.5690  -23.0510   32.6750 N.4       7 LYP4        0.0000 
     32 N          87.6980  -20.5375   32.5650 N.am      2 SEC2        0.0000 
     33 N          86.7900  -20.5700   31.8180 N.am     10 SEL2        0.0000 
     34 N          88.6060  -20.5050   33.3120 N.am      6 SEP2        0.0000 
     35 N          86.1795  -21.8105   32.2465 N.am      2 SEC2        0.0000 
     36 N          85.5690  -23.0510   32.6750 N.am      6 SEP2        0.0000 
     37 CA         88.9550  -16.0295   33.6460 C.3       4 GLC5        0.0000 
     38 CA         87.4860  -15.4620   32.2490 C.3      12 GLL5        0.0000 
     39 CA         90.4240  -16.5970   35.0430 C.3       8 GLP5        0.0000 
     40 N          86.3535  -12.1055   35.1020 N.am      2 SEC2        0.0000 
     41 N          86.0690  -13.1790   33.8510 N.am     10 SEL2        0.0000 
     42 N          86.6380  -11.0320   36.3530 N.am      6 SEP2        0.0000 
     43 N          90.9185  -14.3400   35.5500 N.am      2 SEC2        0.0000 
     44 N          90.5160  -12.9940   35.4650 N.am     10 SEL2        0.0000 
     45 N          91.3210  -15.6860   35.6350 N.am      6 SEP2        0.0000 
     46 CA         92.8835   -9.2490   32.8305 C.3       4 GLC5        0.0000 
     47 CA         91.5930   -8.5660   34.2330 C.3      12 GLL5        0.0000 
     48 CA         94.1740   -9.9320   31.4280 C.3       8 GLP5        0.0000 
     49 CA         89.5645   -6.1250   35.2715 C.3       4 GLC5        0.0000 
     50 CA         89.3650   -7.9550   35.0730 C.3      12 GLL5        0.0000 
     51 CA         89.7640   -4.2950   35.4700 C.3       8 GLP5        0.0000 
     52 CA         88.2595   -8.7265   36.6050 C.3       4 GLC5        0.0000 
     53 CA         87.1540   -9.4980   38.1370 C.3       8 GLP5        0.0000 
     54 CA         89.6775   -9.8660   30.9355 C.3       4 GLC5        0.0000 
     55 CA         89.5090   -8.8340   32.7050 C.3      12 GLL5        0.0000 
     56 CA         89.8460  -10.8980   29.1660 C.3       8 GLP5        0.0000 
     57 N          88.9780   -5.0340   32.4655 N.am      2 SEC2        0.0000 
     58 N          89.2750   -6.4590   32.3510 N.am     10 SEL2        0.0000 
     59 N          88.6810   -3.6090   32.5800 N.am      6 SEP2        0.0000 
     60 O          90.2700   -8.5680   30.0325 O.2       1 ALC1        0.0000 
     61 O          90.3050   -7.5860   30.7430 O.2       9 ALL1        0.0000 
     62 O          90.2350   -9.5500   29.3220 O.2       5 ALP1        0.0000 
     63 CA         89.0505   -5.2095   30.2535 C.3       4 GLC5        0.0000 
     64 CA         90.6800   -6.3790   30.0140 C.3      12 GLL5        0.0000 
     65 CA         87.4210   -4.0400   30.4930 C.3       8 GLP5        0.0000 
     66 CA         89.4700   -6.0925   28.2210 C.3       4 GLC5        0.0000 
     67 CA         88.2600   -5.8060   26.4280 C.3       8 GLP5        0.0000 
     68 CA         93.5245   -7.4095   30.4430 C.3       4 GLC5        0.0000 
     69 CA         92.0730   -5.8260   30.3510 C.3      12 GLL5        0.0000 
     70 CA         94.9760   -8.9930   30.5350 C.3       8 GLP5        0.0000 
     71 O          94.8235   -4.2885   29.8310 O.2       1 ALC1        0.0000 
     72 O          93.5450   -4.0970   29.5440 O.2       9 ALL1        0.0000 
     73 O          96.1020   -4.4800   30.1180 O.2       5 ALP1        0.0000 
     74 CA         93.1685   -4.0695   27.2800 C.3       4 GLC5        0.0000 
     75 CA         93.9700   -2.9290   28.7420 C.3      12 GLL5        0.0000 
     76 CA         92.3670   -5.2100   25.8180 C.3       8 GLP5        0.0000 
     77 CA         93.3190   -1.7925   27.1805 C.3       4 GLC5        0.0000 
     78 CA         92.6680   -0.6560   25.6190 C.3       8 GLP5        0.0000 
     79 CA         94.7620   -2.3285   31.4785 C.3       4 GLC5        0.0000 
     80 CA         94.5430   -1.7940   29.5890 C.3      12 GLL5        0.0000 
     81 CA         94.9810   -2.8630   33.3680 C.3       8 GLP5        0.0000 
     82 CA         93.9620    0.8825   30.1060 C.3       4 GLC5        0.0000 
     83 CA         94.7230   -0.2110   28.7750 C.3      12 GLL5        0.0000 
     84 CA         93.2010    1.9760   31.4370 C.3       8 GLP5        0.0000 
     85 CA         96.0885   -0.4845   27.3870 C.3       4 GLC5        0.0000 
     86 CA         97.4540   -0.7580   25.9990 C.3       8 GLP5        0.0000 
     87 CA         95.8535    1.6210   28.1980 C.3       4 GLC5        0.0000 
     88 CA         96.9840    3.4530   27.6210 C.3       8 GLP5        0.0000 
     89 CA         93.6955   -0.4335   27.1970 C.3       4 GLC5        0.0000 
     90 N          92.8375    0.6395   27.8555 N.am      2 SEC2        0.0000 
     91 N          93.3460    0.7210   29.3280 N.am     10 SEL2        0.0000 
     92 N          92.3290    0.5580   26.3830 N.am      6 SEP2        0.0000 
     93 CA         90.9532  -13.3980   28.1405 C.3       4 GLC5        0.0000 
     94 CA         92.2080  -14.8900   28.6230 C.3      12 GLL5        0.0000 
     95 CA         90.2610  -11.4560   27.7960 C.3       8 GLP5        0.0000 
     96 CA         91.5489   -7.7715   35.7889 C.3       4 GLC5        0.0000 
     97 CA         90.1040   -8.8880   34.1360 C.3      12 GLL5        0.0000 
     98 CA         92.9910   -7.2020   36.9490 C.3       8 GLP5        0.0000 
     99 CA         92.6372   -6.7938   28.7003 C.3       4 GLC5        0.0000 
    100 CA         93.8980   -7.4850   27.2180 C.3       8 GLP5        0.0000 
    101 CA         93.2253   -1.3467   30.5293 C.3       4 GLC5        0.0000 
    102 CA         92.1940   -0.3320   31.8930 C.3       8 GLP5        0.0000 
    103 CA         95.7357   -3.5843   30.0293 C.3       4 GLC5        0.0000 
    104 CA         97.2150   -4.8070   30.8930 C.3       8 GLP5        0.0000 
@<TRIPOS>BOND
@<TRIPOS>SUBSTRUCTURE
     1 ALC1       16 GROUP        1 X    ALC  0     ROOT ALC X 1
     2 SEC2        1 GROUP        1 X    SEC  0     **** SEC X 2
     3 LYC4       27 GROUP        1 X    LYC  0     **** LYC X 4
     4 GLC5        4 GROUP        1 X    GLC  0     **** GLC X 6
     5 ALP1       18 GROUP        1 Y    ALP  0     ROOT ALP Y 8
     6 SEP2        3 GROUP        1 Y    SEP  0     **** SEP Y 9
     7 LYP4       29 GROUP        1 Y    LYP  0     **** LYP Y 11
     8 GLP5        6 GROUP        1 Y    GLP  0     **** GLP Y 13
     9 ALL1       17 GROUP        1 Z    ALL  0     ROOT ALL Z 15
    10 SEL2        2 GROUP        1 Z    SEL  0     **** SEL Z 16
    11 LYL4       28 GROUP        1 Z    LYL  0     **** LYL Z 18
    12 GLL5        5 GROUP        1 Z    GLL  0     **** GLL Z 20
@<TRIPOS>SET

