#    Name: 2ii3_CAO_5_ligand
#    Modification time : Tue Mar 25 18:13:08 2014

@<TRIPOS>MOLECULE
2ii3_CAO_5_ligand
   81    83     1     0     0
SMALL
NO_CHARGES


@<TRIPOS>ATOM
      1 N1A        93.1860  -15.6680   26.5500 N.ar      1 CAO500      0.0000 
      2 C2A        92.1250  -16.4820   26.3710 C.ar      1 CAO500      0.0000 
      3 N3A        91.1030  -16.5480   27.2330 N.ar      1 CAO500      0.0000 
      4 C4A        91.0830  -15.7900   28.3470 C.ar      1 CAO500      0.0000 
      5 C5A        92.2080  -14.8900   28.6230 C.ar      1 CAO500      0.0000 
      6 C6A        93.3180  -14.8610   27.6050 C.ar      1 CAO500      0.0000 
      7 N6A        94.4280  -14.0750   27.7380 N.pl3     1 CAO500      0.0000 
      8 N7A        91.9420  -14.2600   29.8100 N.2       1 CAO500      0.0000 
      9 C8A        90.7300  -14.7370   30.2370 C.2       1 CAO500      0.0000 
     10 N9A        90.2200  -15.6490   29.3620 N.pl3     1 CAO500      0.0000 
     11 C1B        88.9480  -16.4250   29.5170 C.3       1 CAO500      0.0000 
     12 C2B        89.1870  -17.3250   30.7350 C.3       1 CAO500      0.0000 
     13 O2B        89.8340  -18.5240   30.3120 O.3       1 CAO500      0.0000 
     14 C3B        87.7910  -17.6110   31.2450 C.3       1 CAO500      0.0000 
     15 O3B        87.1480  -18.5650   30.3830 O.3       1 CAO500      0.0000 
     16 P3B        86.0580  -19.6900   30.8450 P.3       1 CAO500      0.0000 
     17 O7A        84.9650  -18.8580   31.5030 O.co2     1 CAO500      0.0000 
     18 O8A        86.7900  -20.5700   31.8180 O.co2     1 CAO500      0.0000 
     19 O9A        85.6780  -20.3160   29.5330 O.co2     1 CAO500      0.0000 
     20 C4B        87.1370  -16.2660   31.0110 C.3       1 CAO500      0.0000 
     21 O4B        87.7420  -15.7010   29.8250 O.3       1 CAO500      0.0000 
     22 C5B        87.4860  -15.4620   32.2490 C.3       1 CAO500      0.0000 
     23 O5B        87.4780  -14.1000   31.9020 O.3       1 CAO500      0.0000 
     24 P1A        87.3030  -12.9370   32.9900 P.3       1 CAO500      0.0000 
     25 O1A        86.0690  -13.1790   33.8510 O.co2     1 CAO500      0.0000 
     26 O2A        87.5010  -11.6500   32.2250 O.co2     1 CAO500      0.0000 
     27 O3A        88.4800  -13.2110   34.0530 O.3       1 CAO500      0.0000 
     28 P2A        90.0560  -12.8650   34.0200 P.3       1 CAO500      0.0000 
     29 O4A        90.6710  -13.6920   32.9290 O.co2     1 CAO500      0.0000 
     30 O5A        90.5160  -12.9940   35.4650 O.co2     1 CAO500      0.0000 
     31 O6A        90.2170  -11.2700   33.6700 O.3       1 CAO500      0.0000 
     32 CBP        90.1040   -8.8880   34.1360 C.3       1 CAO500      0.0000 
     33 CCP        89.9330  -10.2990   34.6740 C.3       1 CAO500      0.0000 
     34 CDP        91.5930   -8.5660   34.2330 C.3       1 CAO500      0.0000 
     35 CEP        89.3650   -7.9550   35.0730 C.3       1 CAO500      0.0000 
     36 CAP        89.5090   -8.8340   32.7050 C.3       1 CAO500      0.0000 
     37 OAP        88.0850   -9.1910   32.7110 O.3       1 CAO500      0.0000 
     38 C9P        89.6980   -7.5250   31.9300 C.2       1 CAO500      0.0000 
     39 O9P        89.2750   -6.4590   32.3510 O.2       1 CAO500      0.0000 
     40 N8P        90.3050   -7.5860   30.7430 N.am      1 CAO500      0.0000 
     41 C7P        90.6800   -6.3790   30.0140 C.3       1 CAO500      0.0000 
     42 C6P        92.0730   -5.8260   30.3510 C.3       1 CAO500      0.0000 
     43 C5P        92.2680   -4.4750   29.6960 C.2       1 CAO500      0.0000 
     44 O5P        91.2780   -3.8070   29.3640 O.2       1 CAO500      0.0000 
     45 N4P        93.5450   -4.0970   29.5440 N.am      1 CAO500      0.0000 
     46 C3P        93.9700   -2.9290   28.7420 C.3       1 CAO500      0.0000 
     47 C2P        94.5430   -1.7940   29.5890 C.3       1 CAO500      0.0000 
     48 S1P        94.7230   -0.2110   28.7750 S.3       1 CAO500      0.0000 
     49 O1P        93.3460    0.7210   29.3280 O.3       1 CAO500      0.0000 
     50 H          92.1038  -17.0981   25.5034 H         1 CAO500      0.0000 
     51 H          94.4719  -13.5115   28.5629 H         1 CAO500      0.0000 
     52 H          95.0988  -14.1323   26.9986 H         1 CAO500      0.0000 
     53 H          90.2909  -14.4561   31.0644 H         1 CAO500      0.0000 
     54 H          88.8187  -17.0929   28.6846 H         1 CAO500      0.0000 
     55 H          89.7186  -16.7766   31.4539 H         1 CAO500      0.0000 
     56 H          87.8023  -17.8343   32.2355 H         1 CAO500      0.0000 
     57 H          86.1059  -16.3921   30.9381 H         1 CAO500      0.0000 
     58 H          88.4666  -15.7959   32.5993 H         1 CAO500      0.0000 
     59 H          86.7482  -15.6986   33.0206 H         1 CAO500      0.0000 
     60 H          90.6004  -10.4100   35.5453 H         1 CAO500      0.0000 
     61 H          88.8996  -10.3935   35.0481 H         1 CAO500      0.0000 
     62 H          90.0388   -9.6306   32.1131 H         1 CAO500      0.0000 
     63 H          90.5389   -8.4872   30.2826 H         1 CAO500      0.0000 
     64 H          89.9429   -5.5654   30.2006 H         1 CAO500      0.0000 
     65 H          90.6489   -6.5608   28.9158 H         1 CAO500      0.0000 
     66 H          92.8249   -6.5219   29.9901 H         1 CAO500      0.0000 
     67 H          92.1617   -5.7285   31.4291 H         1 CAO500      0.0000 
     68 H          94.3324   -4.6251   29.9991 H         1 CAO500      0.0000 
     69 H          93.1156   -2.5322   28.1655 H         1 CAO500      0.0000 
     70 H          94.7360   -3.2313   28.0061 H         1 CAO500      0.0000 
     71 H          95.5549   -1.9989   29.9407 H         1 CAO500      0.0000 
     72 H          93.9174   -1.5514   30.4488 H         1 CAO500      0.0000 
     73 H          92.1468   -9.2053   33.6995 H         1 CAO500      0.0000 
     74 H          91.7973   -7.6477   33.8939 H         1 CAO500      0.0000 
     75 H          91.9218   -8.6099   35.1764 H         1 CAO500      0.0000 
     76 H          89.7243   -8.0034   36.0050 H         1 CAO500      0.0000 
     77 H          89.4366   -7.0014   34.7804 H         1 CAO500      0.0000 
     78 H          88.3905   -8.1739   35.1228 H         1 CAO500      0.0000 
     79 H          89.1583  -18.9968   29.7463 H         1 CAO500      0.0000 
     80 H          88.0605  -10.1609   32.4689 H         1 CAO500      0.0000 
     81 H          92.5476    0.1652   29.0965 H         1 CAO500      0.0000 
@<TRIPOS>BOND
     1    2    1 ar   
     2    6    1 ar   
     3    3    2 ar   
     4   50    2 1    
     5    4    3 ar   
     6    5    4 ar   
     7   10    4 1    
     8    6    5 ar   
     9    8    5 1    
    10    7    6 1    
    11   51    7 1    
    12   52    7 1    
    13    9    8 2    
    14   10    9 1    
    15   53    9 1    
    16   11   10 1    
    17   12   11 1    
    18   21   11 1    
    19   54   11 1    
    20   13   12 1    
    21   14   12 1    
    22   55   12 1    
    23   79   13 1    
    24   15   14 1    
    25   20   14 1    
    26   56   14 1    
    27   16   15 1    
    28   17   16 ar   
    29   18   16 ar   
    30   19   16 ar   
    31   21   20 1    
    32   22   20 1    
    33   57   20 1    
    34   23   22 1    
    35   58   22 1    
    36   59   22 1    
    37   24   23 1    
    38   25   24 ar   
    39   26   24 ar   
    40   27   24 1    
    41   28   27 1    
    42   29   28 ar   
    43   30   28 ar   
    44   31   28 1    
    45   33   31 1    
    46   33   32 1    
    47   34   32 1    
    48   35   32 1    
    49   36   32 1    
    50   60   33 1    
    51   61   33 1    
    52   73   34 1    
    53   74   34 1    
    54   75   34 1    
    55   76   35 1    
    56   77   35 1    
    57   78   35 1    
    58   37   36 1    
    59   38   36 1    
    60   62   36 1    
    61   80   37 1    
    62   39   38 2    
    63   40   38 am   
    64   41   40 1    
    65   63   40 1    
    66   42   41 1    
    67   64   41 1    
    68   65   41 1    
    69   43   42 1    
    70   66   42 1    
    71   67   42 1    
    72   44   43 2    
    73   45   43 am   
    74   46   45 1    
    75   68   45 1    
    76   47   46 1    
    77   69   46 1    
    78   70   46 1    
    79   48   47 1    
    80   71   47 1    
    81   72   47 1    
    82   49   48 1    
    83   81   49 1    
@<TRIPOS>SUBSTRUCTURE
     1 CAO500      1 GROUP   
@<TRIPOS>SET

