#    Name: 1s1w_UC1_1_INTS_M
#    Modification time : Tue Mar 25 01:46:53 2014

@<TRIPOS>MOLECULE
1s1w_UC1_1_INTS_M
   77     0     6     0     0
SMALL
NO_CHARGES


@<TRIPOS>ATOM
      1 CA         -1.0630  -36.9855   16.3295 C.3       2 GLC5        0.0000 
      2 CA         -0.6120  -37.1630   18.4390 C.3       6 GLL5        0.0000 
      3 CA         -1.5140  -36.8080   14.2200 C.3       4 GLP5        0.0000 
      4 CA          0.9955  -40.2655   18.2865 C.3       2 GLC5        0.0000 
      5 CA          2.3810  -40.2480   19.9250 C.3       6 GLL5        0.0000 
      6 CA         -0.3900  -40.2830   16.6480 C.3       4 GLP5        0.0000 
      7 CA          4.4650  -42.1610   21.6620 C.3       2 GLC5        0.0000 
      8 CA          3.0540  -40.6050   21.0140 C.3       6 GLL5        0.0000 
      9 CA          5.8760  -43.7170   22.3100 C.3       4 GLP5        0.0000 
     10 CA          2.7660  -40.2485   23.2055 C.3       2 GLC5        0.0000 
     11 CA          2.4780  -39.8920   25.3970 C.3       4 GLP5        0.0000 
     12 CA          2.1860  -42.1405   22.0195 C.3       2 GLC5        0.0000 
     13 CA          1.3180  -43.6760   23.0250 C.3       4 GLP5        0.0000 
     14 CA          5.4725  -40.0750   19.1740 C.3       2 GLC5        0.0000 
     15 CA          5.5660  -38.2390   19.8790 C.3       6 GLL5        0.0000 
     16 CA          5.3790  -41.9110   18.4690 C.3       4 GLP5        0.0000 
     17 CA          7.1900  -37.2370   19.4150 C.3       2 GLC5        0.0000 
     18 CA          8.8140  -36.2350   18.9510 C.3       4 GLP5        0.0000 
     19 CA          3.6535  -36.6100   18.5920 C.3       2 GLC5        0.0000 
     20 CA          2.8970  -38.4050   17.9880 C.3       6 GLL5        0.0000 
     21 CA          4.4100  -34.8150   19.1960 C.3       4 GLP5        0.0000 
     22 CA          3.4875  -36.3050   16.9290 C.3       2 GLC5        0.0000 
     23 CA          3.9890  -38.2350   16.7010 C.3       6 GLL5        0.0000 
     24 CA          2.9860  -34.3750   17.1570 C.3       4 GLP5        0.0000 
     25 CA          4.7815  -37.2895   15.2985 C.3       2 GLC5        0.0000 
     26 CA          5.5740  -36.3440   13.8960 C.3       4 GLP5        0.0000 
     27 CA          2.8770  -39.3555   16.0165 C.3       2 GLC5        0.0000 
     28 CA          1.7650  -40.4760   15.3320 C.3       4 GLP5        0.0000 
     29 O           1.2585  -37.5290   16.5475 O.2       1 ALC1        0.0000 
     30 O           1.6110  -37.8130   17.8720 O.2       5 ALL1        0.0000 
     31 O           0.9060  -37.2450   15.2230 O.2       3 ALP1        0.0000 
     32 CA         -2.6020  -36.5100   23.4205 C.3       2 GLC5        0.0000 
     33 CA         -2.6480  -36.0240   21.7100 C.3       6 GLL5        0.0000 
     34 CA         -2.5560  -36.9960   25.1310 C.3       4 GLP5        0.0000 
     35 CA         -2.2775  -34.3720   22.4325 C.3       2 GLC5        0.0000 
     36 CA         -1.9070  -32.7200   23.1550 C.3       4 GLP5        0.0000 
     37 CA         -4.2365  -34.8505   21.2650 C.3       2 GLC5        0.0000 
     38 CA         -5.8250  -33.6770   20.8200 C.3       4 GLP5        0.0000 
     39 CA         -3.9270  -36.3670   20.1905 C.3       2 GLC5        0.0000 
     40 CA         -5.2060  -36.7100   18.6710 C.3       4 GLP5        0.0000 
     41 CA         -0.6105  -37.1080   24.1710 C.3       2 GLC5        0.0000 
     42 CA          1.3350  -37.2200   23.2110 C.3       6 GLL5        0.0000 
     43 CA          5.9830  -33.9720   22.7130 C.3       2 GLC5        0.0000 
     44 CA          4.2550  -34.6830   23.8180 C.3       6 GLL5        0.0000 
     45 CA          7.7110  -33.2610   21.6080 C.3       4 GLP5        0.0000 
     46 CA          5.0285  -33.0680   24.5190 C.3       2 GLC5        0.0000 
     47 CA          5.8020  -31.4530   25.2200 C.3       4 GLP5        0.0000 
     48 CA          3.0055  -33.5955   26.1285 C.3       2 GLC5        0.0000 
     49 CA          2.3800  -35.2610   25.3630 C.3       6 GLL5        0.0000 
     50 CA          3.6310  -31.9300   26.8940 C.3       4 GLP5        0.0000 
     51 CA         -2.6460  -38.1150   21.6280 C.3       2 GLC5        0.0000 
     52 CA         -1.3420  -36.5340   20.6800 C.3       6 GLL5        0.0000 
     53 CA         -3.2970  -39.9510   22.0610 C.3       4 GLP5        0.0000 
     54 CA         -3.3413  -36.6743   19.3332 C.3       2 GLC5        0.0000 
     55 CA         -0.1723  -38.7770   17.6573 C.3       2 GLC5        0.0000 
     56 CA          4.6727  -36.7355   19.5670 C.3       2 GLC5        0.0000 
     57 CA          4.3050  -39.0730   19.9970 C.3       6 GLL5        0.0000 
     58 CA          5.6972  -38.9285   21.7840 C.3       2 GLC5        0.0000 
     59 CA          6.4590  -39.2010   23.6300 C.3       4 GLP5        0.0000 
     60 CA          2.4108  -39.6405   16.9723 C.3       2 GLC5        0.0000 
     61 CA          3.2160  -39.2050   19.2370 C.3       6 GLL5        0.0000 
     62 CA          1.2352  -41.6578   20.0887 C.3       2 GLC5        0.0000 
     63 CA         -0.2470  -42.8890   19.7080 C.3       4 GLP5        0.0000 
     64 CA          4.4110  -40.1155   17.9068 C.3       2 GLC5        0.0000 
     65 CA          1.3025  -35.3174   19.8681 C.3       2 GLC5        0.0000 
     66 CA          0.9850  -37.1660   20.2670 C.3       6 GLL5        0.0000 
     67 CA          2.1960  -33.6270   19.3620 C.3       4 GLP5        0.0000 
     68 CA          2.2185  -38.3347   24.2807 C.3       2 GLC5        0.0000 
     69 CA          2.5830  -36.3350   23.1180 C.3       6 GLL5        0.0000 
     70 CA          5.0265  -36.1857   24.6180 C.3       2 GLC5        0.0000 
     71 CA          3.0350  -35.4840   24.0420 C.3       6 GLL5        0.0000 
     72 CA          6.4080  -37.2880   25.3060 C.3       4 GLP5        0.0000 
     73 CA          1.9212  -36.7867   25.7058 C.3       2 GLC5        0.0000 
     74 CA          1.1350  -38.2010   26.7090 C.3       4 GLP5        0.0000 
     75 CA          1.5557  -33.7973   24.3438 C.3       2 GLC5        0.0000 
     76 CA          0.4040  -32.2220   23.9850 C.3       4 GLP5        0.0000 
     77 CA          4.3090  -40.8469   19.2561 C.3       2 GLC5        0.0000 
@<TRIPOS>BOND
@<TRIPOS>SUBSTRUCTURE
     1 ALC1       29 GROUP        1 X    ALC  0     ROOT ALC X 1
     2 GLC5        1 GROUP        1 X    GLC  0     **** GLC X 6
     3 ALP1       31 GROUP        1 Y    ALP  0     ROOT ALP Y 8
     4 GLP5        3 GROUP        1 Y    GLP  0     **** GLP Y 13
     5 ALL1       30 GROUP        1 Z    ALL  0     ROOT ALL Z 15
     6 GLL5        2 GROUP        1 Z    GLL  0     **** GLL Z 20
@<TRIPOS>SET

