#    Name: 1s1w_UC1_1_ligand
#    Modification time : Tue Mar 25 01:46:53 2014

@<TRIPOS>MOLECULE
1s1w_UC1_1_ligand
   40    41     1     0     0
SMALL
NO_CHARGES


@<TRIPOS>ATOM
      1 C2          0.9850  -37.1660   20.2670 C.ar      1 UC1999      0.0000 
      2 C4         -1.3420  -36.5340   20.6800 C.ar      1 UC1999      0.0000 
      3 C5         -1.6110  -36.7430   19.3110 C.ar      1 UC1999      0.0000 
      4 C6         -0.6120  -37.1630   18.4390 C.ar      1 UC1999      0.0000 
      5 O7          4.2520  -39.9080   21.1080 O.3       1 UC1999      0.0000 
      6 C8          4.3050  -39.0730   19.9970 C.2       1 UC1999      0.0000 
      7 C9          3.2160  -39.2050   19.2370 C.2       1 UC1999      0.0000 
      8 C10         2.3810  -40.2480   19.9250 C.2       1 UC1999      0.0000 
      9 C11         3.0540  -40.6050   21.0140 C.2       1 UC1999      0.0000 
     10 CA          5.5660  -38.2390   19.8790 C.3       1 UC1999      0.0000 
     11 C           2.8970  -38.4050   17.9880 C.2       1 UC1999      0.0000 
     12 S           3.9890  -38.2350   16.7010 S.2       1 UC1999      0.0000 
     13 N           1.6110  -37.8130   17.8720 N.am      1 UC1999      0.0000 
     14 C1          0.7030  -37.3790   18.8940 C.ar      1 UC1999      0.0000 
     15 C3         -0.0260  -36.7430   21.1680 C.ar      1 UC1999      0.0000 
     16 CL         -2.6480  -36.0240   21.7100 Cl        1 UC1999      0.0000 
     17 OB          0.2560  -36.5320   22.5340 O.3       1 UC1999      0.0000 
     18 CC          1.3350  -37.2200   23.2110 C.3       1 UC1999      0.0000 
     19 CD          2.5830  -36.3350   23.1180 C.2       1 UC1999      0.0000 
     20 CE          3.0350  -35.4840   24.0420 C.2       1 UC1999      0.0000 
     21 CF          4.2550  -34.6830   23.8180 C.3       1 UC1999      0.0000 
     22 CG          2.3800  -35.2610   25.3630 C.3       1 UC1999      0.0000 
     23 H           1.9390  -37.3207   20.6164 H         1 UC1999      0.0000 
     24 H          -2.5677  -36.5792   18.9590 H         1 UC1999      0.0000 
     25 H          -0.8302  -37.3207   17.4426 H         1 UC1999      0.0000 
     26 H           1.5652  -40.5212   19.5737 H         1 UC1999      0.0000 
     27 H           2.7726  -41.2653   21.6792 H         1 UC1999      0.0000 
     28 H           1.2560  -37.6639   16.8537 H         1 UC1999      0.0000 
     29 H           1.5596  -38.1712   22.7403 H         1 UC1999      0.0000 
     30 H           1.1110  -37.3789   24.2605 H         1 UC1999      0.0000 
     31 H           3.0941  -36.4662   22.1888 H         1 UC1999      0.0000 
     32 H           6.3848  -38.8100   19.8204 H         1 UC1999      0.0000 
     33 H           5.5534  -37.6601   19.0637 H         1 UC1999      0.0000 
     34 H           5.6862  -37.6341   20.6662 H         1 UC1999      0.0000 
     35 H           5.0568  -35.2615   23.6681 H         1 UC1999      0.0000 
     36 H           4.1680  -34.0896   23.0178 H         1 UC1999      0.0000 
     37 H           4.4608  -34.0935   24.5991 H         1 UC1999      0.0000 
     38 H           2.3333  -36.1026   25.9011 H         1 UC1999      0.0000 
     39 H           2.8740  -34.5881   25.9136 H         1 UC1999      0.0000 
     40 H           1.4434  -34.9258   25.2612 H         1 UC1999      0.0000 
@<TRIPOS>BOND
     1   14    1 ar   
     2   15    1 ar   
     3   23    1 1    
     4    3    2 ar   
     5   15    2 ar   
     6   16    2 1    
     7    4    3 ar   
     8   24    3 1    
     9   14    4 ar   
    10   25    4 1    
    11    6    5 1    
    12    9    5 1    
    13    7    6 2    
    14   10    6 1    
    15    8    7 1    
    16   11    7 1    
    17    9    8 2    
    18   26    8 1    
    19   27    9 1    
    20   32   10 1    
    21   33   10 1    
    22   34   10 1    
    23   12   11 2    
    24   13   11 am   
    25   14   13 1    
    26   28   13 1    
    27   17   15 1    
    28   18   17 1    
    29   19   18 1    
    30   29   18 1    
    31   30   18 1    
    32   20   19 2    
    33   31   19 1    
    34   21   20 1    
    35   22   20 1    
    36   35   21 1    
    37   36   21 1    
    38   37   21 1    
    39   38   22 1    
    40   39   22 1    
    41   40   22 1    
@<TRIPOS>SUBSTRUCTURE
     1 UC1999      1 GROUP   
@<TRIPOS>SET

