#    Name: 3rpo_24Z_1_INTS_M
#    Modification time : Tue Mar 25 11:47:55 2014

@<TRIPOS>MOLECULE
3rpo_24Z_1_INTS_M
   43     0     9     0     0
SMALL
NO_CHARGES


@<TRIPOS>ATOM
      1 O          62.9250   82.8795   23.4495 O.2       1 ALC1        0.0000 
      2 O          63.7870   82.0240   24.2740 O.2       7 ALL1        0.0000 
      3 O          62.0630   83.7350   22.6250 O.2       4 ALP1        0.0000 
      4 O          66.9230   82.4785   20.1595 O.2       1 ALC1        0.0000 
      5 O          66.9320   81.8670   21.5820 O.2       7 ALL1        0.0000 
      6 O          66.9140   83.0900   18.7370 O.2       4 ALP1        0.0000 
      7 CA         66.4270   83.5055   24.8470 C.3       3 GLC5        0.0000 
      8 CA         66.0900   81.6430   23.8040 C.3       9 GLL5        0.0000 
      9 CA         66.7640   85.3680   25.8900 C.3       6 GLP5        0.0000 
     10 CA         64.1580   79.5965   24.7920 C.3       3 GLC5        0.0000 
     11 CA         65.0840   80.9240   25.9570 C.3       9 GLL5        0.0000 
     12 CA         63.2320   78.2690   23.6270 C.3       6 GLP5        0.0000 
     13 CA         62.8540   80.0165   24.2845 C.3       3 GLC5        0.0000 
     14 CA         62.4760   81.7640   24.9420 C.3       9 GLL5        0.0000 
     15 CA         60.9910   84.3870   24.5005 C.3       3 GLC5        0.0000 
     16 CA         62.4870   84.1080   25.9630 C.3       9 GLL5        0.0000 
     17 CA         59.4950   84.6660   23.0380 C.3       6 GLP5        0.0000 
     18 CA         65.0300   76.1540   29.7540 C.3       3 GLC5        0.0000 
     19 CA         65.6520   77.8400   30.2870 C.3       9 GLL5        0.0000 
     20 CA         64.4080   74.4680   29.2210 C.3       6 GLP5        0.0000 
     21 N          64.1765   83.4330   21.2350 N.am      2 SEC2        0.0000 
     22 N          65.1890   83.0420   22.2380 N.am      8 SEL2        0.0000 
     23 N          63.1640   83.8240   20.2320 N.am      5 SEP2        0.0000 
     24 CA         68.8385   82.0648   25.6238 C.3       3 GLC5        0.0000 
     25 CA         67.3440   81.1150   24.2540 C.3       9 GLL5        0.0000 
     26 CA         70.2620   83.3250   26.3530 C.3       6 GLP5        0.0000 
     27 CA         67.7575   82.8970   23.1700 C.3       3 GLC5        0.0000 
     28 CA         68.7980   84.4150   22.3110 C.3       6 GLP5        0.0000 
     29 CA         65.4840   82.3750   26.7028 C.3       3 GLC5        0.0000 
     30 CA         64.9360   81.5500   24.6660 C.3       9 GLL5        0.0000 
     31 CA         65.9580   83.5130   28.0940 C.3       6 GLP5        0.0000 
     32 CA         65.2237   80.3267   23.0493 C.3       3 GLC5        0.0000 
     33 CA         64.6210   79.1890   21.7510 C.3       6 GLP5        0.0000 
     34 CA         66.4330   81.9797   27.0310 C.3       3 GLC5        0.0000 
     35 CA         67.4860   80.4940   25.5350 C.3       9 GLL5        0.0000 
     36 CA         61.1732   81.9692   29.5968 C.3       3 GLC5        0.0000 
     37 CA         61.6640   83.1390   28.4480 C.3       9 GLL5        0.0000 
     38 CA         60.5900   81.2460   31.2830 C.3       6 GLP5        0.0000 
     39 CA         60.4840   81.8934   25.7638 C.3       3 GLC5        0.0000 
     40 CA         62.2660   82.7230   26.1020 C.3       9 GLL5        0.0000 
     41 CA         58.8580   81.5420   25.0800 C.3       6 GLP5        0.0000 
     42 CA         63.9538   83.4196   27.8052 C.3       3 GLC5        0.0000 
     43 CA         61.8490   82.2460   27.3730 C.3       9 GLL5        0.0000 
@<TRIPOS>BOND
@<TRIPOS>SUBSTRUCTURE
     1 ALC1        1 GROUP        1 X    ALC  0     ROOT ALC X 1
     2 SEC2       21 GROUP        1 X    SEC  0     **** SEC X 2
     3 GLC5        7 GROUP        1 X    GLC  0     **** GLC X 6
     4 ALP1        3 GROUP        1 Y    ALP  0     ROOT ALP Y 8
     5 SEP2       23 GROUP        1 Y    SEP  0     **** SEP Y 9
     6 GLP5        9 GROUP        1 Y    GLP  0     **** GLP Y 13
     7 ALL1        2 GROUP        1 Z    ALL  0     ROOT ALL Z 15
     8 SEL2       22 GROUP        1 Z    SEL  0     **** SEL Z 16
     9 GLL5        8 GROUP        1 Z    GLL  0     **** GLL Z 20
@<TRIPOS>SET

