#    Name: 3rpo_24Z_1_ligand
#    Modification time : Tue Mar 25 11:47:55 2014

@<TRIPOS>MOLECULE
3rpo_24Z_1_ligand
   45    46     1     0     0
SMALL
NO_CHARGES


@<TRIPOS>ATOM
      1 N01        63.7870   82.0240   24.2740 N.pl3     1 24Z778      0.0000 
      2 N02        66.9320   81.8670   21.5820 N.am      1 24Z778      0.0000 
      3 N03        62.3150   85.0030   26.9990 N.ar      1 24Z778      0.0000 
      4 N04        66.4120   79.8450   27.5730 N.pl3     1 24Z778      0.0000 
      5 N05        68.6390   80.0350   25.8850 N.pl3     1 24Z778      0.0000 
      6 C06        67.3440   81.1150   24.2540 C.ar      1 24Z778      0.0000 
      7 C07        66.0900   81.6430   23.8040 C.ar      1 24Z778      0.0000 
      8 C08        64.9360   81.5500   24.6660 C.ar      1 24Z778      0.0000 
      9 C09        65.0840   80.9240   25.9570 C.ar      1 24Z778      0.0000 
     10 C10        66.3300   80.3990   26.4010 C.ar      1 24Z778      0.0000 
     11 C11        67.4860   80.4940   25.5350 C.ar      1 24Z778      0.0000 
     12 C12        66.0310   82.2260   22.5320 C.2       1 24Z778      0.0000 
     13 C13        62.4760   81.7640   24.9420 C.3       1 24Z778      0.0000 
     14 C14        62.2660   82.7230   26.1020 C.ar      1 24Z778      0.0000 
     15 C15        62.4870   84.1080   25.9630 C.ar      1 24Z778      0.0000 
     16 C16        61.9090   84.5040   28.2120 C.ar      1 24Z778      0.0000 
     17 C17        61.6640   83.1390   28.4480 C.ar      1 24Z778      0.0000 
     18 C18        61.8490   82.2460   27.3730 C.ar      1 24Z778      0.0000 
     19 C19        65.4390   78.8230   28.0150 C.3       1 24Z778      0.0000 
     20 C20        65.1040   79.0200   29.4890 C.3       1 24Z778      0.0000 
     21 C21        65.6520   77.8400   30.2870 C.3       1 24Z778      0.0000 
     22 C22        65.2230   77.9420   31.7370 C.2       1 24Z778      0.0000 
     23 O23        65.1890   83.0420   22.2380 O.2       1 24Z778      0.0000 
     24 O24        65.9470   78.6650   32.6030 O.co2     1 24Z778      0.0000 
     25 O25        64.2280   77.3650   32.1140 O.co2     1 24Z778      0.0000 
     26 O26        69.7050   80.2530   25.1300 O.2       1 24Z778      0.0000 
     27 O27        68.7880   79.3440   26.9820 O.2       1 24Z778      0.0000 
     28 H          63.6962   82.6532   23.4189 H         1 24Z778      0.0000 
     29 H          67.6260   81.2038   21.8620 H         1 24Z778      0.0000 
     30 H          66.8220   82.2975   20.6862 H         1 24Z778      0.0000 
     31 H          67.1505   80.0725   28.2730 H         1 24Z778      0.0000 
     32 H          68.1641   81.1850   23.6381 H         1 24Z778      0.0000 
     33 H          64.2599   80.8591   26.5688 H         1 24Z778      0.0000 
     34 H          62.4466   80.7391   25.3196 H         1 24Z778      0.0000 
     35 H          61.6608   81.8904   24.2255 H         1 24Z778      0.0000 
     36 H          62.7955   84.4617   25.0261 H         1 24Z778      0.0000 
     37 H          61.7695   85.1679   29.0181 H         1 24Z778      0.0000 
     38 H          61.3674   82.8105   29.3511 H         1 24Z778      0.0000 
     39 H          61.6825   81.2442   27.5051 H         1 24Z778      0.0000 
     40 H          65.8513   77.8208   27.8821 H         1 24Z778      0.0000 
     41 H          64.5170   78.8977   27.4349 H         1 24Z778      0.0000 
     42 H          64.0302   79.0693   29.6116 H         1 24Z778      0.0000 
     43 H          65.5585   79.9357   29.8432 H         1 24Z778      0.0000 
     44 H          66.7383   77.8421   30.2270 H         1 24Z778      0.0000 
     45 H          65.2745   76.9136   29.8593 H         1 24Z778      0.0000 
@<TRIPOS>BOND
     1    8    1 1    
     2   13    1 1    
     3   28    1 1    
     4   12    2 am   
     5   29    2 1    
     6   30    2 1    
     7   15    3 ar   
     8   16    3 ar   
     9   10    4 1    
    10   19    4 1    
    11   31    4 1    
    12   11    5 1    
    13   26    5 2    
    14   27    5 2    
    15    7    6 ar   
    16   11    6 ar   
    17   32    6 1    
    18    8    7 ar   
    19   12    7 1    
    20    9    8 ar   
    21   10    9 ar   
    22   33    9 1    
    23   11   10 ar   
    24   23   12 2    
    25   14   13 1    
    26   34   13 1    
    27   35   13 1    
    28   15   14 ar   
    29   18   14 ar   
    30   36   15 1    
    31   17   16 ar   
    32   37   16 1    
    33   18   17 ar   
    34   38   17 1    
    35   39   18 1    
    36   20   19 1    
    37   40   19 1    
    38   41   19 1    
    39   21   20 1    
    40   42   20 1    
    41   43   20 1    
    42   22   21 1    
    43   44   21 1    
    44   45   21 1    
    45   24   22 ar   
    46   25   22 ar   
@<TRIPOS>SUBSTRUCTURE
     1 24Z778      1 GROUP   
@<TRIPOS>SET

