#    Name: 1w73_NAP_3_INTS_M
#    Modification time : Tue Mar 25 08:44:26 2014

@<TRIPOS>MOLECULE
1w73_NAP_3_INTS_M
  113     0    12     0     0
SMALL
NO_CHARGES


@<TRIPOS>ATOM
      1 CA          5.3605  -18.5790   23.3305 C.3       4 GLC5        0.0000 
      2 CA          3.2030  -18.8130   23.7200 C.3      12 GLL5        0.0000 
      3 CA          7.5180  -18.3450   22.9410 C.3       8 GLP5        0.0000 
      4 N           5.3695  -17.2665   23.5975 N.am      2 SEC2        0.0000 
      5 N           4.3740  -18.3210   24.3330 N.am     10 SEL2        0.0000 
      6 N           6.3650  -16.2120   22.8620 N.am      6 SEP2        0.0000 
      7 CA          0.8040  -21.1015   24.7680 C.3       4 GLC5        0.0000 
      8 CA          2.4220  -19.6060   24.7540 C.3      12 GLL5        0.0000 
      9 CA         -0.8140  -22.5970   24.7820 C.3       8 GLP5        0.0000 
     10 O           1.5085  -21.2645   23.8205 O.2       1 ALC1        0.0000 
     11 O           2.5840  -20.9870   24.5300 O.2       9 ALL1        0.0000 
     12 O           0.4330  -21.5420   23.1110 O.2       5 ALP1        0.0000 
     13 CA          5.1060  -20.4705   24.7370 C.3       4 GLC5        0.0000 
     14 CA          4.4620  -18.8160   25.6520 C.3      12 GLL5        0.0000 
     15 CA          5.7500  -22.1250   23.8220 C.3       8 GLP5        0.0000 
     16 CA          6.3805  -18.7000   24.9390 C.3       4 GLC5        0.0000 
     17 CA          8.2990  -18.5840   24.2260 C.3       8 GLP5        0.0000 
     18 CA          8.8180  -17.6855   30.3095 C.3       4 GLC5        0.0000 
     19 CA          7.6090  -16.8210   28.7740 C.3      12 GLL5        0.0000 
     20 CA         10.0270  -18.5500   31.8450 C.3       8 GLP5        0.0000 
     21 CA          9.4090  -16.8995   27.8850 C.3       4 GLC5        0.0000 
     22 CA         11.2090  -16.9780   26.9960 C.3       8 GLP5        0.0000 
     23 O           8.9150  -15.6765   30.4660 O.2       1 ALC1        0.0000 
     24 O           7.9880  -15.6880   29.3420 O.2       9 ALL1        0.0000 
     25 O           9.8420  -15.6650   31.5900 O.2       5 ALP1        0.0000 
     26 N           9.8430  -17.9990   29.3495 N.am      2 SEC2        0.0000 
     27 N           8.4190  -17.9220   28.8930 N.am     10 SEL2        0.0000 
     28 N          11.2670  -18.0760   29.8060 N.am      6 SEP2        0.0000 
     29 CA          7.4000  -20.7305   28.5410 C.3       4 GLC5        0.0000 
     30 CA          8.1270  -19.0680   28.1920 C.3      12 GLL5        0.0000 
     31 CA          6.6730  -22.3930   28.8900 C.3       8 GLP5        0.0000 
     32 CA          7.0515  -18.6870   30.0170 C.3       4 GLC5        0.0000 
     33 CA          5.9760  -18.3060   31.8420 C.3       8 GLP5        0.0000 
     34 CA          9.0770  -18.8090   30.0185 C.3       4 GLC5        0.0000 
     35 CA          9.9050  -19.2670   27.6685 C.3       4 GLC5        0.0000 
     36 CA         11.6830  -19.4660   27.1450 C.3       8 GLP5        0.0000 
     37 CA          8.2130  -18.8260   26.2090 C.3       4 GLC5        0.0000 
     38 CA          5.8600  -20.1125   27.5940 C.3       4 GLC5        0.0000 
     39 CA          6.2180  -18.0330   27.2580 C.3      12 GLL5        0.0000 
     40 CA          5.5020  -22.1920   27.9300 C.3       8 GLP5        0.0000 
     41 N           0.7430  -21.1575   18.1815 N.am      2 SEC2        0.0000 
     42 N           0.7880  -19.9820   18.8050 N.am     10 SEL2        0.0000 
     43 N           0.6980  -22.3330   17.5580 N.am      6 SEP2        0.0000 
     44 CA          2.7560  -20.0285   17.0895 C.3       4 GLC5        0.0000 
     45 CA          3.1340  -18.5200   18.1980 C.3      12 GLL5        0.0000 
     46 CA          2.3780  -21.5370   15.9810 C.3       8 GLP5        0.0000 
     47 CA          3.4680  -18.6400   15.9865 C.3       4 GLC5        0.0000 
     48 CA          4.2290  -17.6740   17.5260 C.3      12 GLL5        0.0000 
     49 CA          2.7070  -19.6060   14.4470 C.3       8 GLP5        0.0000 
     50 CA          5.3870  -17.9730   15.9480 C.3       4 GLC5        0.0000 
     51 CA          6.5450  -18.2720   14.3700 C.3       8 GLP5        0.0000 
     52 N           6.8640  -15.1930   18.0250 N.am      2 SEC2        0.0000 
     53 N           6.0020  -16.2600   18.2470 N.am     10 SEL2        0.0000 
     54 N           7.7260  -14.1260   17.8030 N.am      6 SEP2        0.0000 
     55 O           6.3520  -17.2795   19.2670 O.2       1 ALC1        0.0000 
     56 O           6.0020  -16.2600   18.2470 O.2       9 ALL1        0.0000 
     57 O           6.7020  -18.2990   20.2870 O.2       5 ALP1        0.0000 
     58 N           6.2190  -14.1215   17.6820 N.am      2 SEC2        0.0000 
     59 N           4.7120  -14.1170   17.5610 N.am     10 SEL2        0.0000 
     60 CA          3.3475  -17.7450   15.2335 C.3       4 GLC5        0.0000 
     61 CA          3.9880  -15.8840   16.0200 C.3      12 GLL5        0.0000 
     62 CA          5.2665  -17.0780   15.1950 C.3       4 GLC5        0.0000 
     63 CA          4.3495  -16.3680   13.8605 C.3       4 GLC5        0.0000 
     64 CA          4.7110  -16.8520   11.7010 C.3       8 GLP5        0.0000 
     65 CA          2.1670  -17.7510   14.8175 C.3       4 GLC5        0.0000 
     66 CA          1.6270  -15.8960   15.1880 C.3      12 GLL5        0.0000 
     67 N          -2.2290  -16.0150   12.3580 N.am      2 SEC2        0.0000 
     68 N          -1.8040  -15.3200   13.6540 N.am     10 SEL2        0.0000 
     69 N          -2.6540  -16.7100   11.0620 N.am      6 SEP2        0.0000 
     70 O          -2.6760  -17.3315   15.6415 O.2       1 ALC1        0.0000 
     71 O          -1.1260  -16.7370   15.4760 O.2       9 ALL1        0.0000 
     72 O          -4.2260  -17.9260   15.8070 O.2       5 ALP1        0.0000 
     73 CA          3.9880  -15.7285   12.8700 C.3       4 GLC5        0.0000 
     74 CA          3.2650  -14.6050   14.0390 C.3      12 GLL5        0.0000 
     75 NZ          1.9675  -17.6575   29.1025 N.4       3 LYC4        0.0000 
     76 NZ          1.5550  -19.0090   28.6340 N.4      11 LYL4        0.0000 
     77 NZ          3.3110  -16.1290   30.5050 N.4       7 LYP4        0.0000 
     78 NZ          0.3940  -18.3075   29.6405 N.4       3 LYC4        0.0000 
     79 NZ         -0.7670  -17.6060   30.6470 N.4       7 LYP4        0.0000 
     80 N           1.9675  -17.6575   29.1025 N.am      2 SEC2        0.0000 
     81 N           1.5550  -19.0090   28.6340 N.am     10 SEL2        0.0000 
     82 N           2.3800  -16.3060   29.5710 N.am      6 SEP2        0.0000 
     83 N           0.3940  -18.3075   29.6405 N.am      2 SEC2        0.0000 
     84 N          -0.7670  -17.6060   30.6470 N.am      6 SEP2        0.0000 
     85 N           3.4500  -22.0835   28.7925 N.am      2 SEC2        0.0000 
     86 N           2.5430  -21.2320   29.2590 N.am     10 SEL2        0.0000 
     87 N           4.3570  -22.9350   28.3260 N.am      6 SEP2        0.0000 
     88 N           2.7815  -21.5640   30.6405 N.am      2 SEC2        0.0000 
     89 N           3.0200  -21.8960   32.0220 N.am      6 SEP2        0.0000 
     90 NZ          3.1670  -17.7355   29.3390 N.4       3 LYC4        0.0000 
     91 NZ          3.9540  -19.1650   29.1070 N.4      11 LYL4        0.0000 
     92 N           4.7145  -20.1715   29.8800 N.am      2 SEC2        0.0000 
     93 N           3.9540  -19.1650   29.1070 N.am     10 SEL2        0.0000 
     94 N           5.4750  -21.1780   30.6530 N.am      6 SEP2        0.0000 
     95 N           4.1505  -18.0650   29.8400 N.am      2 SEC2        0.0000 
     96 N           4.3470  -16.9650   30.5730 N.am      6 SEP2        0.0000 
     97 N           3.1670  -17.7355   29.3390 N.am      2 SEC2        0.0000 
     98 CA          4.2812  -20.6673   24.0295 C.3       4 GLC5        0.0000 
     99 CA          4.6275  -20.5930   26.8915 C.3       4 GLC5        0.0000 
    100 CA          6.2475  -16.8730   29.9565 C.3       4 GLC5        0.0000 
    101 CA          6.4930  -16.8710   27.9520 C.3      12 GLL5        0.0000 
    102 CA          5.4440  -16.9000   31.5500 C.3       8 GLP5        0.0000 
    103 CA          7.3272  -18.0180   25.9155 C.3       4 GLC5        0.0000 
    104 CA          7.5685  -15.3195   27.0810 C.3       4 GLC5        0.0000 
    105 CA          8.0860  -13.7930   25.7990 C.3       8 GLP5        0.0000 
    106 CA          5.1107  -15.2030   19.4703 C.3       4 GLC5        0.0000 
    107 CA          4.5940  -16.3950   18.2580 C.3      12 GLL5        0.0000 
    108 CA          5.9460  -14.5610   21.0960 C.3       8 GLP5        0.0000 
    109 CA          2.5918  -15.5977   11.9750 C.3       4 GLC5        0.0000 
    110 CA          2.2960  -14.2000   13.1170 C.3      12 GLL5        0.0000 
    111 CA          3.5470  -16.7760   10.7740 C.3       8 GLP5        0.0000 
    112 CA          4.1513  -12.9303   13.2815 C.3       4 GLC5        0.0000 
    113 CA          5.5220  -11.4580   12.9850 C.3       8 GLP5        0.0000 
@<TRIPOS>BOND
@<TRIPOS>SUBSTRUCTURE
     1 ALC1       10 GROUP        1 X    ALC  0     ROOT ALC X 1
     2 SEC2        4 GROUP        1 X    SEC  0     **** SEC X 2
     3 LYC4       75 GROUP        1 X    LYC  0     **** LYC X 4
     4 GLC5        1 GROUP        1 X    GLC  0     **** GLC X 6
     5 ALP1       12 GROUP        1 Y    ALP  0     ROOT ALP Y 8
     6 SEP2        6 GROUP        1 Y    SEP  0     **** SEP Y 9
     7 LYP4       77 GROUP        1 Y    LYP  0     **** LYP Y 11
     8 GLP5        3 GROUP        1 Y    GLP  0     **** GLP Y 13
     9 ALL1       11 GROUP        1 Z    ALL  0     ROOT ALL Z 15
    10 SEL2        5 GROUP        1 Z    SEL  0     **** SEL Z 16
    11 LYL4       76 GROUP        1 Z    LYL  0     **** LYL Z 18
    12 GLL5        2 GROUP        1 Z    GLL  0     **** GLL Z 20
@<TRIPOS>SET

