#    Name: 1w73_NAP_3_ligand
#    Modification time : Tue Mar 25 08:44:27 2014

@<TRIPOS>MOLECULE
1w73_NAP_3_ligand
   73    77     1     0     0
SMALL
NO_CHARGES


@<TRIPOS>ATOM
      1 PA          0.6400  -17.1020   21.3940 P.3       1 NAP1330     0.0000 
      2 O1A         1.5520  -16.1060   20.7490 O.co2     1 NAP1330     0.0000 
      3 O2A        -0.4410  -16.4250   22.2770 O.co2     1 NAP1330     0.0000 
      4 O5B         1.5190  -18.1170   22.2880 O.3       1 NAP1330     0.0000 
      5 C5B         2.3790  -17.6210   23.2810 C.3       1 NAP1330     0.0000 
      6 C4B         3.2030  -18.8130   23.7200 C.3       1 NAP1330     0.0000 
      7 O4B         4.3740  -18.3210   24.3330 O.3       1 NAP1330     0.0000 
      8 C3B         2.4220  -19.6060   24.7540 C.3       1 NAP1330     0.0000 
      9 O3B         2.5840  -20.9870   24.5300 O.3       1 NAP1330     0.0000 
     10 C2B         3.0440  -19.1720   26.0540 C.3       1 NAP1330     0.0000 
     11 O2B         3.0190  -20.2160   26.9850 O.3       1 NAP1330     0.0000 
     12 C1B         4.4620  -18.8160   25.6520 C.3       1 NAP1330     0.0000 
     13 N9A         5.0820  -17.8160   26.5240 N.pl3     1 NAP1330     0.0000 
     14 C8A         4.6660  -16.5330   26.7680 C.2       1 NAP1330     0.0000 
     15 N7A         5.5360  -15.9700   27.6410 N.2       1 NAP1330     0.0000 
     16 C5A         6.4930  -16.8710   27.9520 C.ar      1 NAP1330     0.0000 
     17 C6A         7.6090  -16.8210   28.7740 C.ar      1 NAP1330     0.0000 
     18 N6A         7.9880  -15.6880   29.3420 N.pl3     1 NAP1330     0.0000 
     19 N1A         8.4190  -17.9220   28.8930 N.ar      1 NAP1330     0.0000 
     20 C2A         8.1270  -19.0680   28.1920 C.ar      1 NAP1330     0.0000 
     21 N3A         7.0190  -19.1210   27.3830 N.ar      1 NAP1330     0.0000 
     22 C4A         6.2180  -18.0330   27.2580 C.ar      1 NAP1330     0.0000 
     23 O3         -0.0070  -18.1480   20.3330 O.3       1 NAP1330     0.0000 
     24 PN          0.5690  -18.5160   18.8510 P.3       1 NAP1330     0.0000 
     25 O1N        -0.3670  -17.8780   17.8880 O.co2     1 NAP1330     0.0000 
     26 O2N         0.7880  -19.9820   18.8050 O.co2     1 NAP1330     0.0000 
     27 O5D         2.0130  -17.7910   18.6760 O.3       1 NAP1330     0.0000 
     28 C5D         3.1340  -18.5200   18.1980 C.3       1 NAP1330     0.0000 
     29 C4D         4.2290  -17.6740   17.5260 C.3       1 NAP1330     0.0000 
     30 O4D         3.8690  -17.2860   16.2090 O.3       1 NAP1330     0.0000 
     31 C3D         4.5940  -16.3950   18.2580 C.3       1 NAP1330     0.0000 
     32 O3D         6.0020  -16.2600   18.2470 O.3       1 NAP1330     0.0000 
     33 C2D         3.9570  -15.2950   17.4310 C.3       1 NAP1330     0.0000 
     34 O2D         4.7120  -14.1170   17.5610 O.3       1 NAP1330     0.0000 
     35 C1D         3.9880  -15.8840   16.0200 C.3       1 NAP1330     0.0000 
     36 N1N         2.9280  -15.4430   15.0730 N.pl3     1 NAP1330     0.0000 
     37 C2N         1.6270  -15.8960   15.1880 C.ar      1 NAP1330     0.0000 
     38 C3N         0.6340  -15.4980   14.2770 C.ar      1 NAP1330     0.0000 
     39 C7N        -0.8110  -15.8800   14.4920 C.2       1 NAP1330     0.0000 
     40 O7N        -1.8040  -15.3200   13.6540 O.2       1 NAP1330     0.0000 
     41 N7N        -1.1260  -16.7370   15.4760 N.am      1 NAP1330     0.0000 
     42 C4N         0.9770  -14.6390   13.2350 C.ar      1 NAP1330     0.0000 
     43 C5N         2.2960  -14.2000   13.1170 C.ar      1 NAP1330     0.0000 
     44 C6N         3.2650  -14.6050   14.0390 C.ar      1 NAP1330     0.0000 
     45 P2B         2.7380  -19.8930   28.5380 P.3       1 NAP1330     0.0000 
     46 O1X         1.5550  -19.0090   28.6340 O.co2     1 NAP1330     0.0000 
     47 O2X         2.5430  -21.2320   29.2590 O.co2     1 NAP1330     0.0000 
     48 O3X         3.9540  -19.1650   29.1070 O.co2     1 NAP1330     0.0000 
     49 H           1.8456  -17.2445   24.1439 H         1 NAP1330     0.0000 
     50 H           3.0553  -16.8640   22.9062 H         1 NAP1330     0.0000 
     51 H           3.4062  -19.4277   22.8847 H         1 NAP1330     0.0000 
     52 H           1.4155  -19.2742   24.7284 H         1 NAP1330     0.0000 
     53 H           2.5578  -18.2836   26.3759 H         1 NAP1330     0.0000 
     54 H           5.0430  -19.7344   25.6622 H         1 NAP1330     0.0000 
     55 H           3.8941  -16.1159   26.3841 H         1 NAP1330     0.0000 
     56 H           7.4630  -14.8740   29.0935 H         1 NAP1330     0.0000 
     57 H           8.7652  -15.7482   29.9684 H         1 NAP1330     0.0000 
     58 H           8.7459  -19.8943   28.2750 H         1 NAP1330     0.0000 
     59 H           2.8276  -19.3000   17.4554 H         1 NAP1330     0.0000 
     60 H           3.6297  -19.0938   19.0219 H         1 NAP1330     0.0000 
     61 H           5.1465  -18.2881   17.4800 H         1 NAP1330     0.0000 
     62 H           4.1663  -16.4113   19.2116 H         1 NAP1330     0.0000 
     63 H           2.9443  -15.2089   17.7341 H         1 NAP1330     0.0000 
     64 H           4.9725  -15.6727   15.5976 H         1 NAP1330     0.0000 
     65 H           1.3695  -16.5410   15.9565 H         1 NAP1330     0.0000 
     66 H          -0.3703  -17.0334   16.0600 H         1 NAP1330     0.0000 
     67 H          -2.0882  -17.0024   15.5371 H         1 NAP1330     0.0000 
     68 H           0.2697  -14.3329   12.5631 H         1 NAP1330     0.0000 
     69 H           2.5590  -13.5718   12.3438 H         1 NAP1330     0.0000 
     70 H           4.2340  -14.2670   13.9328 H         1 NAP1330     0.0000 
     71 H           1.8218  -21.2439   23.9357 H         1 NAP1330     0.0000 
     72 H           6.3320  -16.9372   18.9046 H         1 NAP1330     0.0000 
     73 H           4.0967  -13.4626   18.0005 H         1 NAP1330     0.0000 
@<TRIPOS>BOND
     1    2    1 ar   
     2    3    1 ar   
     3    4    1 1    
     4   23    1 1    
     5    5    4 1    
     6    6    5 1    
     7   49    5 1    
     8   50    5 1    
     9    7    6 1    
    10    8    6 1    
    11   51    6 1    
    12   12    7 1    
    13    9    8 1    
    14   10    8 1    
    15   52    8 1    
    16   71    9 1    
    17   11   10 1    
    18   12   10 1    
    19   53   10 1    
    20   45   11 1    
    21   13   12 1    
    22   54   12 1    
    23   14   13 1    
    24   22   13 1    
    25   15   14 2    
    26   55   14 1    
    27   16   15 1    
    28   17   16 ar   
    29   22   16 ar   
    30   18   17 1    
    31   19   17 ar   
    32   56   18 1    
    33   57   18 1    
    34   20   19 ar   
    35   21   20 ar   
    36   58   20 1    
    37   22   21 ar   
    38   24   23 1    
    39   25   24 ar   
    40   26   24 ar   
    41   27   24 1    
    42   28   27 1    
    43   29   28 1    
    44   59   28 1    
    45   60   28 1    
    46   30   29 1    
    47   31   29 1    
    48   61   29 1    
    49   35   30 1    
    50   32   31 1    
    51   33   31 1    
    52   62   31 1    
    53   72   32 1    
    54   34   33 1    
    55   35   33 1    
    56   63   33 1    
    57   73   34 1    
    58   36   35 1    
    59   64   35 1    
    60   37   36 ar   
    61   44   36 ar   
    62   38   37 ar   
    63   65   37 1    
    64   39   38 1    
    65   42   38 ar   
    66   40   39 2    
    67   41   39 am   
    68   66   41 1    
    69   67   41 1    
    70   43   42 ar   
    71   68   42 1    
    72   44   43 ar   
    73   69   43 1    
    74   70   44 1    
    75   46   45 ar   
    76   47   45 ar   
    77   48   45 ar   
@<TRIPOS>SUBSTRUCTURE
     1 NAP1330     1 GROUP   
@<TRIPOS>SET

