#    Name: 1DY4_1_CAVITY_N1_6.mol2
#    Modification time : Mon Mar 10 19:16:56 2014

@<TRIPOS>MOLECULE
1DY4_1_CAVITY_N1_6.mol2
  153     0     6     0     0
SMALL
NO_CHARGES


@<TRIPOS>ATOM
      1 DU         20.0603   49.6075   95.4046 H         6 CUB7        0.0000 
      2 CZ         18.6482   50.8548   94.4298 C.ar      4 PHE5        0.0000 
      3 CZ         19.5785   49.7624   93.9925 C.ar      4 PHE5        0.0000 
      4 OG         20.5088   48.6700   93.5552 O.2       1 SER1        0.0000 
      5 CZ         19.0967   49.9173   92.5805 C.ar      4 PHE5        0.0000 
      6 CA         20.0270   48.8249   92.1432 C.3       5 GLY6        0.0000 
      7 OG         18.6149   50.0722   91.1684 O.2       1 SER1        0.0000 
      8 CA         19.5451   48.9798   90.7312 C.3       5 GLY6        0.0000 
      9 O          20.6853   51.5612   96.9991 O.2       2 ALA2        0.0000 
     10 DU         21.6156   50.4687   96.5618 H         6 CUB7        0.0000 
     11 NZ         22.5459   49.3763   96.1245 N.2       3 LYS4        0.0000 
     12 O          20.2035   51.7161   95.5870 O.2       2 ALA2        0.0000 
     13 NZ         21.1338   50.6236   95.1497 N.2       3 LYS4        0.0000 
     14 CZ         19.7217   51.8710   94.1750 C.ar      4 PHE5        0.0000 
     15 NZ         20.6520   50.7786   93.7377 N.2       3 LYS4        0.0000 
     16 CZ         20.1702   50.9335   92.3257 C.ar      4 PHE5        0.0000 
     17 O          19.6884   51.0884   90.9136 O.2       2 ALA2        0.0000 
     18 CZ         19.2066   51.2433   89.5016 C.ar      4 PHE5        0.0000 
     19 O          21.7589   52.5773   96.7442 O.2       2 ALA2        0.0000 
     20 CA         22.6891   51.4849   96.3070 C.3       5 GLY6        0.0000 
     21 O          21.2770   52.7322   95.3322 O.2       2 ALA2        0.0000 
     22 NZ         22.2073   51.6398   94.8949 N.2       3 LYS4        0.0000 
     23 CA         20.7952   52.8872   93.9202 C.3       5 GLY6        0.0000 
     24 NZ         21.7255   51.7947   93.4829 N.2       3 LYS4        0.0000 
     25 CZ         20.3134   53.0421   92.5081 C.ar      4 PHE5        0.0000 
     26 O          21.2437   51.9497   92.0708 O.2       2 ALA2        0.0000 
     27 OG         19.8316   53.1970   91.0961 O.2       1 SER1        0.0000 
     28 O          20.7619   52.1046   90.6588 O.2       2 ALA2        0.0000 
     29 OG         19.3498   53.3519   89.6840 O.2       1 SER1        0.0000 
     30 O          20.2801   52.2595   89.2468 O.2       2 ALA2        0.0000 
     31 NZ         23.3142   53.4386   97.9015 N.2       3 LYS4        0.0000 
     32 NZ         24.2445   52.3462   97.4642 N.2       3 LYS4        0.0000 
     33 O          22.8324   53.5935   96.4894 O.2       2 ALA2        0.0000 
     34 N          23.7627   52.5011   96.0521 N.2       2 ALA2        0.0000 
     35 O          21.4203   54.8408   95.5147 O.2       2 ALA2        0.0000 
     36 CA         22.3506   53.7484   95.0774 C.3       5 GLY6        0.0000 
     37 NZ         23.2808   52.6560   94.6401 N.2       3 LYS4        0.0000 
     38 CA         21.8687   53.9033   93.6653 C.3       5 GLY6        0.0000 
     39 O          22.7990   52.8109   93.2281 O.2       2 ALA2        0.0000 
     40 CA         21.3869   54.0583   92.2533 C.3       5 GLY6        0.0000 
     41 O          22.3172   52.9658   91.8160 O.2       2 ALA2        0.0000 
     42 CA         20.9051   54.2132   90.8413 C.3       5 GLY6        0.0000 
     43 O          21.8354   53.1208   90.4040 O.2       2 ALA2        0.0000 
     44 CA         20.4233   54.3681   89.4292 C.3       5 GLY6        0.0000 
     45 OG         21.3536   53.2757   88.9919 O.2       1 SER1        0.0000 
     46 N          20.3566   52.8029   82.9065 N.2       2 ALA2        0.0000 
     47 NZ         24.3877   54.4548   97.6466 N.2       3 LYS4        0.0000 
     48 N          22.9756   55.7021   96.6719 N.2       2 ALA2        0.0000 
     49 N          23.9059   54.6097   96.2346 N.2       2 ALA2        0.0000 
     50 CZ         23.4241   54.7646   94.8226 C.ar      4 PHE5        0.0000 
     51 N          24.3544   53.6722   94.3853 N.2       2 ALA2        0.0000 
     52 CZ         22.9423   54.9195   93.4105 C.ar      4 PHE5        0.0000 
     53 N          23.8725   53.8271   92.9732 N.2       2 ALA2        0.0000 
     54 CZ         22.4605   55.0744   91.9985 C.ar      4 PHE5        0.0000 
     55 O          23.3907   53.9820   91.5612 O.2       2 ALA2        0.0000 
     56 O          21.9786   55.2294   90.5864 O.2       2 ALA2        0.0000 
     57 O          22.9089   54.1369   90.1492 O.2       2 ALA2        0.0000 
     58 N          23.8392   53.0445   89.7119 N.2       2 ALA2        0.0000 
     59 O          21.4968   55.3843   89.1744 O.2       2 ALA2        0.0000 
     60 OG         22.4271   54.2919   88.7371 O.2       1 SER1        0.0000 
     61 CA         20.4999   54.9115   83.0890 C.3       5 GLY6        0.0000 
     62 CA         21.4301   53.8191   82.6517 C.3       5 GLY6        0.0000 
     63 CZ         24.0491   56.7183   96.4171 C.ar      4 PHE5        0.0000 
     64 N          24.9794   55.6259   95.9798 N.2       2 ALA2        0.0000 
     65 CZ         24.4976   55.7808   94.5677 C.ar      4 PHE5        0.0000 
     66 N          25.4279   54.6884   94.1305 N.2       2 ALA2        0.0000 
     67 N          24.9461   54.8433   92.7184 N.2       2 ALA2        0.0000 
     68 CZ         23.5340   56.0906   91.7437 C.ar      4 PHE5        0.0000 
     69 N          24.4642   54.9982   91.3064 N.2       2 ALA2        0.0000 
     70 O          25.3945   53.9058   90.8691 O.2       2 ALA2        0.0000 
     71 CZ         23.0522   56.2455   90.3316 C.ar      4 PHE5        0.0000 
     72 O          23.9824   55.1531   89.8943 O.2       2 ALA2        0.0000 
     73 O          22.5703   56.4005   88.9196 O.2       2 ALA2        0.0000 
     74 OG         23.5006   55.3080   88.4823 O.2       1 SER1        0.0000 
     75 NZ         22.0885   56.5554   87.5075 N.2       3 LYS4        0.0000 
     76 OG         23.0188   55.4630   87.0703 O.2       1 SER1        0.0000 
     77 NZ         21.6067   56.7103   86.0955 N.2       3 LYS4        0.0000 
     78 CA         22.5370   55.6179   85.6582 C.3       5 GLY6        0.0000 
     79 CA         22.0552   55.7728   84.2462 C.3       5 GLY6        0.0000 
     80 CA         22.9855   54.6804   83.8089 C.3       5 GLY6        0.0000 
     81 O          20.6431   57.0201   83.2714 O.2       2 ALA2        0.0000 
     82 CZ         21.5734   55.9277   82.8341 C.ar      4 PHE5        0.0000 
     83 CZ         25.1226   57.7345   96.1622 C.ar      4 PHE5        0.0000 
     84 OG         26.0529   56.6421   95.7250 O.2       1 SER1        0.0000 
     85 CZ         25.5711   56.7970   94.3129 C.ar      4 PHE5        0.0000 
     86 N          26.5014   55.7046   93.8756 N.2       2 ALA2        0.0000 
     87 CZ         26.0196   55.8595   92.4636 C.ar      4 PHE5        0.0000 
     88 N          26.9499   54.7671   92.0263 N.2       2 ALA2        0.0000 
     89 CZ         25.5378   56.0144   91.0516 C.ar      4 PHE5        0.0000 
     90 CZ         25.0559   56.1693   89.6395 C.ar      4 PHE5        0.0000 
     91 CZ         23.6439   57.4166   88.6648 C.ar      4 PHE5        0.0000 
     92 CZ         24.5741   56.3242   88.2275 C.ar      4 PHE5        0.0000 
     93 CA         25.5044   55.2318   87.7902 C.3       5 GLY6        0.0000 
     94 CZ         23.1620   57.5716   87.2527 C.ar      4 PHE5        0.0000 
     95 CZ         24.0923   56.4791   86.8154 C.ar      4 PHE5        0.0000 
     96 CA         25.0226   55.3867   86.3782 C.3       5 GLY6        0.0000 
     97 CZ         22.6802   57.7265   85.8407 C.ar      4 PHE5        0.0000 
     98 OG         23.6105   56.6341   85.4034 O.2       1 SER1        0.0000 
     99 OG         24.5408   55.5416   84.9661 O.2       1 SER1        0.0000 
    100 NZ         22.1984   57.8814   84.4286 N.2       3 LYS4        0.0000 
    101 OG         23.1287   56.7890   83.9914 O.2       1 SER1        0.0000 
    102 O          20.7863   59.1287   83.4539 O.2       2 ALA2        0.0000 
    103 NZ         21.7166   58.0363   83.0166 N.2       3 LYS4        0.0000 
    104 OG         22.6469   56.9439   82.5793 O.2       1 SER1        0.0000 
    105 NZ         27.0931   56.8757   92.2088 N.2       3 LYS4        0.0000 
    106 NZ         26.6113   57.0306   90.7967 N.2       3 LYS4        0.0000 
    107 O          27.5416   55.9382   90.3595 O.2       2 ALA2        0.0000 
    108 CZ         25.1992   58.2779   89.8220 C.ar      4 PHE5        0.0000 
    109 NZ         26.1295   57.1855   89.3847 N.2       3 LYS4        0.0000 
    110 CA         27.0597   56.0931   88.9474 C.3       5 GLY6        0.0000 
    111 CZ         25.6476   57.3404   87.9727 C.ar      4 PHE5        0.0000 
    112 CA         26.5779   56.2480   87.5354 C.3       5 GLY6        0.0000 
    113 CZ         25.1658   57.4953   86.5606 C.ar      4 PHE5        0.0000 
    114 CA         26.0961   56.4029   86.1234 C.3       5 GLY6        0.0000 
    115 CZ         24.6840   57.6502   85.1486 C.ar      4 PHE5        0.0000 
    116 OG         25.6143   56.5578   84.7113 O.2       1 SER1        0.0000 
    117 CZ         26.5446   55.4654   84.2740 C.ar      4 PHE5        0.0000 
    118 OG         24.2022   57.8052   83.7365 O.2       1 SER1        0.0000 
    119 N          21.8598   60.1449   83.1991 N.2       2 ALA2        0.0000 
    120 OG         22.7901   59.0525   82.7618 O.2       1 SER1        0.0000 
    121 NZ         27.2030   58.2017   89.1299 N.2       3 LYS4        0.0000 
    122 NZ         28.1333   57.1093   88.6926 N.2       3 LYS4        0.0000 
    123 CZ         26.7212   58.3566   87.7178 C.ar      4 PHE5        0.0000 
    124 CA         27.6514   57.2642   87.2806 C.3       5 GLY6        0.0000 
    125 CZ         26.2393   58.5115   86.3058 C.ar      4 PHE5        0.0000 
    126 NZ         27.1696   57.4191   85.8685 N.2       3 LYS4        0.0000 
    127 CZ         25.7575   58.6664   84.8938 C.ar      4 PHE5        0.0000 
    128 OG         26.6878   57.5740   84.4565 O.2       1 SER1        0.0000 
    129 NZ         27.6181   56.4816   84.0192 N.2       3 LYS4        0.0000 
    130 CZ         24.3454   59.9138   83.9190 C.ar      4 PHE5        0.0000 
    131 OG         25.2757   58.8213   83.4817 O.2       1 SER1        0.0000 
    132 NZ         28.2765   59.2179   88.8751 N.2       3 LYS4        0.0000 
    133 CZ         27.7947   59.3728   87.4630 C.ar      4 PHE5        0.0000 
    134 NZ         28.7250   58.2804   87.0258 N.2       3 LYS4        0.0000 
    135 CZ         27.3129   59.5277   86.0510 C.ar      4 PHE5        0.0000 
    136 NZ         28.2431   58.4353   85.6137 N.2       3 LYS4        0.0000 
    137 CZ         25.9008   60.7750   85.0762 C.ar      4 PHE5        0.0000 
    138 DU         26.8311   59.6826   84.6389 H         6 CUB7        0.0000 
    139 NZ         27.7613   58.5902   84.2017 N.2       3 LYS4        0.0000 
    140 CZ         25.4190   60.9299   83.6642 C.ar      4 PHE5        0.0000 
    141 O          26.3492   59.8375   83.2269 O.2       2 ALA2        0.0000 
    142 O          27.2795   58.7451   82.7896 O.2       2 ALA2        0.0000 
    143 OG         28.8682   60.3890   87.2082 O.2       1 SER1        0.0000 
    144 O          27.4561   61.6363   86.2334 O.2       2 ALA2        0.0000 
    145 OG         28.3864   60.5439   85.7962 O.2       1 SER1        0.0000 
    146 OG         29.3167   59.4515   85.3589 O.2       1 SER1        0.0000 
    147 CA         26.9743   61.7912   84.8214 C.3       5 GLY6        0.0000 
    148 O          27.9046   60.6988   84.3841 O.2       2 ALA2        0.0000 
    149 O          28.8348   59.6064   83.9469 O.2       2 ALA2        0.0000 
    150 CA         26.4925   61.9461   83.4094 C.3       5 GLY6        0.0000 
    151 O          27.4228   60.8537   82.9721 O.2       2 ALA2        0.0000 
    152 OG         28.0478   62.8074   84.5666 O.2       1 SER1        0.0000 
    153 CA         28.9781   61.7150   84.1293 C.3       5 GLY6        0.0000 
@<TRIPOS>BOND
@<TRIPOS>SUBSTRUCTURE
     1 SER1        4 GROUP   
     2 ALA2        9 GROUP   
     3 LYS4       11 GROUP   
     4 PHE5        2 GROUP   
     5 GLY6        6 GROUP   
     6 CUB7        1 GROUP   
@<TRIPOS>SET

