#    Name: 1dy4_SNP_1_INTS_M
#    Modification time : Mon Mar 24 22:34:32 2014

@<TRIPOS>MOLECULE
1dy4_SNP_1_INTS_M
   46     0    12     0     0
SMALL
NO_CHARGES


@<TRIPOS>ATOM
      1 CA         19.8405   55.2980   86.1905 C.3       4 GLC5        0.0000 
      2 CA         21.1500   55.6570   87.7500 C.3      12 GLL5        0.0000 
      3 CA         18.5310   54.9390   84.6310 C.3       8 GLP5        0.0000 
      4 CA         25.1385   57.3765   91.6210 C.3       4 GLC5        0.0000 
      5 CA         26.4520   55.8300   91.2610 C.3      12 GLL5        0.0000 
      6 CA         23.8250   58.9230   91.9810 C.3       8 GLP5        0.0000 
      7 CA         27.5190   55.0515   88.8300 C.3       4 GLC5        0.0000 
      8 CA         27.6980   56.4180   90.5970 C.3      12 GLL5        0.0000 
      9 CA         27.3400   53.6850   87.0630 C.3       8 GLP5        0.0000 
     10 N          27.8055   54.1745   89.6670 N.am      2 SEC2        0.0000 
     11 N          28.4170   55.3760   89.9660 N.am     10 SEL2        0.0000 
     12 N          27.1940   52.9730   89.3680 N.am      6 SEP2        0.0000 
     13 O          29.8615   55.4280   89.6130 O.2       1 ALC1        0.0000 
     14 O          28.4170   55.3760   89.9660 O.2       9 ALL1        0.0000 
     15 O          31.3060   55.4800   89.2600 O.2       5 ALP1        0.0000 
     16 O          29.7335   56.4895   89.8300 O.2       1 ALC1        0.0000 
     17 O          31.0500   57.6030   89.6940 O.2       5 ALP1        0.0000 
     18 CA         26.1500   59.2210   88.8945 C.3       4 GLC5        0.0000 
     19 CA         27.3520   57.4830   89.5430 C.3      12 GLL5        0.0000 
     20 CA         24.9480   60.9590   88.2460 C.3       8 GLP5        0.0000 
     21 OD1        29.7195   58.0510   89.6130 O.co2     3 ASC3        0.0000 
     22 OD1        28.3890   58.4990   89.5320 O.co2    11 ASL3        0.0000 
     23 OD1        31.0500   57.6030   89.6940 O.co2     7 ASP3        0.0000 
     24 OD1        27.7475   59.2585   90.5385 O.co2     3 ASC3        0.0000 
     25 OD1        27.1060   60.0180   91.5450 O.co2     7 ASP3        0.0000 
     26 CA         28.9300   62.5760   89.4895 C.3       4 GLC5        0.0000 
     27 CA         28.8230   60.8130   88.7670 C.3      12 GLL5        0.0000 
     28 CA         29.0370   64.3390   90.2120 C.3       8 GLP5        0.0000 
     29 CA         30.2785   61.6500   88.3365 C.3       4 GLC5        0.0000 
     30 CA         31.7340   62.4870   87.9060 C.3       8 GLP5        0.0000 
     31 CA         28.4235   61.1810   90.9260 C.3       4 GLC5        0.0000 
     32 CA         28.0240   61.5490   93.0850 C.3       8 GLP5        0.0000 
     33 CA         20.8712   55.0190   92.7092 C.3       4 GLC5        0.0000 
     34 CA         22.6480   53.7560   92.0320 C.3      12 GLL5        0.0000 
     35 CA         19.6130   56.1490   93.8600 C.3       8 GLP5        0.0000 
     36 CA         19.0115   55.4670   88.6903 C.3       4 GLC5        0.0000 
     37 CA         17.0090   55.6250   89.0210 C.3       8 GLP5        0.0000 
     38 CA         21.6143   54.3505   86.6451 C.3       4 GLC5        0.0000 
     39 CA         20.8780   54.9610   88.9690 C.3      12 GLL5        0.0000 
     40 CA         21.4810   52.9990   85.3750 C.3       8 GLP5        0.0000 
     41 CA         28.0405   54.7960   92.0555 C.3       4 GLC5        0.0000 
     42 CA         29.0060   53.4680   93.1820 C.3       8 GLP5        0.0000 
     43 CA         30.3895   60.2443   87.4720 C.3       4 GLC5        0.0000 
     44 CA         28.3430   59.3960   88.3940 C.3      12 GLL5        0.0000 
     45 CA         31.9840   61.3810   87.1040 C.3       8 GLP5        0.0000 
     46 CA         26.7655   60.5318   88.4132 C.3       4 GLC5        0.0000 
@<TRIPOS>BOND
@<TRIPOS>SUBSTRUCTURE
     1 ALC1       13 GROUP        1 X    ALC  0     ROOT ALC X 1
     2 SEC2       10 GROUP        1 X    SEC  0     **** SEC X 2
     3 ASC3       21 GROUP        1 X    ASC  0     **** ASC X 3
     4 GLC5        1 GROUP        1 X    GLC  0     **** GLC X 6
     5 ALP1       15 GROUP        1 Y    ALP  0     ROOT ALP Y 8
     6 SEP2       12 GROUP        1 Y    SEP  0     **** SEP Y 9
     7 ASP3       23 GROUP        1 Y    ASP  0     **** ASP Y 10
     8 GLP5        3 GROUP        1 Y    GLP  0     **** GLP Y 13
     9 ALL1       14 GROUP        1 Z    ALL  0     ROOT ALL Z 15
    10 SEL2       11 GROUP        1 Z    SEL  0     **** SEL Z 16
    11 ASL3       22 GROUP        1 Z    ASL  0     **** ASL Z 17
    12 GLL5        2 GROUP        1 Z    GLL  0     **** GLL Z 20
@<TRIPOS>SET

