#    Name: 1dy4_SNP_1_ligand
#    Modification time : Mon Mar 24 22:34:32 2014

@<TRIPOS>MOLECULE
1dy4_SNP_1_ligand
   39    40     1     0     0
SMALL
NO_CHARGES


@<TRIPOS>ATOM
      1 C1         24.3160   54.8910   90.5540 C.ar      1 SNP437      0.0000 
      2 C2         23.9770   54.1950   91.7520 C.ar      1 SNP437      0.0000 
      3 C3         22.6480   53.7560   92.0320 C.ar      1 SNP437      0.0000 
      4 C4         21.6110   54.0220   91.0850 C.ar      1 SNP437      0.0000 
      5 C5         20.8780   54.9610   88.9690 C.ar      1 SNP437      0.0000 
      6 C6         21.1500   55.6570   87.7500 C.ar      1 SNP437      0.0000 
      7 C7         22.4810   56.0950   87.4710 C.ar      1 SNP437      0.0000 
      8 C8         23.5190   55.8280   88.4210 C.ar      1 SNP437      0.0000 
      9 C9         23.2560   55.1400   89.6330 C.ar      1 SNP437      0.0000 
     10 C10        21.9120   54.7070   89.8930 C.ar      1 SNP437      0.0000 
     11 O1         25.5940   55.3310   90.2450 O.3       1 SNP437      0.0000 
     12 C11        26.4520   55.8300   91.2610 C.3       1 SNP437      0.0000 
     13 C12        27.6980   56.4180   90.5970 C.3       1 SNP437      0.0000 
     14 O2         28.4170   55.3760   89.9660 O.3       1 SNP437      0.0000 
     15 C13        27.3520   57.4830   89.5430 C.3       1 SNP437      0.0000 
     16 N1         28.3890   58.4990   89.5320 N.4       1 SNP437      0.0000 
     17 C14        28.3430   59.3960   88.3940 C.3       1 SNP437      0.0000 
     18 C15        29.2470   58.8190   87.2860 C.3       1 SNP437      0.0000 
     19 C16        28.8230   60.8130   88.7670 C.3       1 SNP437      0.0000 
     20 H          24.7208   54.0012   92.4431 H         1 SNP437      0.0000 
     21 H          22.4418   53.2630   92.8892 H         1 SNP437      0.0000 
     22 H          20.6616   53.7132   91.2810 H         1 SNP437      0.0000 
     23 H          19.9246   54.6491   89.1637 H         1 SNP437      0.0000 
     24 H          20.4046   55.8379   87.0898 H         1 SNP437      0.0000 
     25 H          22.6891   56.5872   86.6145 H         1 SNP437      0.0000 
     26 H          24.4746   56.1447   88.2142 H         1 SNP437      0.0000 
     27 H          26.7794   55.0448   91.9452 H         1 SNP437      0.0000 
     28 H          25.9807   56.6234   91.8444 H         1 SNP437      0.0000 
     29 H          28.2987   56.8915   91.3633 H         1 SNP437      0.0000 
     30 H          26.3816   57.9074   89.8003 H         1 SNP437      0.0000 
     31 H          27.2719   56.9856   88.5765 H         1 SNP437      0.0000 
     32 H          27.3454   59.4670   87.9962 H         1 SNP437      0.0000 
     33 H          30.1955   58.7292   87.5898 H         1 SNP437      0.0000 
     34 H          28.9450   57.9110   86.9956 H         1 SNP437      0.0000 
     35 H          29.2537   59.3999   86.4721 H         1 SNP437      0.0000 
     36 H          29.7641   60.8093   89.1050 H         1 SNP437      0.0000 
     37 H          28.7956   61.4328   87.9828 H         1 SNP437      0.0000 
     38 H          28.2561   61.2207   89.4828 H         1 SNP437      0.0000 
     39 H          29.3500   55.7240   89.8746 H         1 SNP437      0.0000 
@<TRIPOS>BOND
     1    2    1 ar   
     2    9    1 ar   
     3   11    1 1    
     4    3    2 ar   
     5   20    2 1    
     6    4    3 ar   
     7   21    3 1    
     8   10    4 ar   
     9   22    4 1    
    10    6    5 ar   
    11   10    5 ar   
    12   23    5 1    
    13    7    6 ar   
    14   24    6 1    
    15    8    7 ar   
    16   25    7 1    
    17    9    8 ar   
    18   26    8 1    
    19   10    9 ar   
    20   12   11 1    
    21   13   12 1    
    22   27   12 1    
    23   28   12 1    
    24   14   13 1    
    25   15   13 1    
    26   29   13 1    
    27   39   14 1    
    28   16   15 1    
    29   30   15 1    
    30   31   15 1    
    31   17   16 1    
    32   18   17 1    
    33   19   17 1    
    34   32   17 1    
    35   33   18 1    
    36   34   18 1    
    37   35   18 1    
    38   36   19 1    
    39   37   19 1    
    40   38   19 1    
@<TRIPOS>SUBSTRUCTURE
     1 SNP437      1 GROUP   
@<TRIPOS>SET

