#    Name: 3w3z_GTP_1_INTS_M
#    Modification time : Tue Mar 25 02:10:29 2014

@<TRIPOS>MOLECULE
3w3z_GTP_1_INTS_M
   87     0    15     0     0
SMALL
NO_CHARGES


@<TRIPOS>ATOM
      1 N         -23.2560   -6.0640  -10.5395 N.am      2 SEC2        0.0000 
      2 N         -23.6230   -4.9470  -11.1020 N.am     12 SEL2        0.0000 
      3 N         -22.8890   -7.1810   -9.9770 N.am      7 SEP2        0.0000 
      4 Zn        -26.7305   -3.3825  -11.9130 Zn        4 ZIC7        0.0000 
      5 Zn        -25.7530   -3.9000  -11.8480 Zn       14 ZIL7        0.0000 
      6 Zn        -27.7080   -2.8650  -11.9780 Zn        9 ZIP7        0.0000 
      7 N         -25.7635   -4.5235  -13.1475 N.am      2 SEC2        0.0000 
      8 N         -25.7530   -3.9000  -11.8480 N.am     12 SEL2        0.0000 
      9 N         -25.7740   -5.1470  -14.4470 N.am      7 SEP2        0.0000 
     10 NZ        -24.3620   -1.6795   -9.5365 N.4       3 LYC4        0.0000 
     11 NZ        -23.9690   -2.6010  -10.5210 N.4      13 LYL4        0.0000 
     12 NZ        -24.7550   -0.7580   -8.5520 N.4       8 LYP4        0.0000 
     13 N         -23.1000   -1.8700  -11.0905 N.am      2 SEC2        0.0000 
     14 N         -23.9690   -2.6010  -10.5210 N.am     12 SEL2        0.0000 
     15 N         -22.2310   -1.1390  -11.6600 N.am      7 SEP2        0.0000 
     16 N         -24.3620   -1.6795   -9.5365 N.am      2 SEC2        0.0000 
     17 N         -24.7550   -0.7580   -8.5520 N.am      7 SEP2        0.0000 
     18 N         -24.5655   -4.8445   -8.3785 N.am      2 SEC2        0.0000 
     19 N         -25.4440   -4.3810   -9.5180 N.am     12 SEL2        0.0000 
     20 N         -23.6870   -5.3080   -7.2390 N.am      7 SEP2        0.0000 
     21 NZ        -25.5685   -1.8390   -8.1650 N.4       3 LYC4        0.0000 
     22 NZ        -26.3820   -2.9200   -7.7780 N.4      13 LYL4        0.0000 
     23 N         -27.0440   -3.1800   -6.4290 N.am      2 SEC2        0.0000 
     24 N         -26.3820   -2.9200   -7.7780 N.am     12 SEL2        0.0000 
     25 N         -27.7060   -3.4400   -5.0800 N.am      7 SEP2        0.0000 
     26 N         -27.7080   -2.2905   -7.3170 N.am      2 SEC2        0.0000 
     27 N         -29.0340   -1.6610   -6.8560 N.am      7 SEP2        0.0000 
     28 N         -25.5685   -1.8390   -8.1650 N.am      2 SEC2        0.0000 
     29 Zn        -27.7780   -3.1025  -10.9405 Zn        4 ZIC7        0.0000 
     30 Zn        -27.8480   -3.3400   -9.9030 Zn       14 ZIL7        0.0000 
     31 N         -29.1235   -2.6170   -9.6540 N.am      2 SEC2        0.0000 
     32 N         -27.8480   -3.3400   -9.9030 N.am     12 SEL2        0.0000 
     33 N         -30.3990   -1.8940   -9.4050 N.am      7 SEP2        0.0000 
     34 N         -27.5480   -4.2775   -6.5590 N.am      2 SEC2        0.0000 
     35 N         -27.3900   -5.1150   -8.0380 N.am     12 SEL2        0.0000 
     36 N         -31.1665   -4.2525   -8.2605 N.am      2 SEC2        0.0000 
     37 N         -29.9250   -4.8790   -8.0170 N.am     12 SEL2        0.0000 
     38 N         -32.4080   -3.6260   -8.5040 N.am      7 SEP2        0.0000 
     39 N         -31.0235   -5.4745   -7.5835 N.am      2 SEC2        0.0000 
     40 N         -32.1220   -6.0700   -7.1500 N.am      7 SEP2        0.0000 
     41 CA        -26.2975   -6.8060   -6.3435 C.3       5 GLC5        0.0000 
     42 CA        -28.0850   -7.5840   -6.4050 C.3      15 GLL5        0.0000 
     43 CA        -24.5100   -6.0280   -6.2820 C.3      10 GLP5        0.0000 
     44 CA        -28.6285   -5.5340   -5.8020 C.3       5 GLC5        0.0000 
     45 CA        -29.1720   -3.4840   -5.1990 C.3      10 GLP5        0.0000 
     46 CA        -27.1570   -8.0905   -7.9520 C.3       5 GLC5        0.0000 
     47 CA        -26.2290   -8.5970   -9.4990 C.3      10 GLP5        0.0000 
     48 CA        -27.8690   -9.7920   -7.1545 C.3       5 GLC5        0.0000 
     49 CA        -28.7130   -8.7270   -5.5760 C.3      15 GLL5        0.0000 
     50 CA        -27.0250  -10.8570   -8.7330 C.3      10 GLP5        0.0000 
     51 CA        -29.0735  -10.1095   -7.9115 C.3       5 GLC5        0.0000 
     52 CA        -29.9090   -9.4070   -6.1740 C.3      15 GLL5        0.0000 
     53 CA        -28.2380  -10.8120   -9.6490 C.3      10 GLP5        0.0000 
     54 O         -30.7455  -11.6580   -6.1535 O.2       1 ALC1        0.0000 
     55 O         -29.8090  -10.7940   -5.9280 O.2      11 ALL1        0.0000 
     56 O         -31.6820  -12.5220   -6.3790 O.2       6 ALP1        0.0000 
     57 CA        -32.5775   -7.3145   -5.6180 C.3       5 GLC5        0.0000 
     58 CA        -31.0490   -8.8350   -5.3710 C.3      15 GLL5        0.0000 
     59 CA        -34.1060   -5.7940   -5.8650 C.3      10 GLP5        0.0000 
     60 O         -33.1435   -9.6520   -6.1480 O.2       1 ALC1        0.0000 
     61 O         -32.1760   -9.7070   -5.3000 O.2      11 ALL1        0.0000 
     62 O         -34.1110   -9.5970   -6.9960 O.2       6 ALP1        0.0000 
     63 CA        -29.1725   -7.3415   -2.7250 C.3       5 GLC5        0.0000 
     64 CA        -30.4680   -8.5740   -3.9990 C.3      15 GLL5        0.0000 
     65 CA        -27.8770   -6.1090   -1.4510 C.3      10 GLP5        0.0000 
     66 N         -31.0600   -3.9810   -2.2595 N.am      2 SEC2        0.0000 
     67 N         -31.6760   -5.3030   -2.7040 N.am     12 SEL2        0.0000 
     68 N         -30.4440   -2.6590   -1.8150 N.am      7 SEP2        0.0000 
     69 CA        -30.4760   -5.6220   -0.5555 C.3       5 GLC5        0.0000 
     70 CA        -31.8820   -6.0810   -1.6240 C.3      15 GLL5        0.0000 
     71 CA        -29.0700   -5.1630    0.5130 C.3      10 GLP5        0.0000 
     72 CA        -33.2795   -4.6475   -2.2980 C.3       5 GLC5        0.0000 
     73 CA        -34.6770   -3.2140   -2.9720 C.3      10 GLP5        0.0000 
     74 N         -34.4480   -4.8585   -0.2430 N.am      2 SEC2        0.0000 
     75 N         -32.7820   -4.7360    0.0710 N.am     12 SEL2        0.0000 
     76 N         -36.1140   -4.9810   -0.5570 N.am      7 SEP2        0.0000 
     77 O         -32.6925   -6.5235    1.8490 O.2       1 ALC1        0.0000 
     78 O         -32.4370   -6.9220    0.5840 O.2      11 ALL1        0.0000 
     79 O         -32.9480   -6.1250    3.1140 O.2       6 ALP1        0.0000 
     80 O         -33.1570   -7.5265    1.8485 O.2       1 ALC1        0.0000 
     81 O         -33.8770   -8.1310    3.1130 O.2       6 ALP1        0.0000 
     82 O         -32.9870   -8.6275    2.1310 O.2       1 ALC1        0.0000 
     83 O         -32.0970   -9.1240    1.1490 O.2      11 ALL1        0.0000 
     84 CA        -29.6570   -6.7760   -1.7060 C.3       5 GLC5        0.0000 
     85 CA        -31.4370   -7.4430   -1.9610 C.3      15 GLL5        0.0000 
     86 CA        -32.7532   -8.7903   -3.8935 C.3       5 GLC5        0.0000 
     87 CA        -34.7480   -8.8760   -3.1020 C.3      10 GLP5        0.0000 
@<TRIPOS>BOND
@<TRIPOS>SUBSTRUCTURE
     1 ALC1       54 GROUP        1 X    ALC  0     ROOT ALC X 1
     2 SEC2        1 GROUP        1 X    SEC  0     **** SEC X 2
     3 LYC4       10 GROUP        1 X    LYC  0     **** LYC X 4
     4 ZIC7        4 GROUP        1 X    ZIC  0     **** ZIC X 5
     5 GLC5       41 GROUP        1 X    GLC  0     **** GLC X 6
     6 ALP1       56 GROUP        1 Y    ALP  0     ROOT ALP Y 8
     7 SEP2        3 GROUP        1 Y    SEP  0     **** SEP Y 9
     8 LYP4       12 GROUP        1 Y    LYP  0     **** LYP Y 11
     9 ZIP7        6 GROUP        1 Y    ZIP  0     **** ZIP Y 12
    10 GLP5       43 GROUP        1 Y    GLP  0     **** GLP Y 13
    11 ALL1       55 GROUP        1 Z    ALL  0     ROOT ALL Z 15
    12 SEL2        2 GROUP        1 Z    SEL  0     **** SEL Z 16
    13 LYL4       11 GROUP        1 Z    LYL  0     **** LYL Z 18
    14 ZIL7        5 GROUP        1 Z    ZIL  0     **** ZIL Z 19
    15 GLL5       42 GROUP        1 Z    GLL  0     **** GLL Z 20
@<TRIPOS>SET

