#    Name: 3w3z_GTP_1_ligand
#    Modification time : Tue Mar 25 02:10:30 2014

@<TRIPOS>MOLECULE
3w3z_GTP_1_ligand
   44    46     1     0     0
SMALL
NO_CHARGES


@<TRIPOS>ATOM
      1 PG        -24.6870   -3.8900  -10.8080 P.3       1 GTP202      0.0000 
      2 O1G       -23.6230   -4.9470  -11.1020 O.co2     1 GTP202      0.0000 
      3 O2G       -25.7530   -3.9000  -11.8480 O.co2     1 GTP202      0.0000 
      4 O3G       -23.9690   -2.6010  -10.5210 O.co2     1 GTP202      0.0000 
      5 O3B       -25.4440   -4.3810   -9.5180 O.3       1 GTP202      0.0000 
      6 PB        -26.8380   -3.8800   -8.8870 P.3       1 GTP202      0.0000 
      7 O1B       -26.3820   -2.9200   -7.7780 O.co2     1 GTP202      0.0000 
      8 O2B       -27.8480   -3.3400   -9.9030 O.co2     1 GTP202      0.0000 
      9 O3A       -27.3900   -5.1150   -8.0380 O.3       1 GTP202      0.0000 
     10 PA        -28.7740   -5.7800   -8.2840 P.3       1 GTP202      0.0000 
     11 O1A       -29.9250   -4.8790   -8.0170 O.co2     1 GTP202      0.0000 
     12 O2A       -28.8370   -6.4380   -9.6340 O.co2     1 GTP202      0.0000 
     13 O5'       -29.0300   -6.6930   -6.9860 O.3       1 GTP202      0.0000 
     14 C5'       -28.0850   -7.5840   -6.4050 C.3       1 GTP202      0.0000 
     15 C4'       -28.7130   -8.7270   -5.5760 C.3       1 GTP202      0.0000 
     16 O4'       -29.1140   -8.2730   -4.2770 O.3       1 GTP202      0.0000 
     17 C3'       -29.9090   -9.4070   -6.1740 C.3       1 GTP202      0.0000 
     18 O3'       -29.8090  -10.7940   -5.9280 O.3       1 GTP202      0.0000 
     19 C2'       -31.0490   -8.8350   -5.3710 C.3       1 GTP202      0.0000 
     20 O2'       -32.1760   -9.7070   -5.3000 O.3       1 GTP202      0.0000 
     21 C1'       -30.4680   -8.5740   -3.9990 C.3       1 GTP202      0.0000 
     22 N9        -31.0240   -7.4010   -3.2360 N.pl3     1 GTP202      0.0000 
     23 C8        -31.1610   -6.1000   -3.6730 C.2       1 GTP202      0.0000 
     24 N7        -31.6760   -5.3030   -2.7040 N.2       1 GTP202      0.0000 
     25 C5        -31.8820   -6.0810   -1.6240 C.2       1 GTP202      0.0000 
     26 C6        -32.3980   -5.8780   -0.2600 C.2       1 GTP202      0.0000 
     27 O6        -32.7820   -4.7360    0.0710 O.2       1 GTP202      0.0000 
     28 N1        -32.4370   -6.9220    0.5840 N.am      1 GTP202      0.0000 
     29 C2        -32.0100   -8.1320    0.2320 C.2       1 GTP202      0.0000 
     30 N2        -32.0970   -9.1240    1.1490 N.pl3     1 GTP202      0.0000 
     31 N3        -31.5450   -8.4000   -1.0130 N.2       1 GTP202      0.0000 
     32 C4        -31.4370   -7.4430   -1.9610 C.2       1 GTP202      0.0000 
     33 H         -27.3779   -7.0485   -5.7297 H         1 GTP202      0.0000 
     34 H         -27.4439   -8.0643   -7.1802 H         1 GTP202      0.0000 
     35 H         -27.9283   -9.5021   -5.4388 H         1 GTP202      0.0000 
     36 H         -30.0078   -9.1398   -7.1703 H         1 GTP202      0.0000 
     37 H         -31.3033   -7.8719   -5.7985 H         1 GTP202      0.0000 
     38 H         -30.5271   -9.4656   -3.4136 H         1 GTP202      0.0000 
     39 H         -30.9141   -5.8020   -4.5715 H         1 GTP202      0.0000 
     40 H         -32.8213   -6.7717    1.5608 H         1 GTP202      0.0000 
     41 H         -32.4396   -8.8608    2.0508 H         1 GTP202      0.0000 
     42 H         -31.8109  -10.0321    0.8433 H         1 GTP202      0.0000 
     43 H         -30.7453  -11.0919   -5.7422 H         1 GTP202      0.0000 
     44 H         -32.7543   -9.4458   -6.0729 H         1 GTP202      0.0000 
@<TRIPOS>BOND
     1    2    1 ar   
     2    3    1 ar   
     3    4    1 ar   
     4    5    1 1    
     5    6    5 1    
     6    7    6 ar   
     7    8    6 ar   
     8    9    6 1    
     9   10    9 1    
    10   11   10 ar   
    11   12   10 ar   
    12   13   10 1    
    13   14   13 1    
    14   15   14 1    
    15   33   14 1    
    16   34   14 1    
    17   16   15 1    
    18   17   15 1    
    19   35   15 1    
    20   21   16 1    
    21   18   17 1    
    22   19   17 1    
    23   36   17 1    
    24   43   18 1    
    25   20   19 1    
    26   21   19 1    
    27   37   19 1    
    28   44   20 1    
    29   22   21 1    
    30   38   21 1    
    31   23   22 1    
    32   32   22 1    
    33   24   23 2    
    34   39   23 1    
    35   25   24 1    
    36   26   25 1    
    37   32   25 2    
    38   27   26 2    
    39   28   26 am   
    40   29   28 1    
    41   40   28 1    
    42   30   29 1    
    43   31   29 2    
    44   41   30 1    
    45   42   30 1    
    46   32   31 1    
@<TRIPOS>SUBSTRUCTURE
     1 GTP202      1 GROUP   
@<TRIPOS>SET

