#    Name: 4i50_EP_1_INTS_M
#    Modification time : Tue Mar 25 02:23:29 2014

@<TRIPOS>MOLECULE
4i50_EP_1_INTS_M
   72     0     9     0     0
SMALL
NO_CHARGES


@<TRIPOS>ATOM
      1 CA         -5.7670   -4.2600  -33.0270 C.3       3 GLC5        0.0000 
      2 CA         -6.7840   -2.3430  -32.4630 C.3       9 GLL5        0.0000 
      3 CA         -4.7500   -6.1770  -33.5910 C.3       6 GLP5        0.0000 
      4 CA         -6.6670   -3.7540  -31.1045 C.3       3 GLC5        0.0000 
      5 CA         -6.5500   -5.1650  -29.7460 C.3       6 GLP5        0.0000 
      6 CA         -5.6785   -0.6480  -31.5655 C.3       3 GLC5        0.0000 
      7 CA         -4.5730    1.0470  -30.6680 C.3       6 GLP5        0.0000 
      8 N          -4.5250   -3.9530  -33.1915 N.am      2 SEC2        0.0000 
      9 N          -4.6580   -2.6780  -33.8010 N.am      8 SEL2        0.0000 
     10 N          -4.3920   -5.2280  -32.5820 N.am      5 SEP2        0.0000 
     11 CA         -4.3735   -4.1120  -34.2535 C.3       3 GLC5        0.0000 
     12 CA         -3.9970   -2.0470  -34.9160 C.3       9 GLL5        0.0000 
     13 CA          0.9745   -3.8005  -35.3425 C.3       3 GLC5        0.0000 
     14 CA         -0.4210   -2.5800  -36.5370 C.3       9 GLL5        0.0000 
     15 CA          2.3700   -5.0210  -34.1480 C.3       6 GLP5        0.0000 
     16 CA          4.8080   -1.5305  -36.7495 C.3       3 GLC5        0.0000 
     17 CA          3.0250   -2.4120  -37.3830 C.3       9 GLL5        0.0000 
     18 CA          6.5910   -0.6490  -36.1160 C.3       6 GLP5        0.0000 
     19 CA          4.2105   -5.5795  -37.2515 C.3       3 GLC5        0.0000 
     20 CA          3.0710   -4.6760  -38.5670 C.3       9 GLL5        0.0000 
     21 CA          5.3500   -6.4830  -35.9360 C.3       6 GLP5        0.0000 
     22 CA          2.7205   -4.8485  -36.3575 C.3       3 GLC5        0.0000 
     23 CA          4.6210   -4.7650  -40.6025 C.3       3 GLC5        0.0000 
     24 CA          2.9340   -5.3420  -39.9570 C.3       9 GLL5        0.0000 
     25 CA          6.3080   -4.1880  -41.2480 C.3       6 GLP5        0.0000 
     26 CA          4.6880   -9.4990  -38.9150 C.3       3 GLC5        0.0000 
     27 CA          3.8390   -7.5920  -39.3140 C.3       9 GLL5        0.0000 
     28 CA          5.5370  -11.4060  -38.5160 C.3       6 GLP5        0.0000 
     29 CA          3.0125   -9.5350  -40.0460 C.3       3 GLC5        0.0000 
     30 CA          2.1860  -11.4780  -40.7780 C.3       6 GLP5        0.0000 
     31 CA          5.2105   -8.2200  -40.8090 C.3       3 GLC5        0.0000 
     32 CA          6.5820   -8.8480  -42.3040 C.3       6 GLP5        0.0000 
     33 CA          5.1775   -7.3615  -37.9860 C.3       3 GLC5        0.0000 
     34 CA          6.5160   -7.1310  -36.6580 C.3       6 GLP5        0.0000 
     35 CA          2.2050   -9.4585  -41.0135 C.3       3 GLC5        0.0000 
     36 CA          2.2240   -7.4390  -41.2490 C.3       9 GLL5        0.0000 
     37 O           3.6050   -8.2175  -42.8190 O.2       1 ALC1        0.0000 
     38 O           3.2170   -7.0450  -42.1710 O.2       7 ALL1        0.0000 
     39 O           3.9930   -9.3900  -43.4670 O.2       4 ALP1        0.0000 
     40 CA         -4.4165   -6.8915  -41.0820 C.3       3 GLC5        0.0000 
     41 CA         -2.7810   -7.0400  -40.3880 C.3       9 GLL5        0.0000 
     42 CA         -6.0520   -6.7430  -41.7760 C.3       6 GLP5        0.0000 
     43 CA         -3.9095   -6.1475  -41.9250 C.3       3 GLC5        0.0000 
     44 CA         -1.7670   -5.5520  -42.0740 C.3       9 GLL5        0.0000 
     45 N          -3.4285   -4.7110  -38.8745 N.am      2 SEC2        0.0000 
     46 N          -2.1890   -4.3070  -39.5530 N.am      8 SEL2        0.0000 
     47 N          -4.6680   -5.1150  -38.1960 N.am      5 SEP2        0.0000 
     48 CA         -0.6250   -7.4290  -37.0825 C.3       3 GLC5        0.0000 
     49 CA         -0.8470   -5.8950  -38.2420 C.3       9 GLL5        0.0000 
     50 CA         -0.4030   -8.9630  -35.9230 C.3       6 GLP5        0.0000 
     51 N          -1.6855   -5.7715  -34.8955 N.am      2 SEC2        0.0000 
     52 N          -1.0630   -5.1180  -35.9780 N.am      8 SEL2        0.0000 
     53 N          -2.3080   -6.4250  -33.8130 N.am      5 SEP2        0.0000 
     54 CA         -3.2308    0.1430  -35.1773 C.3       3 GLC5        0.0000 
     55 CA         -2.1180    1.7920  -35.1970 C.3       6 GLP5        0.0000 
     56 CA         -2.7686   -1.3930  -33.6931 C.3       3 GLC5        0.0000 
     57 CA         -2.0170   -0.7450  -32.0970 C.3       6 GLP5        0.0000 
     58 CA         -2.2602   -0.0475  -35.9725 C.3       3 GLC5        0.0000 
     59 CA         -2.5080   -1.4230  -37.5780 C.3       9 GLL5        0.0000 
     60 CA          0.7945    0.2893  -36.0102 C.3       3 GLC5        0.0000 
     61 CA          0.5040   -1.4640  -37.1190 C.3       9 GLL5        0.0000 
     62 CA          0.3550    2.0990  -35.1300 C.3       6 GLP5        0.0000 
     63 CA          2.7722   -1.4412  -35.1582 C.3       3 GLC5        0.0000 
     64 CA          1.9640   -1.5770  -36.6620 C.3       9 GLL5        0.0000 
     65 CA          3.0500   -0.8880  -33.2940 C.3       6 GLP5        0.0000 
     66 CA          2.4322   -3.5077  -35.5853 C.3       3 GLC5        0.0000 
     67 CA          4.1898   -3.4510  -40.0757 C.3       3 GLC5        0.0000 
     68 CA          2.6940   -3.1940  -38.6340 C.3       9 GLL5        0.0000 
     69 CA          5.4970   -2.9670  -41.5510 C.3       6 GLP5        0.0000 
     70 CA          2.2606   -8.2441  -38.7677 C.3       3 GLC5        0.0000 
     71 CA          2.6180   -6.8390  -39.8700 C.3       9 GLL5        0.0000 
     72 CA          1.7950   -9.1610  -37.1150 C.3       6 GLP5        0.0000 
@<TRIPOS>BOND
@<TRIPOS>SUBSTRUCTURE
     1 ALC1       37 GROUP        1 X    ALC  0     ROOT ALC X 1
     2 SEC2        8 GROUP        1 X    SEC  0     **** SEC X 2
     3 GLC5        1 GROUP        1 X    GLC  0     **** GLC X 6
     4 ALP1       39 GROUP        1 Y    ALP  0     ROOT ALP Y 8
     5 SEP2       10 GROUP        1 Y    SEP  0     **** SEP Y 9
     6 GLP5        3 GROUP        1 Y    GLP  0     **** GLP Y 13
     7 ALL1       38 GROUP        1 Z    ALL  0     ROOT ALL Z 15
     8 SEL2        9 GROUP        1 Z    SEL  0     **** SEL Z 16
     9 GLL5        2 GROUP        1 Z    GLL  0     **** GLL Z 20
@<TRIPOS>SET

