#    Name: 4i50_EP_1_ligand
#    Modification time : Tue Mar 25 02:23:30 2014

@<TRIPOS>MOLECULE
4i50_EP_1_ligand
   73    75     1     0     0
SMALL
NO_CHARGES


@<TRIPOS>ATOM
      1 C13        -4.6900   -0.9650  -35.3990 C.2       1 EP54        0.0000 
      2 S1         -6.1460   -0.6810  -34.5400 S.3       1 EP54        0.0000 
      3 C15        -5.7930   -2.0460  -33.5180 C.2       1 EP54        0.0000 
      4 C16        -6.7840   -2.3430  -32.4630 C.3       1 EP54        0.0000 
      5 N20        -4.6580   -2.6780  -33.8010 N.2       1 EP54        0.0000 
      6 C12        -3.9970   -2.0470  -34.9160 C.2       1 EP54        0.0000 
      7 C10        -2.6970   -2.5760  -35.4210 C.2       1 EP54        0.0000 
      8 C5         -1.8970   -2.1260  -36.4150 C.2       1 EP54        0.0000 
      9 C6         -2.5080   -1.4230  -37.5780 C.3       1 EP54        0.0000 
     10 C3         -0.4210   -2.5800  -36.5370 C.3       1 EP54        0.0000 
     11 C21         0.5040   -1.4640  -37.1190 C.3       1 EP54        0.0000 
     12 C24         1.9640   -1.5770  -36.6620 C.3       1 EP54        0.0000 
     13 O26         2.9220   -1.0010  -37.5460 O.3       1 EP54        0.0000 
     14 C27         3.0250   -2.4120  -37.3830 C.3       1 EP54        0.0000 
     15 C32         2.6940   -3.1940  -38.6340 C.3       1 EP54        0.0000 
     16 C35         3.0710   -4.6760  -38.5670 C.3       1 EP54        0.0000 
     17 C38         2.9340   -5.3420  -39.9570 C.3       1 EP54        0.0000 
     18 C41         2.6180   -6.8390  -39.8700 C.3       1 EP54        0.0000 
     19 C43         3.8390   -7.5920  -39.3140 C.3       1 EP54        0.0000 
     20 C47         2.2240   -7.4390  -41.2490 C.3       1 EP54        0.0000 
     21 O49         3.2170   -7.0450  -42.1710 O.3       1 EP54        0.0000 
     22 C51         0.8460   -6.9540  -41.8350 C.3       1 EP54        0.0000 
     23 C53         0.6350   -7.6580  -43.1700 C.3       1 EP54        0.0000 
     24 C57        -0.3520   -7.2720  -40.9490 C.2       1 EP54        0.0000 
     25 O58        -0.4250   -8.3610  -40.4020 O.2       1 EP54        0.0000 
     26 C59        -1.5000   -6.2700  -40.7330 C.3       1 EP54        0.0000 
     27 C64        -2.7810   -7.0400  -40.3880 C.3       1 EP54        0.0000 
     28 C60        -1.7670   -5.5520  -42.0740 C.3       1 EP54        0.0000 
     29 C68        -1.1610   -5.2550  -39.6370 C.3       1 EP54        0.0000 
     30 O70        -2.1890   -4.3070  -39.5530 O.3       1 EP54        0.0000 
     31 C72        -0.8470   -5.8950  -38.2420 C.3       1 EP54        0.0000 
     32 C75        -0.8240   -4.8720  -37.1420 C.2       1 EP54        0.0000 
     33 O2         -0.3180   -3.6560  -37.4680 O.3       1 EP54        0.0000 
     34 O76        -1.0630   -5.1180  -35.9780 O.2       1 EP54        0.0000 
     35 H          -4.5387   -0.3560  -36.0898 H         1 EP54        0.0000 
     36 H          -2.3813   -3.4680  -34.8710 H         1 EP54        0.0000 
     37 H          -0.0465   -2.8519  -35.5813 H         1 EP54        0.0000 
     38 H           0.1019   -0.4907  -36.8141 H         1 EP54        0.0000 
     39 H           0.4603   -1.5174  -38.2132 H         1 EP54        0.0000 
     40 H           2.2822   -1.4469  -35.7519 H         1 EP54        0.0000 
     41 H           3.7168   -2.6010  -36.7508 H         1 EP54        0.0000 
     42 H           3.2116   -2.7381  -39.4973 H         1 EP54        0.0000 
     43 H           1.6108   -3.1155  -38.8379 H         1 EP54        0.0000 
     44 H           2.4148   -5.1860  -37.8675 H         1 EP54        0.0000 
     45 H           4.0994   -4.7739  -38.2310 H         1 EP54        0.0000 
     46 H           3.8704   -5.2020  -40.5064 H         1 EP54        0.0000 
     47 H           2.1366   -4.8363  -40.5108 H         1 EP54        0.0000 
     48 H           1.7944   -6.9864  -39.1877 H         1 EP54        0.0000 
     49 H           2.1894   -8.5102  -41.1620 H         1 EP54        0.0000 
     50 H           0.9035   -5.9017  -42.0144 H         1 EP54        0.0000 
     51 H          -0.2185   -4.7512  -39.9597 H         1 EP54        0.0000 
     52 H           0.1216   -6.3967  -38.3149 H         1 EP54        0.0000 
     53 H          -1.6106   -6.6513  -38.0418 H         1 EP54        0.0000 
     54 H          -6.5157   -3.1343  -31.9136 H         1 EP54        0.0000 
     55 H          -6.8982   -1.5743  -31.8337 H         1 EP54        0.0000 
     56 H          -7.6854   -2.5444  -32.8463 H         1 EP54        0.0000 
     57 H          -1.8185   -1.1386  -38.2441 H         1 EP54        0.0000 
     58 H          -3.1611   -2.0050  -38.0625 H         1 EP54        0.0000 
     59 H          -3.0013   -0.5997  -37.2970 H         1 EP54        0.0000 
     60 H           4.6446   -7.4730  -39.8943 H         1 EP54        0.0000 
     61 H           4.0870   -7.2732  -38.3992 H         1 EP54        0.0000 
     62 H           3.6696   -8.5752  -39.2458 H         1 EP54        0.0000 
     63 H           1.3623   -7.4435  -43.8220 H         1 EP54        0.0000 
     64 H           0.6178   -8.6525  -43.0668 H         1 EP54        0.0000 
     65 H          -0.2293   -7.3927  -43.5973 H         1 EP54        0.0000 
     66 H          -3.0453   -7.6681  -41.1199 H         1 EP54        0.0000 
     67 H          -2.6736   -7.5864  -39.5574 H         1 EP54        0.0000 
     68 H          -3.5546   -6.4248  -40.2362 H         1 EP54        0.0000 
     69 H          -0.9605   -5.0569  -42.3972 H         1 EP54        0.0000 
     70 H          -2.0243   -6.1954  -42.7950 H         1 EP54        0.0000 
     71 H          -2.5087   -4.8857  -41.9973 H         1 EP54        0.0000 
     72 H           3.4959   -7.8898  -42.6276 H         1 EP54        0.0000 
     73 H          -1.9190   -3.6980  -38.8072 H         1 EP54        0.0000 
@<TRIPOS>BOND
     1    2    1 1    
     2    6    1 2    
     3   35    1 1    
     4    3    2 1    
     5    4    3 1    
     6    5    3 2    
     7   54    4 1    
     8   55    4 1    
     9   56    4 1    
    10    6    5 1    
    11    7    6 1    
    12    8    7 2    
    13   36    7 1    
    14    9    8 1    
    15   10    8 1    
    16   57    9 1    
    17   58    9 1    
    18   59    9 1    
    19   11   10 1    
    20   33   10 1    
    21   37   10 1    
    22   12   11 1    
    23   38   11 1    
    24   39   11 1    
    25   13   12 1    
    26   14   12 1    
    27   40   12 1    
    28   14   13 1    
    29   15   14 1    
    30   41   14 1    
    31   16   15 1    
    32   42   15 1    
    33   43   15 1    
    34   17   16 1    
    35   44   16 1    
    36   45   16 1    
    37   18   17 1    
    38   46   17 1    
    39   47   17 1    
    40   19   18 1    
    41   20   18 1    
    42   48   18 1    
    43   60   19 1    
    44   61   19 1    
    45   62   19 1    
    46   21   20 1    
    47   22   20 1    
    48   49   20 1    
    49   72   21 1    
    50   23   22 1    
    51   24   22 1    
    52   50   22 1    
    53   63   23 1    
    54   64   23 1    
    55   65   23 1    
    56   25   24 2    
    57   26   24 1    
    58   27   26 1    
    59   28   26 1    
    60   29   26 1    
    61   66   27 1    
    62   67   27 1    
    63   68   27 1    
    64   69   28 1    
    65   70   28 1    
    66   71   28 1    
    67   30   29 1    
    68   31   29 1    
    69   51   29 1    
    70   73   30 1    
    71   32   31 1    
    72   52   31 1    
    73   53   31 1    
    74   33   32 1    
    75   34   32 2    
@<TRIPOS>SUBSTRUCTURE
     1 EP54        1 GROUP   
@<TRIPOS>SET

