#    Name: 1p3d_UMA_2_INTS_M
#    Modification time : Mon Mar 24 21:05:47 2014

@<TRIPOS>MOLECULE
1p3d_UMA_2_INTS_M
   97     0    15     0     0
SMALL
NO_CHARGES


@<TRIPOS>ATOM
      1 O         -27.2010   81.1065   57.0475 O.2       1 ALC1        0.0000 
      2 O         -26.8370   80.4600   58.2090 O.2      11 ALL1        0.0000 
      3 O         -27.5650   81.7530   55.8860 O.2       6 ALP1        0.0000 
      4 N         -27.9360   83.2160   59.0165 N.am      2 SEC2        0.0000 
      5 N         -26.5240   82.5750   58.8660 N.am     12 SEL2        0.0000 
      6 N         -29.3480   83.8570   59.1670 N.am      7 SEP2        0.0000 
      7 CA        -24.4275   83.0850   60.1015 C.3       5 GLC5        0.0000 
      8 CA        -25.4900   81.8840   61.3250 C.3      15 GLL5        0.0000 
      9 CA        -23.3650   84.2860   58.8780 C.3      10 GLP5        0.0000 
     10 O         -27.5960   83.4565   62.1805 O.2       1 ALC1        0.0000 
     11 O         -27.4090   82.3370   62.7380 O.2      11 ALL1        0.0000 
     12 O         -27.7830   84.5760   61.6230 O.2       6 ALP1        0.0000 
     13 CA        -23.5685   83.2490   60.8595 C.3       5 GLC5        0.0000 
     14 CA        -23.7720   82.2120   62.8410 C.3      15 GLL5        0.0000 
     15 O         -25.5410   84.5450   62.4465 O.2       1 ALC1        0.0000 
     16 O         -25.3330   83.8700   63.6120 O.2      11 ALL1        0.0000 
     17 O         -25.7490   85.2200   61.2810 O.2       6 ALP1        0.0000 
     18 O         -26.5580   84.2230   62.6175 O.2       1 ALC1        0.0000 
     19 N         -20.8835   83.8035   66.5605 N.am      2 SEC2        0.0000 
     20 N         -20.9950   82.4260   66.5550 N.am     12 SEL2        0.0000 
     21 N         -20.7720   85.1810   66.5660 N.am      7 SEP2        0.0000 
     22 N         -18.4490   85.1005   63.8010 N.am      2 SEC2        0.0000 
     23 N         -19.0810   83.8890   64.0750 N.am     12 SEL2        0.0000 
     24 N         -17.8170   86.3120   63.5270 N.am      7 SEP2        0.0000 
     25 N         -18.5455   84.6805   65.1560 N.am      2 SEC2        0.0000 
     26 N         -18.0100   85.4720   66.2370 N.am      7 SEP2        0.0000 
     27 N         -19.1390   81.2365   61.8480 N.am      2 SEC2        0.0000 
     28 N         -18.2640   81.7960   62.7300 N.am     12 SEL2        0.0000 
     29 N         -20.0140   80.6770   60.9660 N.am      7 SEP2        0.0000 
     30 CA        -16.1220   82.3790   63.8330 C.3       5 GLC5        0.0000 
     31 CA        -16.9110   81.1600   65.1900 C.3      15 GLL5        0.0000 
     32 CA        -15.3330   83.5980   62.4760 C.3      10 GLP5        0.0000 
     33 N         -15.7385   78.4890   63.4000 N.am      2 SEC2        0.0000 
     34 N         -17.1010   77.9910   63.6670 N.am     12 SEL2        0.0000 
     35 N         -14.3760   78.9870   63.1330 N.am      7 SEP2        0.0000 
     36 CA        -18.2230   77.1705   62.0070 C.3       5 GLC5        0.0000 
     37 CA        -19.4900   77.5410   63.6800 C.3      15 GLL5        0.0000 
     38 CA        -16.9560   76.8000   60.3340 C.3      10 GLP5        0.0000 
     39 CA        -20.9645   77.8650   62.5400 C.3       5 GLC5        0.0000 
     40 CA        -22.4390   78.1890   61.4000 C.3      10 GLP5        0.0000 
     41 CA        -15.4415   84.2200   69.0545 C.3       5 GLC5        0.0000 
     42 CA        -14.8930   82.7930   67.8470 C.3      15 GLL5        0.0000 
     43 CA        -15.9900   85.6470   70.2620 C.3      10 GLP5        0.0000 
     44 CA        -13.3435   82.9780   69.2580 C.3       5 GLC5        0.0000 
     45 CA        -11.7940   83.1630   70.6690 C.3      10 GLP5        0.0000 
     46 Zn        -15.8580   75.9430   70.6840 Zn        4 ZIC7        0.0000 
     47 Zn        -16.6530   76.3780   70.0940 Zn       14 ZIL7        0.0000 
     48 Zn        -15.0630   75.5080   71.2740 Zn        9 ZIP7        0.0000 
     49 CA        -15.8035   75.6480   66.8595 C.3       5 GLC5        0.0000 
     50 CA        -17.1060   76.8490   67.1440 C.3      15 GLL5        0.0000 
     51 CA        -14.5010   74.4470   66.5750 C.3      10 GLP5        0.0000 
     52 NZ        -20.7455   73.2665   68.8840 N.4       3 LYC4        0.0000 
     53 NZ        -20.0630   74.0260   69.8610 N.4      13 LYL4        0.0000 
     54 NZ        -21.5690   72.7880   66.6200 N.4       8 LYP4        0.0000 
     55 NZ        -19.4790   73.2255   70.7935 N.4       3 LYC4        0.0000 
     56 NZ        -19.8500   71.7710   72.3710 N.4       8 LYP4        0.0000 
     57 N         -20.7455   73.2665   68.8840 N.am      2 SEC2        0.0000 
     58 N         -20.0630   74.0260   69.8610 N.am     12 SEL2        0.0000 
     59 N         -21.4280   72.5070   67.9070 N.am      7 SEP2        0.0000 
     60 N         -19.4790   73.2255   70.7935 N.am      2 SEC2        0.0000 
     61 N         -18.8950   72.4250   71.7260 N.am      7 SEP2        0.0000 
     62 N         -20.5940   73.0410   70.9890 N.am      2 SEC2        0.0000 
     63 N         -21.1250   72.0560   72.1170 N.am      7 SEP2        0.0000 
     64 NZ        -20.9355   74.0910   68.1895 N.4       3 LYC4        0.0000 
     65 NZ        -20.4430   75.6750   68.4720 N.4      13 LYL4        0.0000 
     66 N         -21.8945   75.3715   69.2655 N.am      2 SEC2        0.0000 
     67 N         -20.4430   75.6750   68.4720 N.am     12 SEL2        0.0000 
     68 N         -23.3460   75.0680   70.0590 N.am      7 SEP2        0.0000 
     69 N         -20.9355   74.0910   68.1895 N.am      2 SEC2        0.0000 
     70 N         -20.8310   74.8310   67.3205 N.am      2 SEC2        0.0000 
     71 N         -21.2190   73.9870   66.1690 N.am      7 SEP2        0.0000 
     72 CA        -20.2850   78.2500   72.9420 C.3       5 GLC5        0.0000 
     73 CA        -20.5000   76.7280   71.4790 C.3      15 GLL5        0.0000 
     74 CA        -20.0700   79.7720   74.4050 C.3      10 GLP5        0.0000 
     75 CA        -21.6955   77.0750   72.8575 C.3       5 GLC5        0.0000 
     76 CA        -22.8910   77.4220   74.2360 C.3      10 GLP5        0.0000 
     77 CA        -27.9947   79.4410   60.5222 C.3       5 GLC5        0.0000 
     78 CA        -25.8430   79.5780   60.6060 C.3      15 GLL5        0.0000 
     79 CA        -29.9360   79.7610   60.9170 C.3      10 GLP5        0.0000 
     80 CA        -24.2462   78.6550   60.7638 C.3       5 GLC5        0.0000 
     81 CA        -26.2640   78.6640   59.6490 C.3      15 GLL5        0.0000 
     82 CA        -24.8152   79.8300   58.6923 C.3       5 GLC5        0.0000 
     83 CA        -23.5770   80.5390   57.2570 C.3      10 GLP5        0.0000 
     84 CA        -27.7713   81.5217   61.2810 C.3       5 GLC5        0.0000 
     85 CA        -29.7390   81.2270   60.5500 C.3      10 GLP5        0.0000 
     86 CA        -22.8980   79.9395   62.3010 C.3       5 GLC5        0.0000 
     87 CA        -22.8135   83.4114   63.9120 C.3       5 GLC5        0.0000 
     88 CA        -22.9420   81.1680   63.5630 C.3      15 GLL5        0.0000 
     89 CA        -21.9390   85.0690   64.4420 C.3      10 GLP5        0.0000 
     90 CA        -16.1133   84.1208   66.5890 C.3       5 GLC5        0.0000 
     91 CA        -16.0960   82.0700   67.2550 C.3      15 GLL5        0.0000 
     92 CA        -16.7320   85.8100   65.6270 C.3      10 GLP5        0.0000 
     93 CA        -19.7377   75.4910   72.7845 C.3       5 GLC5        0.0000 
     94 CA        -19.4130   76.1780   70.5630 C.3      15 GLL5        0.0000 
     95 CA        -19.5190   74.5290   74.5480 C.3      10 GLP5        0.0000 
     96 CA        -21.6043   75.2400   70.9865 C.3       5 GLC5        0.0000 
     97 CA        -23.2520   74.0270   70.9520 C.3      10 GLP5        0.0000 
@<TRIPOS>BOND
@<TRIPOS>SUBSTRUCTURE
     1 ALC1        1 GROUP        1 X    ALC  0     ROOT ALC X 1
     2 SEC2        4 GROUP        1 X    SEC  0     **** SEC X 2
     3 LYC4       52 GROUP        1 X    LYC  0     **** LYC X 4
     4 ZIC7       46 GROUP        1 X    ZIC  0     **** ZIC X 5
     5 GLC5        7 GROUP        1 X    GLC  0     **** GLC X 6
     6 ALP1        3 GROUP        1 Y    ALP  0     ROOT ALP Y 8
     7 SEP2        6 GROUP        1 Y    SEP  0     **** SEP Y 9
     8 LYP4       54 GROUP        1 Y    LYP  0     **** LYP Y 11
     9 ZIP7       48 GROUP        1 Y    ZIP  0     **** ZIP Y 12
    10 GLP5        9 GROUP        1 Y    GLP  0     **** GLP Y 13
    11 ALL1        2 GROUP        1 Z    ALL  0     ROOT ALL Z 15
    12 SEL2        5 GROUP        1 Z    SEL  0     **** SEL Z 16
    13 LYL4       53 GROUP        1 Z    LYL  0     **** LYL Z 18
    14 ZIL7       47 GROUP        1 Z    ZIL  0     **** ZIL Z 19
    15 GLL5        8 GROUP        1 Z    GLL  0     **** GLL Z 20
@<TRIPOS>SET

