#    Name: 1p3d_UMA_2_ligand
#    Modification time : Mon Mar 24 21:05:47 2014

@<TRIPOS>MOLECULE
1p3d_UMA_2_ligand
   82    84     1     0     0
SMALL
NO_CHARGES


@<TRIPOS>ATOM
      1 N1        -25.9370   80.8960   60.3530 N.am      1 UMA1602     0.0000 
      2 C2        -26.4410   81.3500   59.1170 C.2       1 UMA1602     0.0000 
      3 N3        -26.8370   80.4600   58.2090 N.am      1 UMA1602     0.0000 
      4 C4        -26.7650   79.1420   58.4440 C.2       1 UMA1602     0.0000 
      5 C5        -26.2640   78.6640   59.6490 C.2       1 UMA1602     0.0000 
      6 C6        -25.8430   79.5780   60.6060 C.2       1 UMA1602     0.0000 
      7 O2        -26.5240   82.5750   58.8660 O.2       1 UMA1602     0.0000 
      8 O4        -27.1490   78.3410   57.5650 O.2       1 UMA1602     0.0000 
      9 C1B       -25.4900   81.8840   61.3250 C.3       1 UMA1602     0.0000 
     10 C2B       -26.1170   81.7490   62.6990 C.3       1 UMA1602     0.0000 
     11 O2'       -27.4090   82.3370   62.7380 O.3       1 UMA1602     0.0000 
     12 C3B       -25.0960   82.4670   63.5610 C.3       1 UMA1602     0.0000 
     13 C4B       -23.7720   82.2120   62.8410 C.3       1 UMA1602     0.0000 
     14 O4B       -24.0880   81.7180   61.5460 O.3       1 UMA1602     0.0000 
     15 O3B       -25.3330   83.8700   63.6120 O.3       1 UMA1602     0.0000 
     16 C5B       -22.9420   81.1680   63.5630 C.3       1 UMA1602     0.0000 
     17 O5B       -22.6030   81.6980   64.8340 O.3       1 UMA1602     0.0000 
     18 PA        -21.1680   81.4010   65.4800 P.3       1 UMA1602     0.0000 
     19 O1A       -20.9950   82.4260   66.5550 O.co2     1 UMA1602     0.0000 
     20 O2A       -21.1080   79.9300   65.8070 O.co2     1 UMA1602     0.0000 
     21 O3A       -20.2750   81.6500   64.1560 O.3       1 UMA1602     0.0000 
     22 PB        -18.8580   82.4100   63.9730 P.3       1 UMA1602     0.0000 
     23 O1B       -19.0810   83.8890   64.0750 O.co2     1 UMA1602     0.0000 
     24 O2B       -18.2640   81.7960   62.7300 O.co2     1 UMA1602     0.0000 
     25 O1'       -18.0380   82.0250   65.2780 O.3       1 UMA1602     0.0000 
     26 C1'       -16.9110   81.1600   65.1900 C.3       1 UMA1602     0.0000 
     27 C2'       -17.3030   79.8430   65.8540 C.3       1 UMA1602     0.0000 
     28 N2'       -18.4320   79.2860   65.1330 N.am      1 UMA1602     0.0000 
     29 C7'       -18.2150   78.2340   64.1690 C.2       1 UMA1602     0.0000 
     30 O7'       -17.1010   77.9910   63.6670 O.2       1 UMA1602     0.0000 
     31 C8'       -19.4900   77.5410   63.6800 C.3       1 UMA1602     0.0000 
     32 C3'       -17.6330   80.0850   67.3260 C.3       1 UMA1602     0.0000 
     33 O3'       -18.0400   78.8940   68.0330 O.3       1 UMA1602     0.0000 
     34 C4'       -16.4760   80.8000   68.0230 C.3       1 UMA1602     0.0000 
     35 O4'       -16.8540   81.1560   69.3340 O.3       1 UMA1602     0.0000 
     36 C5'       -16.0960   82.0700   67.2550 C.3       1 UMA1602     0.0000 
     37 O5'       -15.8180   81.7400   65.8940 O.3       1 UMA1602     0.0000 
     38 C6'       -14.8930   82.7930   67.8470 C.3       1 UMA1602     0.0000 
     39 O6'       -13.7270   81.9800   67.7730 O.3       1 UMA1602     0.0000 
     40 C18       -17.0610   77.8660   68.2760 C.3       1 UMA1602     0.0000 
     41 C19       -17.4450   77.1120   69.5160 C.2       1 UMA1602     0.0000 
     42 O18       -16.6530   76.3780   70.0940 O.2       1 UMA1602     0.0000 
     43 C20       -17.1060   76.8490   67.1440 C.3       1 UMA1602     0.0000 
     44 N4        -18.7010   77.2760   69.9190 N.am      1 UMA1602     0.0000 
     45 C21       -19.4130   76.1780   70.5630 C.3       1 UMA1602     0.0000 
     46 C22       -20.0090   75.2320   69.5600 C.2       1 UMA1602     0.0000 
     47 O19       -20.0630   74.0260   69.8610 O.co2     1 UMA1602     0.0000 
     48 O20       -20.4430   75.6750   68.4720 O.co2     1 UMA1602     0.0000 
     49 C23       -20.5000   76.7280   71.4790 C.3       1 UMA1602     0.0000 
     50 H         -27.2166   80.7957   57.2824 H         1 UMA1602     0.0000 
     51 H         -26.2068   77.6615   59.8265 H         1 UMA1602     0.0000 
     52 H         -25.4626   79.2280   61.5011 H         1 UMA1602     0.0000 
     53 H         -25.6772   82.8884   60.9712 H         1 UMA1602     0.0000 
     54 H         -26.0975   80.7148   62.9585 H         1 UMA1602     0.0000 
     55 H         -25.0501   82.0024   64.5064 H         1 UMA1602     0.0000 
     56 H         -23.2276   83.1266   62.7882 H         1 UMA1602     0.0000 
     57 H         -22.0606   80.9590   62.9580 H         1 UMA1602     0.0000 
     58 H         -23.5372   80.2593   63.6436 H         1 UMA1602     0.0000 
     59 H         -16.6629   80.9526   64.1723 H         1 UMA1602     0.0000 
     60 H         -16.4507   79.1805   65.7974 H         1 UMA1602     0.0000 
     61 H         -19.3609   79.6338   65.3066 H         1 UMA1602     0.0000 
     62 H         -18.4851   80.8178   67.3329 H         1 UMA1602     0.0000 
     63 H         -15.6214   80.1425   68.0192 H         1 UMA1602     0.0000 
     64 H         -16.9507   82.7525   67.3012 H         1 UMA1602     0.0000 
     65 H         -15.1401   83.0567   68.8877 H         1 UMA1602     0.0000 
     66 H         -14.7660   83.7381   67.2954 H         1 UMA1602     0.0000 
     67 H         -16.0851   78.2390   68.3709 H         1 UMA1602     0.0000 
     68 H         -19.2222   78.1566   69.8028 H         1 UMA1602     0.0000 
     69 H         -18.7176   75.6126   71.1945 H         1 UMA1602     0.0000 
     70 H         -19.2901   76.8227   63.0137 H         1 UMA1602     0.0000 
     71 H         -19.9913   77.1123   64.4316 H         1 UMA1602     0.0000 
     72 H         -20.1163   78.1838   63.2390 H         1 UMA1602     0.0000 
     73 H         -16.9054   77.2692   66.2590 H         1 UMA1602     0.0000 
     74 H         -16.4402   76.1149   67.2776 H         1 UMA1602     0.0000 
     75 H         -18.0053   76.4186   67.0670 H         1 UMA1602     0.0000 
     76 H         -20.1203   77.3100   72.1981 H         1 UMA1602     0.0000 
     77 H         -21.1654   77.2797   70.9761 H         1 UMA1602     0.0000 
     78 H         -21.0089   75.9963   71.9324 H         1 UMA1602     0.0000 
     79 H         -27.2458   83.3229   62.7013 H         1 UMA1602     0.0000 
     80 H         -25.4317   84.1506   62.6572 H         1 UMA1602     0.0000 
     81 H         -17.4358   80.4058   69.6482 H         1 UMA1602     0.0000 
     82 H         -13.8541   81.2808   68.4766 H         1 UMA1602     0.0000 
@<TRIPOS>BOND
     1    2    1 1    
     2    6    1 1    
     3    9    1 1    
     4    3    2 1    
     5    7    2 2    
     6    4    3 1    
     7   50    3 1    
     8    5    4 1    
     9    8    4 2    
    10    6    5 2    
    11   51    5 1    
    12   52    6 1    
    13   10    9 1    
    14   14    9 1    
    15   53    9 1    
    16   11   10 1    
    17   12   10 1    
    18   54   10 1    
    19   79   11 1    
    20   13   12 1    
    21   15   12 1    
    22   55   12 1    
    23   14   13 1    
    24   16   13 1    
    25   56   13 1    
    26   80   15 1    
    27   17   16 1    
    28   57   16 1    
    29   58   16 1    
    30   18   17 1    
    31   19   18 ar   
    32   20   18 ar   
    33   21   18 1    
    34   22   21 1    
    35   23   22 ar   
    36   24   22 ar   
    37   25   22 1    
    38   26   25 1    
    39   27   26 1    
    40   37   26 1    
    41   59   26 1    
    42   28   27 1    
    43   32   27 1    
    44   60   27 1    
    45   29   28 am   
    46   61   28 1    
    47   30   29 2    
    48   31   29 1    
    49   70   31 1    
    50   71   31 1    
    51   72   31 1    
    52   33   32 1    
    53   34   32 1    
    54   62   32 1    
    55   40   33 1    
    56   35   34 1    
    57   36   34 1    
    58   63   34 1    
    59   81   35 1    
    60   37   36 1    
    61   38   36 1    
    62   64   36 1    
    63   39   38 1    
    64   65   38 1    
    65   66   38 1    
    66   82   39 1    
    67   41   40 1    
    68   43   40 1    
    69   67   40 1    
    70   42   41 2    
    71   44   41 am   
    72   73   43 1    
    73   74   43 1    
    74   75   43 1    
    75   45   44 1    
    76   68   44 1    
    77   46   45 1    
    78   49   45 1    
    79   69   45 1    
    80   47   46 ar   
    81   48   46 ar   
    82   76   49 1    
    83   77   49 1    
    84   78   49 1    
@<TRIPOS>SUBSTRUCTURE
     1 UMA1602     1 GROUP   
@<TRIPOS>SET

