#    Name: 3ipt_EQU_3_INTS_M
#    Modification time : Tue Mar 25 17:04:14 2014

@<TRIPOS>MOLECULE
3ipt_EQU_3_INTS_M
   50     0     6     0     0
SMALL
NO_CHARGES


@<TRIPOS>ATOM
      1 CA         -6.8140    0.9795    6.2125 C.3       2 GLC5        0.0000 
      2 CA         -8.5930    0.9800    7.4470 C.3       6 GLL5        0.0000 
      3 CA         -5.0350    0.9790    4.9780 C.3       4 GLP5        0.0000 
      4 CA         -6.7225    1.1745    8.2565 C.3       2 GLC5        0.0000 
      5 CA         -4.8520    1.3690    9.0660 C.3       4 GLP5        0.0000 
      6 CA        -10.5000    2.2490    4.8035 C.3       2 GLC5        0.0000 
      7 CA        -10.5860    2.5070    6.9510 C.3       6 GLL5        0.0000 
      8 CA        -10.4140    1.9910    2.6560 C.3       4 GLP5        0.0000 
      9 CA         -6.5345    2.3430    8.0010 C.3       2 GLC5        0.0000 
     10 CA         -8.2170    3.3170    6.9360 C.3       6 GLL5        0.0000 
     11 CA        -14.4590    3.1400    6.6520 C.3       2 GLC5        0.0000 
     12 CA        -12.5790    4.0810    6.4730 C.3       6 GLL5        0.0000 
     13 CA        -16.3390    2.1990    6.8310 C.3       4 GLP5        0.0000 
     14 CA         -8.6755    6.8590    5.0530 C.3       2 GLC5        0.0000 
     15 CA         -9.8290    7.5520    6.4720 C.3       6 GLL5        0.0000 
     16 CA         -7.5220    6.1660    3.6340 C.3       4 GLP5        0.0000 
     17 CA         -7.9420    7.5545    7.1330 C.3       2 GLC5        0.0000 
     18 CA         -6.0550    7.5570    7.7940 C.3       4 GLP5        0.0000 
     19 CA        -11.1665    5.2285    9.8325 C.3       2 GLC5        0.0000 
     20 CA        -11.6080    6.2230    8.3550 C.3       6 GLL5        0.0000 
     21 CA        -10.7250    4.2340   11.3100 C.3       4 GLP5        0.0000 
     22 CA        -13.7115    6.2175    9.0170 C.3       2 GLC5        0.0000 
     23 CA        -15.8150    6.2120    9.6790 C.3       4 GLP5        0.0000 
     24 O          -7.3900   -1.4270    7.6500 O.2       1 ALC1        0.0000 
     25 O          -9.1030   -1.4050    7.9510 O.2       5 ALL1        0.0000 
     26 O          -5.6770   -1.4490    7.3490 O.2       3 ALP1        0.0000 
     27 O          -8.1320   -2.2160    7.7985 O.2       1 ALC1        0.0000 
     28 O          -7.1610   -3.0270    7.6460 O.2       3 ALP1        0.0000 
     29 CA         -8.3413   -0.5088    9.2970 C.3       2 GLC5        0.0000 
     30 CA         -9.4740   -0.0730    7.6350 C.3       6 GLL5        0.0000 
     31 CA         -7.6490   -1.4710   11.0530 C.3       4 GLP5        0.0000 
     32 CA        -12.7472   -0.1190    6.4030 C.3       2 GLC5        0.0000 
     33 CA        -10.8130    0.2420    7.4690 C.3       6 GLL5        0.0000 
     34 CA        -14.3830   -1.0920    5.5050 C.3       4 GLP5        0.0000 
     35 CA         -7.9805    5.0710    5.2123 C.3       2 GLC5        0.0000 
     36 CA         -7.3165    3.3225    5.1223 C.3       2 GLC5        0.0000 
     37 CA         -8.6610    4.6350    6.6450 C.3       6 GLL5        0.0000 
     38 CA         -6.1940    2.6690    3.4540 C.3       4 GLP5        0.0000 
     39 CA        -11.2185    6.2480    4.6907 C.3       2 GLC5        0.0000 
     40 CA        -10.0480    4.9430    6.4700 C.3       6 GLL5        0.0000 
     41 CA        -12.1070    6.8840    3.0890 C.3       4 GLP5        0.0000 
     42 CA         -8.9260    5.8890    4.9633 C.3       2 GLC5        0.0000 
     43 CA        -10.6120    6.2810    6.1150 C.3       6 GLL5        0.0000 
     44 CA        -11.9935    3.8405    4.4975 C.3       2 GLC5        0.0000 
     45 CA        -11.0450    3.8550    6.6250 C.3       6 GLL5        0.0000 
     46 CA        -12.1750    3.7130    2.4460 C.3       4 GLP5        0.0000 
     47 CA        -12.2625    6.4510    4.8085 C.3       2 GLC5        0.0000 
     48 CA        -12.9230    5.5540    6.2090 C.3       6 GLL5        0.0000 
     49 CA        -12.4460    5.0580    4.5542 C.3       2 GLC5        0.0000 
     50 CA        -11.2267    7.5072    4.7412 C.3       2 GLC5        0.0000 
@<TRIPOS>BOND
@<TRIPOS>SUBSTRUCTURE
     1 ALC1       24 GROUP        1 X    ALC  0     ROOT ALC X 1
     2 GLC5        1 GROUP        1 X    GLC  0     **** GLC X 6
     3 ALP1       26 GROUP        1 Y    ALP  0     ROOT ALP Y 8
     4 GLP5        3 GROUP        1 Y    GLP  0     **** GLP Y 13
     5 ALL1       25 GROUP        1 Z    ALL  0     ROOT ALL Z 15
     6 GLL5        2 GROUP        1 Z    GLL  0     **** GLL Z 20
@<TRIPOS>SET

