#    Name: 3ipt_EQU_3_ligand
#    Modification time : Tue Mar 25 17:04:14 2014

@<TRIPOS>MOLECULE
3ipt_EQU_3_ligand
   38    41     1     0     0
SMALL
NO_CHARGES


@<TRIPOS>ATOM
      1 C1         -9.4740   -0.0730    7.6350 C.ar      1 EQU1128     0.0000 
      2 C2         -8.5930    0.9800    7.4470 C.ar      1 EQU1128     0.0000 
      3 C3         -9.1000    2.2660    7.1140 C.ar      1 EQU1128     0.0000 
      4 C4        -10.5860    2.5070    6.9510 C.ar      1 EQU1128     0.0000 
      5 C5        -11.4100    1.4660    7.1330 C.ar      1 EQU1128     0.0000 
      6 C6        -10.8130    0.2420    7.4690 C.ar      1 EQU1128     0.0000 
      7 C10        -8.2170    3.3170    6.9360 C.ar      1 EQU1128     0.0000 
      8 C11        -8.6610    4.6350    6.6450 C.ar      1 EQU1128     0.0000 
      9 C12       -10.0480    4.9430    6.4700 C.ar      1 EQU1128     0.0000 
     10 C13       -11.0450    3.8550    6.6250 C.ar      1 EQU1128     0.0000 
     11 C16       -10.6120    6.2810    6.1150 C.3       1 EQU1128     0.0000 
     12 C17       -11.9130    6.4820    6.8470 C.3       1 EQU1128     0.0000 
     13 C18       -12.9230    5.5540    6.2090 C.3       1 EQU1128     0.0000 
     14 C19       -12.5790    4.0810    6.4730 C.3       1 EQU1128     0.0000 
     15 C24        -9.8290    7.5520    6.4720 C.3       1 EQU1128     0.0000 
     16 C25       -10.8640    8.7090    6.3150 C.3       1 EQU1128     0.0000 
     17 C26       -12.1870    7.9500    6.5330 C.2       1 EQU1128     0.0000 
     18 C27       -11.6080    6.2230    8.3550 C.3       1 EQU1128     0.0000 
     19 O1         -9.1030   -1.4050    7.9510 O.3       1 EQU1128     0.0000 
     20 O26       -13.2550    8.3250    6.0040 O.2       1 EQU1128     0.0000 
     21 H          -7.5854    0.8502    7.5431 H         1 EQU1128     0.0000 
     22 H         -12.4160    1.5286    7.0398 H         1 EQU1128     0.0000 
     23 H         -11.5162   -0.5855    7.6219 H         1 EQU1128     0.0000 
     24 H          -7.1938    3.1528    7.0145 H         1 EQU1128     0.0000 
     25 H          -7.9695    5.3927    6.5567 H         1 EQU1128     0.0000 
     26 H         -10.8566    6.3306    5.0526 H         1 EQU1128     0.0000 
     27 H         -12.9462    5.7215    5.1297 H         1 EQU1128     0.0000 
     28 H         -13.9175    5.7602    6.6113 H         1 EQU1128     0.0000 
     29 H         -13.0702    3.7524    7.3891 H         1 EQU1128     0.0000 
     30 H         -12.9389    3.4704    5.6446 H         1 EQU1128     0.0000 
     31 H          -9.0393    7.6986    5.7817 H         1 EQU1128     0.0000 
     32 H          -9.5077    7.5101    7.4803 H         1 EQU1128     0.0000 
     33 H         -10.8203    9.0812    5.3400 H         1 EQU1128     0.0000 
     34 H         -10.7204    9.4066    7.0791 H         1 EQU1128     0.0000 
     35 H         -11.2663    5.2962    8.5110 H         1 EQU1128     0.0000 
     36 H         -10.9166    6.8535    8.7077 H         1 EQU1128     0.0000 
     37 H         -12.4233    6.3343    8.9233 H         1 EQU1128     0.0000 
     38 H          -8.1166   -1.4436    7.7914 H         1 EQU1128     0.0000 
@<TRIPOS>BOND
     1    2    1 ar   
     2    6    1 ar   
     3   19    1 1    
     4    3    2 ar   
     5   21    2 1    
     6    4    3 ar   
     7    7    3 ar   
     8    5    4 ar   
     9   10    4 ar   
    10    6    5 ar   
    11   22    5 1    
    12   23    6 1    
    13    8    7 ar   
    14   24    7 1    
    15    9    8 ar   
    16   25    8 1    
    17   10    9 ar   
    18   11    9 1    
    19   14   10 1    
    20   12   11 1    
    21   15   11 1    
    22   26   11 1    
    23   13   12 1    
    24   17   12 1    
    25   18   12 1    
    26   14   13 1    
    27   27   13 1    
    28   28   13 1    
    29   29   14 1    
    30   30   14 1    
    31   16   15 1    
    32   31   15 1    
    33   32   15 1    
    34   17   16 1    
    35   33   16 1    
    36   34   16 1    
    37   20   17 2    
    38   35   18 1    
    39   36   18 1    
    40   37   18 1    
    41   38   19 1    
@<TRIPOS>SUBSTRUCTURE
     1 EQU1128     1 GROUP   
@<TRIPOS>SET

