#    Name: 3bm1_FMN_1_INTS_M
#    Modification time : Mon Mar 24 19:51:17 2014

@<TRIPOS>MOLECULE
3bm1_FMN_1_INTS_M
   74     0    12     0     0
SMALL
NO_CHARGES


@<TRIPOS>ATOM
      1 N          24.8055    2.1740   19.0335 N.am      2 SEC2        0.0000 
      2 N          23.7460    2.2330   20.0080 N.am     10 SEL2        0.0000 
      3 N          25.8650    2.1150   18.0590 N.am      6 SEP2        0.0000 
      4 N          23.5920    3.2440   17.3015 N.am      2 SEC2        0.0000 
      5 N          22.7410    1.9890   17.3540 N.am     10 SEL2        0.0000 
      6 N          24.4430    4.4990   17.2490 N.am      6 SEP2        0.0000 
      7 CA         23.8245    0.7810   17.0315 C.3       4 GLC5        0.0000 
      8 CA         22.2090    1.8330   16.0680 C.3      12 GLL5        0.0000 
      9 CA         25.4400   -0.2710   17.9950 C.3       8 GLP5        0.0000 
     10 CA         23.6725    2.1125   11.5610 C.3       4 GLC5        0.0000 
     11 CA         22.8780    3.2530   12.5270 C.3      12 GLL5        0.0000 
     12 CA         24.4670    0.9720   10.5950 C.3       8 GLP5        0.0000 
     13 CA         24.0395    4.8100   12.0110 C.3       4 GLC5        0.0000 
     14 CA         25.2010    6.3670   11.4950 C.3       8 GLP5        0.0000 
     15 CA         21.7290    0.2755   10.9480 C.3       4 GLC5        0.0000 
     16 CA         20.5030    1.3410   11.9990 C.3      12 GLL5        0.0000 
     17 CA         22.9550   -0.7900    9.8970 C.3       8 GLP5        0.0000 
     18 CA         20.0885   -0.3110   11.2315 C.3       4 GLC5        0.0000 
     19 CA         19.6740   -1.9630   10.4640 C.3       8 GLP5        0.0000 
     20 CA         19.0670    1.8950   10.4415 C.3       4 GLC5        0.0000 
     21 CA         17.6310    2.4490    8.8840 C.3       8 GLP5        0.0000 
     22 CA         18.3610    0.6220   14.1885 C.3       4 GLC5        0.0000 
     23 CA         20.5750    0.8200   14.4630 C.3      12 GLL5        0.0000 
     24 CA         16.1470    0.4240   13.9140 C.3       8 GLP5        0.0000 
     25 CA         17.7695   -0.1375   15.3335 C.3       4 GLC5        0.0000 
     26 CA         19.3920   -0.6990   16.7530 C.3      12 GLL5        0.0000 
     27 CA         18.5305    0.8250   16.7955 C.3       4 GLC5        0.0000 
     28 CA         17.6690    2.3490   16.8380 C.3       8 GLP5        0.0000 
     29 CA         20.8995   -3.4390   17.6955 C.3       4 GLC5        0.0000 
     30 CA         19.7030   -2.2000   16.9070 C.3      12 GLL5        0.0000 
     31 CA         22.0960   -4.6780   18.4840 C.3       8 GLP5        0.0000 
     32 N          22.2820   -3.3570   15.9415 N.am      2 SEC2        0.0000 
     33 N          20.7350   -2.5840   15.9670 N.am     10 SEL2        0.0000 
     34 N          23.8290   -4.1300   15.9160 N.am      6 SEP2        0.0000 
     35 O          21.9725   -2.0100   16.4180 O.2       1 ALC1        0.0000 
     36 O          20.7350   -2.5840   15.9670 O.2       9 ALL1        0.0000 
     37 O          23.2100   -1.4360   16.8690 O.2       5 ALP1        0.0000 
     38 CA         19.0330   -5.1015   16.6320 C.3       4 GLC5        0.0000 
     39 CA         18.4770   -3.0810   16.6330 C.3      12 GLL5        0.0000 
     40 CA         19.5890   -7.1220   16.6310 C.3       8 GLP5        0.0000 
     41 CA         19.8100   -3.8090   18.1430 C.3       4 GLC5        0.0000 
     42 CA         21.1430   -4.5370   19.6530 C.3       8 GLP5        0.0000 
     43 N          17.4500   -1.8015   14.4060 N.am      2 SEC2        0.0000 
     44 N          18.0120   -2.8270   15.2680 N.am     10 SEL2        0.0000 
     45 N          16.8880   -0.7760   13.5440 N.am      6 SEP2        0.0000 
     46 NZ         17.0785   -5.6555   13.6390 N.4       3 LYC4        0.0000 
     47 NZ         17.1240   -5.4370   15.0110 N.4      11 LYL4        0.0000 
     48 NZ         17.7780   -6.8250   11.7160 N.4       7 LYP4        0.0000 
     49 N          17.0785   -5.6555   13.6390 N.am      2 SEC2        0.0000 
     50 N          17.1240   -5.4370   15.0110 N.am     10 SEL2        0.0000 
     51 N          17.0330   -5.8740   12.2670 N.am      6 SEP2        0.0000 
     52 N          18.2730   -5.9715   15.1905 N.am      2 SEC2        0.0000 
     53 N          19.4220   -6.5060   15.3700 N.am      6 SEP2        0.0000 
     54 N          17.0700   -8.1155   16.1600 N.am      2 SEC2        0.0000 
     55 N          16.0150   -7.2720   16.3740 N.am     10 SEL2        0.0000 
     56 N          18.1250   -8.9590   15.9460 N.am      6 SEP2        0.0000 
     57 NZ         13.9215   -6.3240   14.5145 N.4       3 LYC4        0.0000 
     58 NZ         14.6280   -5.3920   15.3760 N.4      11 LYL4        0.0000 
     59 NZ         12.2930   -6.9420   12.7550 N.4       7 LYP4        0.0000 
     60 N          13.9215   -6.3240   14.5145 N.am      2 SEC2        0.0000 
     61 N          14.6280   -5.3920   15.3760 N.am     10 SEL2        0.0000 
     62 N          13.2150   -7.2560   13.6530 N.am      6 SEP2        0.0000 
     63 CA         24.0928    3.1772   16.0995 C.3       4 GLC5        0.0000 
     64 CA         25.6990    4.1520   16.6930 C.3       8 GLP5        0.0000 
     65 CA         21.7805    4.7960   13.3570 C.3       4 GLC5        0.0000 
     66 CA         22.2560    2.4570   13.6070 C.3      12 GLL5        0.0000 
     67 CA         20.9940    6.7370   13.6470 C.3       8 GLP5        0.0000 
     68 CA         20.1500   -0.5498   12.9210 C.3       4 GLC5        0.0000 
     69 CA         21.1270    1.5450   13.3810 C.3      12 GLL5        0.0000 
     70 CA         19.4490   -2.2820   11.9200 C.3       8 GLP5        0.0000 
     71 CA         19.8300    2.2792   15.3410 C.3       4 GLC5        0.0000 
     72 CA         18.8090    3.3760   16.7600 C.3       8 GLP5        0.0000 
     73 CA         20.2984    2.4731   16.2142 C.3       4 GLC5        0.0000 
     74 CA         21.0890    0.9380   15.8310 C.3      12 GLL5        0.0000 
@<TRIPOS>BOND
@<TRIPOS>SUBSTRUCTURE
     1 ALC1       35 GROUP        1 X    ALC  0     ROOT ALC X 1
     2 SEC2        1 GROUP        1 X    SEC  0     **** SEC X 2
     3 LYC4       46 GROUP        1 X    LYC  0     **** LYC X 4
     4 GLC5        7 GROUP        1 X    GLC  0     **** GLC X 6
     5 ALP1       37 GROUP        1 Y    ALP  0     ROOT ALP Y 8
     6 SEP2        3 GROUP        1 Y    SEP  0     **** SEP Y 9
     7 LYP4       48 GROUP        1 Y    LYP  0     **** LYP Y 11
     8 GLP5        9 GROUP        1 Y    GLP  0     **** GLP Y 13
     9 ALL1       36 GROUP        1 Z    ALL  0     ROOT ALL Z 15
    10 SEL2        2 GROUP        1 Z    SEL  0     **** SEL Z 16
    11 LYL4       47 GROUP        1 Z    LYL  0     **** LYL Z 18
    12 GLL5        8 GROUP        1 Z    GLL  0     **** GLL Z 20
@<TRIPOS>SET

