#    Name: 3bm1_FMN_1_ligand
#    Modification time : Mon Mar 24 19:51:17 2014

@<TRIPOS>MOLECULE
3bm1_FMN_1_ligand
   50    52     1     0     0
SMALL
NO_CHARGES


@<TRIPOS>ATOM
      1 N1         20.5490   -0.2920   19.3210 N.2       1 FMN3401     0.0000 
      2 C2         21.0750   -0.1260   20.5910 C.2       1 FMN3401     0.0000 
      3 O2         20.6120   -0.7280   21.5780 O.2       1 FMN3401     0.0000 
      4 N3         22.1640    0.7430   20.7920 N.am      1 FMN3401     0.0000 
      5 C4         22.7580    1.4730   19.7260 C.2       1 FMN3401     0.0000 
      6 O4         23.7460    2.2330   20.0080 O.2       1 FMN3401     0.0000 
      7 C4A        22.2220    1.3160   18.4040 C.2       1 FMN3401     0.0000 
      8 N5         22.7410    1.9890   17.3540 N.2       1 FMN3401     0.0000 
      9 C5A        22.2090    1.8330   16.0680 C.ar      1 FMN3401     0.0000 
     10 C6         22.7640    2.5720   14.9440 C.ar      1 FMN3401     0.0000 
     11 C7         22.2560    2.4570   13.6070 C.ar      1 FMN3401     0.0000 
     12 C7M        22.8780    3.2530   12.5270 C.3       1 FMN3401     0.0000 
     13 C8         21.1270    1.5450   13.3810 C.ar      1 FMN3401     0.0000 
     14 C8M        20.5030    1.3410   11.9990 C.3       1 FMN3401     0.0000 
     15 C9         20.5750    0.8200   14.4630 C.ar      1 FMN3401     0.0000 
     16 C9A        21.0890    0.9380   15.8310 C.ar      1 FMN3401     0.0000 
     17 N10        20.5450    0.2230   16.9670 N.pl3     1 FMN3401     0.0000 
     18 C10        21.0870    0.3860   18.2790 C.2       1 FMN3401     0.0000 
     19 C1'        19.3920   -0.6990   16.7530 C.3       1 FMN3401     0.0000 
     20 C2'        19.7030   -2.2000   16.9070 C.3       1 FMN3401     0.0000 
     21 O2'        20.7350   -2.5840   15.9670 O.3       1 FMN3401     0.0000 
     22 C3'        18.4770   -3.0810   16.6330 C.3       1 FMN3401     0.0000 
     23 O3'        18.0120   -2.8270   15.2680 O.3       1 FMN3401     0.0000 
     24 C4'        17.2890   -2.8030   17.6490 C.3       1 FMN3401     0.0000 
     25 O4'        17.8200   -3.0910   18.9820 O.3       1 FMN3401     0.0000 
     26 C5'        16.0170   -3.6150   17.4340 C.3       1 FMN3401     0.0000 
     27 O5'        16.2730   -5.0150   17.3850 O.3       1 FMN3401     0.0000 
     28 P          15.9970   -5.8340   15.9330 P.3       1 FMN3401     0.0000 
     29 O1P        17.1240   -5.4370   15.0110 O.co2     1 FMN3401     0.0000 
     30 O2P        16.0150   -7.2720   16.3740 O.co2     1 FMN3401     0.0000 
     31 O3P        14.6280   -5.3920   15.3760 O.co2     1 FMN3401     0.0000 
     32 H          22.5501    0.8588   21.7464 H         1 FMN3401     0.0000 
     33 H          23.5584    3.2050   15.1252 H         1 FMN3401     0.0000 
     34 H          19.7834    0.1809   14.3064 H         1 FMN3401     0.0000 
     35 H          18.9683   -0.5414   15.7367 H         1 FMN3401     0.0000 
     36 H          18.5724   -0.4465   17.4613 H         1 FMN3401     0.0000 
     37 H          20.0312   -2.3823   17.9168 H         1 FMN3401     0.0000 
     38 H          18.7587   -4.1151   16.7428 H         1 FMN3401     0.0000 
     39 H          17.0619   -1.7441   17.5863 H         1 FMN3401     0.0000 
     40 H          15.5464   -3.2553   16.4983 H         1 FMN3401     0.0000 
     41 H          15.3160   -3.3589   18.2522 H         1 FMN3401     0.0000 
     42 H          23.8484    3.0374   12.4184 H         1 FMN3401     0.0000 
     43 H          22.4401    3.0865   11.6435 H         1 FMN3401     0.0000 
     44 H          22.8141    4.2349   12.7053 H         1 FMN3401     0.0000 
     45 H          21.1687    0.9939   11.3385 H         1 FMN3401     0.0000 
     46 H          19.7477    0.6862   12.0255 H         1 FMN3401     0.0000 
     47 H          20.1382    2.1944   11.6266 H         1 FMN3401     0.0000 
     48 H          21.5722   -2.1625   16.3155 H         1 FMN3401     0.0000 
     49 H          17.6085   -3.6911   14.9672 H         1 FMN3401     0.0000 
     50 H          17.4957   -4.0124   19.1961 H         1 FMN3401     0.0000 
@<TRIPOS>BOND
     1    2    1 1    
     2   18    1 2    
     3    3    2 2    
     4    4    2 am   
     5    5    4 am   
     6   32    4 1    
     7    6    5 2    
     8    7    5 1    
     9    8    7 2    
    10   18    7 1    
    11    9    8 1    
    12   10    9 ar   
    13   16    9 ar   
    14   11   10 ar   
    15   33   10 1    
    16   12   11 1    
    17   13   11 ar   
    18   42   12 1    
    19   43   12 1    
    20   44   12 1    
    21   14   13 1    
    22   15   13 ar   
    23   45   14 1    
    24   46   14 1    
    25   47   14 1    
    26   16   15 ar   
    27   34   15 1    
    28   17   16 1    
    29   18   17 1    
    30   19   17 1    
    31   20   19 1    
    32   35   19 1    
    33   36   19 1    
    34   21   20 1    
    35   22   20 1    
    36   37   20 1    
    37   48   21 1    
    38   23   22 1    
    39   24   22 1    
    40   38   22 1    
    41   49   23 1    
    42   25   24 1    
    43   26   24 1    
    44   39   24 1    
    45   50   25 1    
    46   27   26 1    
    47   40   26 1    
    48   41   26 1    
    49   28   27 1    
    50   29   28 ar   
    51   30   28 ar   
    52   31   28 ar   
@<TRIPOS>SUBSTRUCTURE
     1 FMN3401     1 GROUP   
@<TRIPOS>SET

