#    Name: 4l10_A63_1_INTS_M
#    Modification time : Mon Apr  7 23:49:58 2014

@<TRIPOS>MOLECULE
4l10_A63_1_INTS_M
   50     0     6     0     0
SMALL
NO_CHARGES


@<TRIPOS>ATOM
      1 CA         -6.9665  -40.4255    5.0760 C.3       2 GLC5        0.0000 
      2 CA         -5.8480  -39.4090    6.0090 C.3       6 GLL5        0.0000 
      3 CA         -8.0850  -41.4420    4.1430 C.3       4 GLP5        0.0000 
      4 CA         -5.1155  -41.4250    6.4585 C.3       2 GLC5        0.0000 
      5 CA         -4.3830  -43.4410    6.9080 C.3       4 GLP5        0.0000 
      6 CA         -4.7770  -37.5220   12.9860 C.3       2 GLC5        0.0000 
      7 CA         -6.6350  -37.3360   12.0050 C.3       6 GLL5        0.0000 
      8 CA         -2.9190  -37.7080   13.9670 C.3       4 GLP5        0.0000 
      9 CA         -7.8570  -36.0685   11.8765 C.3       2 GLC5        0.0000 
     10 CA         -9.0790  -34.8010   11.7480 C.3       4 GLP5        0.0000 
     11 CA         -6.3480  -33.3865   16.2450 C.3       2 GLC5        0.0000 
     12 CA         -4.8470  -34.6160   15.4710 C.3       6 GLL5        0.0000 
     13 CA         -7.8490  -32.1570   17.0190 C.3       4 GLP5        0.0000 
     14 CA         -5.5045  -38.0995   16.8435 C.3       2 GLC5        0.0000 
     15 CA         -6.3920  -36.4330   16.0030 C.3       6 GLL5        0.0000 
     16 CA         -4.6170  -39.7660   17.6840 C.3       4 GLP5        0.0000 
     17 CA         -8.6200  -36.4605   16.2245 C.3       2 GLC5        0.0000 
     18 CA        -10.8480  -36.4880   16.4460 C.3       4 GLP5        0.0000 
     19 N          -9.3465  -39.1920   14.6370 N.am      1 SEC2        0.0000 
     20 N          -8.2020  -38.2880   14.9460 N.am      5 SEL2        0.0000 
     21 N         -10.4910  -40.0960   14.3280 N.am      3 SEP2        0.0000 
     22 N          -8.8425  -38.2305   16.2315 N.am      1 SEC2        0.0000 
     23 N          -9.4830  -38.1730   17.5170 N.am      3 SEP2        0.0000 
     24 CA         -8.7705  -36.9600   12.1975 C.3       2 GLC5        0.0000 
     25 CA         -7.4300  -38.0650   12.8620 C.3       6 GLL5        0.0000 
     26 CA        -10.1110  -35.8550   11.5330 C.3       4 GLP5        0.0000 
     27 CA         -6.4962  -35.5987    7.2960 C.3       2 GLC5        0.0000 
     28 CA         -5.8110  -36.8950    8.4220 C.3       6 GLL5        0.0000 
     29 CA         -6.8870  -33.7470    6.4650 C.3       4 GLP5        0.0000 
     30 CA         -8.6850  -40.1960    9.4972 C.3       2 GLC5        0.0000 
     31 CA         -7.0690  -38.9000    8.6520 C.3       6 GLL5        0.0000 
     32 CA        -10.2520  -41.5920    9.6480 C.3       4 GLP5        0.0000 
     33 CA         -8.4885  -36.9988   10.9335 C.3       2 GLC5        0.0000 
     34 CA         -7.1670  -38.7000   10.0410 C.3       6 GLL5        0.0000 
     35 CA         -4.0935  -36.6805    9.1848 C.3       2 GLC5        0.0000 
     36 CA         -5.8950  -36.6850    9.7990 C.3       6 GLL5        0.0000 
     37 CA         -2.3340  -36.5710    9.2590 C.3       4 GLP5        0.0000 
     38 CA         -6.7527  -39.6572   12.3993 C.3       2 GLC5        0.0000 
     39 CA         -6.4730  -41.6140   12.3650 C.3       4 GLP5        0.0000 
     40 CA         -4.1668  -36.5675   13.9455 C.3       2 GLC5        0.0000 
     41 CA         -5.8410  -35.9350   13.7380 C.3       6 GLL5        0.0000 
     42 CA         -4.0627  -36.3482   14.9538 C.3       2 GLC5        0.0000 
     43 CA         -4.5198  -34.3277   17.8253 C.3       2 GLC5        0.0000 
     44 CA         -3.8330  -33.6670   19.7100 C.3       4 GLP5        0.0000 
     45 CA         -6.6025  -36.1935   17.9668 C.3       2 GLC5        0.0000 
     46 CA         -5.5660  -35.3610   16.4100 C.3       6 GLL5        0.0000 
     47 CA         -7.2260  -36.4900   19.7270 C.3       4 GLP5        0.0000 
     48 CA         -6.9225  -34.5850   17.1382 C.3       2 GLC5        0.0000 
     49 CA         -7.8660  -33.2730   18.0700 C.3       4 GLP5        0.0000 
     50 CA         -4.6915  -37.1412   14.6478 C.3       2 GLC5        0.0000 
@<TRIPOS>BOND
@<TRIPOS>SUBSTRUCTURE
     1 SEC2       19 GROUP        1 X    SEC  0     ROOT SEC X 2
     2 GLC5        1 GROUP        1 X    GLC  0     **** GLC X 6
     3 SEP2       21 GROUP        1 Y    SEP  0     ROOT SEP Y 9
     4 GLP5        3 GROUP        1 Y    GLP  0     **** GLP Y 13
     5 SEL2       20 GROUP        1 Z    SEL  0     ROOT SEL Z 16
     6 GLL5        2 GROUP        1 Z    GLL  0     **** GLL Z 20
@<TRIPOS>SET

