#    Name: 4l10_A63_1_ligand
#    Modification time : Mon Apr  7 23:49:58 2014

@<TRIPOS>MOLECULE
4l10_A63_1_ligand
   31    33     1     0     0
SMALL
NO_CHARGES


@<TRIPOS>ATOM
      1 CAQ        -5.8480  -39.4090    6.0090 C.3       1 A631204     0.0000 
      2 OAO        -6.3090  -38.1470    6.4510 O.3       1 A631204     0.0000 
      3 CAK        -6.4000  -38.0060    7.8320 C.ar      1 A631204     0.0000 
      4 CAM        -7.0690  -38.9000    8.6520 C.ar      1 A631204     0.0000 
      5 CAI        -7.1670  -38.7000   10.0410 C.ar      1 A631204     0.0000 
      6 CAL        -5.8110  -36.8950    8.4220 C.ar      1 A631204     0.0000 
      7 CAJ        -5.8950  -36.6850    9.7990 C.ar      1 A631204     0.0000 
      8 CAG        -6.5650  -37.5850   10.6270 C.ar      1 A631204     0.0000 
      9 CAA        -6.6350  -37.3360   12.0050 C.2       1 A631204     0.0000 
     10 OAC        -5.9000  -36.2730   12.4170 O.3       1 A631204     0.0000 
     11 CAF        -5.8410  -35.9350   13.7380 C.ar      1 A631204     0.0000 
     12 CAP        -4.9880  -34.9190   14.1100 C.ar      1 A631204     0.0000 
     13 CAS        -4.8470  -34.6160   15.4710 C.ar      1 A631204     0.0000 
     14 CAR        -5.5660  -35.3610   16.4100 C.ar      1 A631204     0.0000 
     15 CAN        -6.3920  -36.4330   16.0030 C.ar      1 A631204     0.0000 
     16 CAE        -6.5360  -36.7160   14.6540 C.ar      1 A631204     0.0000 
     17 CAD        -7.3810  -37.7440   14.2150 C.2       1 A631204     0.0000 
     18 OAH        -8.2020  -38.2880   14.9460 O.2       1 A631204     0.0000 
     19 CAB        -7.4300  -38.0650   12.8620 C.2       1 A631204     0.0000 
     20 H          -7.5132  -39.7434    8.2389 H         1 A631204     0.0000 
     21 H          -7.6798  -39.3734   10.6168 H         1 A631204     0.0000 
     22 H          -5.3024  -36.2121    7.8349 H         1 A631204     0.0000 
     23 H          -5.4519  -35.8460   10.2128 H         1 A631204     0.0000 
     24 H          -4.4621  -34.3888   13.4134 H         1 A631204     0.0000 
     25 H          -4.2291  -33.8635   15.7699 H         1 A631204     0.0000 
     26 H          -5.4976  -35.1316   17.4105 H         1 A631204     0.0000 
     27 H          -6.8767  -36.9909   16.7111 H         1 A631204     0.0000 
     28 H          -8.0305  -38.8088   12.5259 H         1 A631204     0.0000 
     29 H          -4.9325  -39.6124    6.3561 H         1 A631204     0.0000 
     30 H          -6.4474  -40.1501    6.3114 H         1 A631204     0.0000 
     31 H          -5.8009  -39.4586    5.0113 H         1 A631204     0.0000 
@<TRIPOS>BOND
     1    2    1 1    
     2   29    1 1    
     3   30    1 1    
     4   31    1 1    
     5    3    2 1    
     6    4    3 ar   
     7    6    3 ar   
     8    5    4 ar   
     9   20    4 1    
    10    8    5 ar   
    11   21    5 1    
    12    7    6 ar   
    13   22    6 1    
    14    8    7 ar   
    15   23    7 1    
    16    9    8 1    
    17   10    9 1    
    18   19    9 2    
    19   11   10 1    
    20   12   11 ar   
    21   16   11 ar   
    22   13   12 ar   
    23   24   12 1    
    24   14   13 ar   
    25   25   13 1    
    26   15   14 ar   
    27   26   14 1    
    28   16   15 ar   
    29   27   15 1    
    30   17   16 1    
    31   18   17 2    
    32   19   17 1    
    33   28   19 1    
@<TRIPOS>SUBSTRUCTURE
     1 A631204     1 GROUP   
@<TRIPOS>SET

