#    Name: 4fx9_FAD_3_INTS_M
#    Modification time : Mon Mar 24 20:59:41 2014

@<TRIPOS>MOLECULE
4fx9_FAD_3_INTS_M
  116     0     9     0     0
SMALL
NO_CHARGES


@<TRIPOS>ATOM
      1 CA        -35.4395  -17.6280   -5.2710 C.3       3 GLC5        0.0000 
      2 CA        -33.6950  -18.9420   -5.7760 C.3       9 GLL5        0.0000 
      3 CA        -37.1840  -16.3140   -4.7660 C.3       6 GLP5        0.0000 
      4 CA        -33.3955  -20.4280   -7.1040 C.3       3 GLC5        0.0000 
      5 CA        -33.0960  -21.9140   -8.4320 C.3       6 GLP5        0.0000 
      6 CA        -34.1965  -19.5780   -2.9640 C.3       3 GLC5        0.0000 
      7 CA        -33.1980  -18.4660   -4.4200 C.3       9 GLL5        0.0000 
      8 CA        -35.1950  -20.6900   -1.5080 C.3       6 GLP5        0.0000 
      9 CA        -31.2230  -16.3130   -5.7980 C.3       3 GLC5        0.0000 
     10 CA        -32.0150  -17.5150   -4.5650 C.3       9 GLL5        0.0000 
     11 CA        -30.4310  -15.1110   -7.0310 C.3       6 GLP5        0.0000 
     12 N         -33.0995  -15.2165   -4.4195 N.am      2 SEC2        0.0000 
     13 N         -32.3410  -16.2780   -3.9710 N.am      8 SEL2        0.0000 
     14 N         -33.8580  -14.1550   -4.8680 N.am      5 SEP2        0.0000 
     15 O         -32.8395  -16.5375   -2.7045 O.2       1 ALC1        0.0000 
     16 O         -32.3410  -16.2780   -3.9710 O.2       7 ALL1        0.0000 
     17 O         -33.3380  -16.7970   -1.4380 O.2       4 ALP1        0.0000 
     18 O         -31.8065  -16.2185   -2.5245 O.2       1 ALC1        0.0000 
     19 O         -31.2720  -16.1590   -1.0780 O.2       4 ALP1        0.0000 
     20 CA        -29.6070  -17.0455   -4.8680 C.3       3 GLC5        0.0000 
     21 CA        -30.8800  -18.1880   -3.8180 C.3       9 GLL5        0.0000 
     22 CA        -28.3340  -15.9030   -5.9180 C.3       6 GLP5        0.0000 
     23 O         -30.7095  -16.7140   -2.0605 O.2       1 ALC1        0.0000 
     24 O         -30.1470  -17.2690   -3.0430 O.2       7 ALL1        0.0000 
     25 CA        -33.3970  -19.9400   -2.2185 C.3       3 GLC5        0.0000 
     26 CA        -31.5990  -19.1900   -2.9290 C.3       9 GLL5        0.0000 
     27 CA        -32.4105  -21.0315   -3.8295 C.3       3 GLC5        0.0000 
     28 CA        -33.2220  -22.8730   -4.7300 C.3       6 GLP5        0.0000 
     29 CA        -27.8915  -22.3825    0.9075 C.3       3 GLC5        0.0000 
     30 CA        -29.5040  -22.7480   -0.3080 C.3       9 GLL5        0.0000 
     31 CA        -26.2790  -22.0170    2.1230 C.3       6 GLP5        0.0000 
     32 CA        -30.0285  -24.1350    1.3325 C.3       3 GLC5        0.0000 
     33 CA        -30.5530  -25.5220    2.9730 C.3       6 GLP5        0.0000 
     34 O         -28.0555  -24.6020    0.8745 O.2       1 ALC1        0.0000 
     35 O         -28.4840  -23.6000   -0.3150 O.2       7 ALL1        0.0000 
     36 O         -27.6270  -25.6040    2.0640 O.2       4 ALP1        0.0000 
     37 N         -29.5940  -23.0185    2.2255 N.am      2 SEC2        0.0000 
     38 N         -30.1140  -22.4340    0.8930 N.am      8 SEL2        0.0000 
     39 N         -29.0740  -23.6030    3.5580 N.am      5 SEP2        0.0000 
     40 CA        -31.9660  -22.9950    0.4940 C.3       3 GLC5        0.0000 
     41 CA        -30.9940  -21.3690    0.9660 C.3       9 GLL5        0.0000 
     42 CA        -32.9380  -24.6210    0.0220 C.3       6 GLP5        0.0000 
     43 CA        -31.9020  -19.6130    1.4390 C.3       3 GLC5        0.0000 
     44 CA        -32.8100  -17.8570    1.9120 C.3       6 GLP5        0.0000 
     45 CA        -29.6090  -19.9380    0.7285 C.3       3 GLC5        0.0000 
     46 CA        -28.2240  -18.5070    0.4910 C.3       6 GLP5        0.0000 
     47 CA        -29.5120  -21.4085    2.4450 C.3       3 GLC5        0.0000 
     48 CA        -28.0300  -21.4480    3.9240 C.3       6 GLP5        0.0000 
     49 CA        -31.3955  -23.1190    2.2660 C.3       3 GLC5        0.0000 
     50 CA        -31.7970  -24.8690    3.5660 C.3       6 GLP5        0.0000 
     51 N         -30.8580  -19.2910    0.6060 N.am      2 SEC2        0.0000 
     52 N         -31.2680  -20.6200   -0.1660 N.am      8 SEL2        0.0000 
     53 N         -30.4480  -17.9620    1.3780 N.am      5 SEP2        0.0000 
     54 N         -38.5585  -15.7160  -15.8600 N.am      2 SEC2        0.0000 
     55 N         -37.4340  -14.6800  -16.5390 N.am      8 SEL2        0.0000 
     56 N         -39.6830  -16.7520  -15.1810 N.am      5 SEP2        0.0000 
     57 N         -39.6240  -15.7720  -16.2625 N.am      2 SEC2        0.0000 
     58 N         -39.5650  -14.7920  -17.3440 N.am      8 SEL2        0.0000 
     59 O         -39.3885  -12.5980  -18.7840 O.2       1 ALC1        0.0000 
     60 O         -38.3280  -13.0200  -18.0240 O.2       7 ALL1        0.0000 
     61 O         -40.4490  -12.1760  -19.5440 O.2       4 ALP1        0.0000 
     62 CA        -30.6670   -9.5625  -15.6630 C.3       3 GLC5        0.0000 
     63 CA        -30.2420  -11.6160  -15.6260 C.3       9 GLL5        0.0000 
     64 CA        -31.0920   -7.5090  -15.7000 C.3       6 GLP5        0.0000 
     65 CA        -29.0590  -14.0855  -12.9075 C.3       3 GLC5        0.0000 
     66 CA        -30.5410  -14.1190  -14.0670 C.3       9 GLL5        0.0000 
     67 CA        -27.5770  -14.0520  -11.7480 C.3       6 GLP5        0.0000 
     68 CA        -35.4160  -12.9125  -14.8965 C.3       3 GLC5        0.0000 
     69 CA        -33.9540  -13.8040  -15.6870 C.3       9 GLL5        0.0000 
     70 CA        -36.8780  -12.0210  -14.1060 C.3       6 GLP5        0.0000 
     71 CA        -36.9140  -17.0795  -15.7290 C.3       3 GLC5        0.0000 
     72 CA        -35.3210  -15.7710  -14.9410 C.3       9 GLL5        0.0000 
     73 CA        -38.5070  -18.3880  -16.5170 C.3       6 GLP5        0.0000 
     74 CA        -38.1015  -15.1365  -13.7725 C.3       3 GLC5        0.0000 
     75 CA        -36.0380  -15.5840  -13.6090 C.3       9 GLL5        0.0000 
     76 CA        -40.1650  -14.6890  -13.9360 C.3       6 GLP5        0.0000 
     77 CA        -37.1550  -14.3035  -12.4055 C.3       3 GLC5        0.0000 
     78 CA        -38.2720  -13.0230  -11.2020 C.3       6 GLP5        0.0000 
     79 O         -36.3285  -19.1645  -13.4565 O.2       1 ALC1        0.0000 
     80 O         -36.6330  -17.9150  -13.7320 O.2       7 ALL1        0.0000 
     81 O         -36.0240  -20.4140  -13.1810 O.2       4 ALP1        0.0000 
     82 O         -35.3285  -18.7335  -13.3170 O.2       1 ALC1        0.0000 
     83 O         -34.0240  -19.5520  -12.9020 O.2       4 ALP1        0.0000 
     84 CA        -37.6175  -14.9440  -11.4060 C.3       3 GLC5        0.0000 
     85 CA        -36.9630  -16.8650  -11.6100 C.3       9 GLL5        0.0000 
     86 CA        -35.6845  -19.9370  -11.3905 C.3       3 GLC5        0.0000 
     87 CA        -36.9170  -18.2200  -10.9160 C.3       9 GLL5        0.0000 
     88 CA        -34.4520  -21.6540  -11.8650 C.3       6 GLP5        0.0000 
     89 N         -38.8285  -18.6895   -6.9210 N.am      2 SEC2        0.0000 
     90 N         -37.1430  -18.8310   -7.1110 N.am      8 SEL2        0.0000 
     91 N         -40.5140  -18.5480   -6.7310 N.am      5 SEP2        0.0000 
     92 N         -36.7670  -21.5585  -10.0225 N.am      2 SEC2        0.0000 
     93 N         -36.9010  -20.5730   -8.8930 N.am      8 SEL2        0.0000 
     94 N         -36.6330  -22.5440  -11.1520 N.am      5 SEP2        0.0000 
     95 CA        -33.3342  -20.7885   -4.9140 C.3       3 GLC5        0.0000 
     96 CA        -31.2910  -23.4943   -0.4263 C.3       3 GLC5        0.0000 
     97 CA        -29.7840  -21.9870   -1.4410 C.3       9 GLL5        0.0000 
     98 CA        -29.2260  -19.9805   -0.4520 C.3       3 GLC5        0.0000 
     99 CA        -31.2530  -22.6215   -2.6635 C.3       3 GLC5        0.0000 
    100 CA        -30.6720  -20.9210   -1.3490 C.3       9 GLL5        0.0000 
    101 CA        -32.2780  -23.7890   -3.9320 C.3       6 GLP5        0.0000 
    102 CA        -33.6219  -11.1979  -15.0968 C.3       3 GLC5        0.0000 
    103 CA        -31.5280  -12.3950  -15.6360 C.3       9 GLL5        0.0000 
    104 CA        -34.8790  -10.0620  -14.1710 C.3       6 GLP5        0.0000 
    105 CA        -30.4204  -12.8656  -17.2710 C.3       3 GLC5        0.0000 
    106 CA        -32.5990  -11.9220  -16.3960 C.3       9 GLL5        0.0000 
    107 CA        -29.6880  -13.8440  -18.7210 C.3       6 GLP5        0.0000 
    108 CA        -30.2647  -14.4045  -16.1615 C.3       3 GLC5        0.0000 
    109 CA        -29.4250  -14.9610  -17.8400 C.3       6 GLP5        0.0000 
    110 CA        -32.4001  -13.4365  -12.8890 C.3       3 GLC5        0.0000 
    111 CA        -31.6680  -13.5770  -14.8990 C.3       9 GLL5        0.0000 
    112 CA        -32.8090  -12.8120  -11.0720 C.3       6 GLP5        0.0000 
    113 CA        -36.2788  -13.8493  -14.1905 C.3       3 GLC5        0.0000 
    114 CA        -38.4578  -16.5485  -13.1275 C.3       3 GLC5        0.0000 
    115 CA        -36.1120  -16.9210  -12.8740 C.3       9 GLL5        0.0000 
    116 CA        -40.3780  -16.2040  -14.0130 C.3       6 GLP5        0.0000 
@<TRIPOS>BOND
@<TRIPOS>SUBSTRUCTURE
     1 ALC1       15 GROUP        1 X    ALC  0     ROOT ALC X 1
     2 SEC2       12 GROUP        1 X    SEC  0     **** SEC X 2
     3 GLC5        1 GROUP        1 X    GLC  0     **** GLC X 6
     4 ALP1       17 GROUP        1 Y    ALP  0     ROOT ALP Y 8
     5 SEP2       14 GROUP        1 Y    SEP  0     **** SEP Y 9
     6 GLP5        3 GROUP        1 Y    GLP  0     **** GLP Y 13
     7 ALL1       16 GROUP        1 Z    ALL  0     ROOT ALL Z 15
     8 SEL2       13 GROUP        1 Z    SEL  0     **** SEL Z 16
     9 GLL5        2 GROUP        1 Z    GLL  0     **** GLL Z 20
@<TRIPOS>SET

