#    Name: 4fx9_FAD_3_ligand
#    Modification time : Mon Mar 24 20:59:42 2014

@<TRIPOS>MOLECULE
4fx9_FAD_3_ligand
   84    89     1     0     0
SMALL
NO_CHARGES


@<TRIPOS>ATOM
      1 PA        -34.4300  -17.5380   -7.8600 P.3       1 FAD901      0.0000 
      2 O1A       -32.9810  -17.4040   -8.2710 O.co2     1 FAD901      0.0000 
      3 O2A       -35.2100  -16.2740   -8.1490 O.co2     1 FAD901      0.0000 
      4 O5B       -34.5280  -17.9350   -6.3070 O.3       1 FAD901      0.0000 
      5 C5B       -33.6950  -18.9420   -5.7760 C.3       1 FAD901      0.0000 
      6 C4B       -33.1980  -18.4660   -4.4200 C.3       1 FAD901      0.0000 
      7 O4B       -32.7720  -19.5590   -3.6300 O.3       1 FAD901      0.0000 
      8 C3B       -32.0150  -17.5150   -4.5650 C.3       1 FAD901      0.0000 
      9 O3B       -32.3410  -16.2780   -3.9710 O.3       1 FAD901      0.0000 
     10 C2B       -30.8800  -18.1880   -3.8180 C.3       1 FAD901      0.0000 
     11 O2B       -30.1470  -17.2690   -3.0430 O.3       1 FAD901      0.0000 
     12 C1B       -31.5990  -19.1900   -2.9290 C.3       1 FAD901      0.0000 
     13 N9A       -30.7600  -20.3560   -2.5950 N.pl3     1 FAD901      0.0000 
     14 C8A       -29.9390  -21.0660   -3.4350 C.2       1 FAD901      0.0000 
     15 N7A       -29.3520  -22.0550   -2.7200 N.2       1 FAD901      0.0000 
     16 C5A       -29.7840  -21.9870   -1.4410 C.ar      1 FAD901      0.0000 
     17 C6A       -29.5040  -22.7480   -0.3080 C.ar      1 FAD901      0.0000 
     18 N6A       -28.4840  -23.6000   -0.3150 N.pl3     1 FAD901      0.0000 
     19 N1A       -30.1140  -22.4340    0.8930 N.ar      1 FAD901      0.0000 
     20 C2A       -30.9940  -21.3690    0.9660 C.ar      1 FAD901      0.0000 
     21 N3A       -31.2680  -20.6200   -0.1660 N.ar      1 FAD901      0.0000 
     22 C4A       -30.6720  -20.9210   -1.3490 C.ar      1 FAD901      0.0000 
     23 N1        -37.4340  -14.6800  -16.5390 N.2       1 FAD901      0.0000 
     24 C2        -38.4870  -14.1900  -17.3020 C.2       1 FAD901      0.0000 
     25 O2        -39.5650  -14.7920  -17.3440 O.2       1 FAD901      0.0000 
     26 N3        -38.3280  -13.0200  -18.0240 N.am      1 FAD901      0.0000 
     27 C4        -37.1250  -12.3360  -17.9860 C.2       1 FAD901      0.0000 
     28 O4        -37.0020  -11.2950  -18.6360 O.2       1 FAD901      0.0000 
     29 C4X       -36.0630  -12.8260  -17.2220 C.2       1 FAD901      0.0000 
     30 N5        -34.8580  -12.1440  -17.1810 N.2       1 FAD901      0.0000 
     31 C5X       -33.8040  -12.6230  -16.4220 C.ar      1 FAD901      0.0000 
     32 C6        -32.5990  -11.9220  -16.3960 C.ar      1 FAD901      0.0000 
     33 C7        -31.5280  -12.3950  -15.6360 C.ar      1 FAD901      0.0000 
     34 C7M       -30.2420  -11.6160  -15.6260 C.3       1 FAD901      0.0000 
     35 C8        -31.6680  -13.5770  -14.8990 C.ar      1 FAD901      0.0000 
     36 C8M       -30.5410  -14.1190  -14.0670 C.3       1 FAD901      0.0000 
     37 C9        -32.8780  -14.2740  -14.9290 C.ar      1 FAD901      0.0000 
     38 C9A       -33.9540  -13.8040  -15.6870 C.ar      1 FAD901      0.0000 
     39 N10       -35.1640  -14.4920  -15.7190 N.pl3     1 FAD901      0.0000 
     40 C10       -36.2200  -14.0100  -16.4920 C.2       1 FAD901      0.0000 
     41 C1'       -35.3210  -15.7710  -14.9410 C.3       1 FAD901      0.0000 
     42 C2'       -36.0380  -15.5840  -13.6090 C.3       1 FAD901      0.0000 
     43 O2'       -35.3350  -14.6460  -12.8230 O.3       1 FAD901      0.0000 
     44 C3'       -36.1120  -16.9210  -12.8740 C.3       1 FAD901      0.0000 
     45 O3'       -36.6330  -17.9150  -13.7320 O.3       1 FAD901      0.0000 
     46 C4'       -36.9630  -16.8650  -11.6100 C.3       1 FAD901      0.0000 
     47 O4'       -36.4680  -15.8690  -10.7430 O.3       1 FAD901      0.0000 
     48 C5'       -36.9170  -18.2200  -10.9160 C.3       1 FAD901      0.0000 
     49 O5'       -37.2840  -18.1140   -9.5630 O.3       1 FAD901      0.0000 
     50 P         -36.6380  -19.1330   -8.5060 P.3       1 FAD901      0.0000 
     51 O1P       -37.1430  -18.8310   -7.1110 O.co2     1 FAD901      0.0000 
     52 O2P       -36.9010  -20.5730   -8.8930 O.co2     1 FAD901      0.0000 
     53 O3P       -35.0640  -18.8170   -8.6010 O.3       1 FAD901      0.0000 
     54 H         -32.8230  -19.1319   -6.4037 H         1 FAD901      0.0000 
     55 H         -34.2268  -19.8828   -5.6256 H         1 FAD901      0.0000 
     56 H         -33.9972  -17.9228   -3.9308 H         1 FAD901      0.0000 
     57 H         -31.7639  -17.4485   -5.5887 H         1 FAD901      0.0000 
     58 H         -30.2959  -18.7330   -4.5190 H         1 FAD901      0.0000 
     59 H         -31.8696  -18.6572   -2.0126 H         1 FAD901      0.0000 
     60 H         -29.8102  -20.8842   -4.3683 H         1 FAD901      0.0000 
     61 H         -28.3482  -24.1307    0.5216 H         1 FAD901      0.0000 
     62 H         -27.9444  -23.6334   -1.1562 H         1 FAD901      0.0000 
     63 H         -31.4453  -21.1329    1.8613 H         1 FAD901      0.0000 
     64 H         -39.1085  -12.6562  -18.5925 H         1 FAD901      0.0000 
     65 H         -32.4983  -11.0541  -16.9379 H         1 FAD901      0.0000 
     66 H         -32.9789  -15.1448  -14.3861 H         1 FAD901      0.0000 
     67 H         -34.3273  -16.2087  -14.7493 H         1 FAD901      0.0000 
     68 H         -35.8830  -16.5020  -15.5455 H         1 FAD901      0.0000 
     69 H         -37.0455  -15.2594  -13.8140 H         1 FAD901      0.0000 
     70 H         -35.0918  -17.1876  -12.5696 H         1 FAD901      0.0000 
     71 H         -37.9827  -16.6738  -11.9024 H         1 FAD901      0.0000 
     72 H         -35.8924  -18.6183  -11.0381 H         1 FAD901      0.0000 
     73 H         -37.5864  -18.8998  -11.4755 H         1 FAD901      0.0000 
     74 H         -29.5505  -12.0481  -15.0471 H         1 FAD901      0.0000 
     75 H         -29.8490  -11.5361  -16.5421 H         1 FAD901      0.0000 
     76 H         -30.3735  -10.6865  -15.2814 H         1 FAD901      0.0000 
     77 H         -29.7330  -14.3189  -14.6212 H         1 FAD901      0.0000 
     78 H         -30.2579  -13.4723  -13.3587 H         1 FAD901      0.0000 
     79 H         -30.7961  -14.9678  -13.6039 H         1 FAD901      0.0000 
     80 H         -32.6634  -16.5088   -3.0530 H         1 FAD901      0.0000 
     81 H         -30.8294  -16.6348   -2.6796 H         1 FAD901      0.0000 
     82 H         -35.5953  -14.8521  -11.8797 H         1 FAD901      0.0000 
     83 H         -36.2656  -18.7769  -13.3825 H         1 FAD901      0.0000 
     84 H         -36.2295  -16.3538   -9.9015 H         1 FAD901      0.0000 
@<TRIPOS>BOND
     1    2    1 ar   
     2    3    1 ar   
     3    4    1 1    
     4   53    1 1    
     5    5    4 1    
     6    6    5 1    
     7   54    5 1    
     8   55    5 1    
     9    7    6 1    
    10    8    6 1    
    11   56    6 1    
    12   12    7 1    
    13    9    8 1    
    14   10    8 1    
    15   57    8 1    
    16   80    9 1    
    17   11   10 1    
    18   12   10 1    
    19   58   10 1    
    20   81   11 1    
    21   13   12 1    
    22   59   12 1    
    23   14   13 1    
    24   22   13 1    
    25   15   14 2    
    26   60   14 1    
    27   16   15 1    
    28   17   16 ar   
    29   22   16 ar   
    30   18   17 1    
    31   19   17 ar   
    32   61   18 1    
    33   62   18 1    
    34   20   19 ar   
    35   21   20 ar   
    36   63   20 1    
    37   22   21 ar   
    38   24   23 1    
    39   40   23 2    
    40   25   24 2    
    41   26   24 am   
    42   27   26 am   
    43   64   26 1    
    44   28   27 2    
    45   29   27 1    
    46   30   29 2    
    47   40   29 1    
    48   31   30 1    
    49   32   31 ar   
    50   38   31 ar   
    51   33   32 ar   
    52   65   32 1    
    53   34   33 1    
    54   35   33 ar   
    55   74   34 1    
    56   75   34 1    
    57   76   34 1    
    58   36   35 1    
    59   37   35 ar   
    60   77   36 1    
    61   78   36 1    
    62   79   36 1    
    63   38   37 ar   
    64   66   37 1    
    65   39   38 1    
    66   40   39 1    
    67   41   39 1    
    68   42   41 1    
    69   67   41 1    
    70   68   41 1    
    71   43   42 1    
    72   44   42 1    
    73   69   42 1    
    74   82   43 1    
    75   45   44 1    
    76   46   44 1    
    77   70   44 1    
    78   83   45 1    
    79   47   46 1    
    80   48   46 1    
    81   71   46 1    
    82   84   47 1    
    83   49   48 1    
    84   72   48 1    
    85   73   48 1    
    86   50   49 1    
    87   51   50 ar   
    88   52   50 ar   
    89   53   50 1    
@<TRIPOS>SUBSTRUCTURE
     1 FAD901      1 GROUP   
@<TRIPOS>SET

