#    Name: 1l4g_NCN_2_INTS_M
#    Modification time : Mon Apr  7 13:55:47 2014

@<TRIPOS>MOLECULE
1l4g_NCN_2_INTS_M
   56     0     9     0     0
SMALL
NO_CHARGES


@<TRIPOS>ATOM
      1 N          58.1840   36.7930    4.8960 N.am      2 SEC2        0.0000 
      2 N          59.0830   38.1460    4.9380 N.am      8 SEL2        0.0000 
      3 N          57.2850   35.4400    4.8540 N.am      5 SEP2        0.0000 
      4 N          58.1615   37.9910    4.0430 N.am      2 SEC2        0.0000 
      5 N          57.2400   37.8360    3.1480 N.am      5 SEP2        0.0000 
      6 N          58.5740   41.5695    5.1225 N.am      2 SEC2        0.0000 
      7 N          59.5240   40.5410    4.9600 N.am      8 SEL2        0.0000 
      8 N          57.6240   42.5980    5.2850 N.am      5 SEP2        0.0000 
      9 N          61.0065   37.9865    7.0605 N.am      2 SEC2        0.0000 
     10 N          60.5380   39.1180    6.8170 N.am      8 SEL2        0.0000 
     11 N          61.4750   36.8550    7.3040 N.am      5 SEP2        0.0000 
     12 N          57.7930   41.0990    5.9750 N.am      2 SEC2        0.0000 
     13 N          57.9620   39.6000    6.6650 N.am      8 SEL2        0.0000 
     14 CA         56.4580   38.2075    6.1585 C.3       3 GLC5        0.0000 
     15 CA         57.4800   38.5780    7.5610 C.3       9 GLL5        0.0000 
     16 CA         55.4360   37.8370    4.7560 C.3       6 GLP5        0.0000 
     17 CA         58.0420   41.1165    8.1635 C.3       3 GLC5        0.0000 
     18 CA         57.4520   39.1020    8.8760 C.3       9 GLL5        0.0000 
     19 CA         58.6320   43.1310    7.4510 C.3       6 GLP5        0.0000 
     20 N          58.1150   36.9785   11.9075 N.am      2 SEC2        0.0000 
     21 N          57.6300   38.3290   11.2200 N.am      8 SEL2        0.0000 
     22 N          58.6000   35.6280   12.5950 N.am      5 SEP2        0.0000 
     23 CA         54.2460   37.3970    8.6635 C.3       3 GLC5        0.0000 
     24 CA         55.4160   38.6090   10.0260 C.3       9 GLL5        0.0000 
     25 CA         53.0760   36.1850    7.3010 C.3       6 GLP5        0.0000 
     26 CA         53.4800   39.0595   11.0550 C.3       3 GLC5        0.0000 
     27 CA         51.5440   39.5100   12.0840 C.3       6 GLP5        0.0000 
     28 N          54.7370   37.1645   11.2995 N.am      2 SEC2        0.0000 
     29 N          54.9750   38.5670   11.4080 N.am      8 SEL2        0.0000 
     30 N          54.4990   35.7620   11.1910 N.am      5 SEP2        0.0000 
     31 O          54.2810   39.9425   11.5870 O.2       1 ALC1        0.0000 
     32 O          54.9750   38.5670   11.4080 O.2       7 ALL1        0.0000 
     33 O          53.5870   41.3180   11.7660 O.2       4 ALP1        0.0000 
     34 CA         56.3115   42.2585    6.6165 C.3       3 GLC5        0.0000 
     35 CA         54.7240   40.8380    7.0130 C.3       9 GLL5        0.0000 
     36 CA         57.8990   43.6790    6.2200 C.3       6 GLP5        0.0000 
     37 CA         51.2730   41.6565    7.6940 C.3       3 GLC5        0.0000 
     38 CA         52.1070   39.8390    7.5800 C.3       9 GLL5        0.0000 
     39 CA         50.4390   43.4740    7.8080 C.3       6 GLP5        0.0000 
     40 CA         52.6200   41.4295    9.8635 C.3       3 GLC5        0.0000 
     41 CA         53.0960   39.7130    8.5380 C.3       9 GLL5        0.0000 
     42 CA         52.1440   43.1460   11.1890 C.3       6 GLP5        0.0000 
     43 CA         52.3200   39.6115   10.3110 C.3       3 GLC5        0.0000 
     44 N          49.0435   38.2545    6.4940 N.am      2 SEC2        0.0000 
     45 N          49.7980   39.5230    6.7820 N.am      8 SEL2        0.0000 
     46 N          48.2890   36.9860    6.2060 N.am      5 SEP2        0.0000 
     47 N          49.0245   39.9860    5.8865 N.am      2 SEC2        0.0000 
     48 N          48.2510   40.4490    4.9910 N.am      5 SEP2        0.0000 
     49 CA         55.2845   41.1543    5.0563 C.3       3 GLC5        0.0000 
     50 CA         53.6700   40.9270    6.0920 C.3       9 GLL5        0.0000 
     51 CA         56.3720   41.4260    3.5600 C.3       6 GLP5        0.0000 
     52 CA         52.0010   42.3287    6.3237 C.3       3 GLC5        0.0000 
     53 CA         51.0040   43.9630    6.4650 C.3       6 GLP5        0.0000 
     54 CA         54.3487   39.2546    5.5844 C.3       3 GLC5        0.0000 
     55 CA         52.3260   40.4620    6.2730 C.3       9 GLL5        0.0000 
     56 CA         52.8661   38.0584    7.5166 C.3       3 GLC5        0.0000 
@<TRIPOS>BOND
@<TRIPOS>SUBSTRUCTURE
     1 ALC1       31 GROUP        1 X    ALC  0     ROOT ALC X 1
     2 SEC2        1 GROUP        1 X    SEC  0     **** SEC X 2
     3 GLC5       14 GROUP        1 X    GLC  0     **** GLC X 6
     4 ALP1       33 GROUP        1 Y    ALP  0     ROOT ALP Y 8
     5 SEP2        3 GROUP        1 Y    SEP  0     **** SEP Y 9
     6 GLP5       16 GROUP        1 Y    GLP  0     **** GLP Y 13
     7 ALL1       32 GROUP        1 Z    ALL  0     ROOT ALL Z 15
     8 SEL2        2 GROUP        1 Z    SEL  0     **** SEL Z 16
     9 GLL5       15 GROUP        1 Z    GLL  0     **** GLL Z 20
@<TRIPOS>SET

