#    Name: 1l4g_NCN_2_ligand
#    Modification time : Mon Apr  7 13:55:47 2014

@<TRIPOS>MOLECULE
1l4g_NCN_2_ligand
   34    35     1     0     0
SMALL
NO_CHARGES


@<TRIPOS>ATOM
      1 P          59.2710   39.3370    5.8100 P.3       1 NCN991      0.0000 
      2 O1P        59.0830   38.1460    4.9380 O.co2     1 NCN991      0.0000 
      3 O2P        59.5240   40.5410    4.9600 O.co2     1 NCN991      0.0000 
      4 O3P        60.5380   39.1180    6.8170 O.co2     1 NCN991      0.0000 
      5 O5'        57.9620   39.6000    6.6650 O.3       1 NCN991      0.0000 
      6 C5'        57.4800   38.5780    7.5610 C.3       1 NCN991      0.0000 
      7 C4'        57.4520   39.1020    8.8760 C.3       1 NCN991      0.0000 
      8 O4'        56.6410   40.3130    8.9330 O.3       1 NCN991      0.0000 
      9 C3'        56.9170   38.1940    9.9620 C.3       1 NCN991      0.0000 
     10 O3'        57.6300   38.3290   11.2200 O.3       1 NCN991      0.0000 
     11 C2'        55.4160   38.6090   10.0260 C.3       1 NCN991      0.0000 
     12 O2'        54.9750   38.5670   11.4080 O.3       1 NCN991      0.0000 
     13 C1'        55.3530   40.0100    9.3760 C.3       1 NCN991      0.0000 
     14 N1         54.3570   40.1970    8.2500 N.pl3     1 NCN991      0.0000 
     15 C6         54.7240   40.8380    7.0130 C.ar      1 NCN991      0.0000 
     16 C5         53.6700   40.9270    6.0920 C.ar      1 NCN991      0.0000 
     17 C4         52.3260   40.4620    6.2730 C.ar      1 NCN991      0.0000 
     18 C3         52.1070   39.8390    7.5800 C.ar      1 NCN991      0.0000 
     19 C2         53.0960   39.7130    8.5380 C.ar      1 NCN991      0.0000 
     20 C7         50.6490   39.4030    7.6330 C.2       1 NCN991      0.0000 
     21 O7         49.7980   39.5230    6.7820 O.co2     1 NCN991      0.0000 
     22 O8         50.4300   38.8380    8.8130 O.co2     1 NCN991      0.0000 
     23 H          58.1365   37.6941    7.5054 H         1 NCN991      0.0000 
     24 H          56.4745   38.2520    7.2477 H         1 NCN991      0.0000 
     25 H          58.4772   39.3983    9.1982 H         1 NCN991      0.0000 
     26 H          56.9359   37.1851    9.5749 H         1 NCN991      0.0000 
     27 H          54.8822   37.9220    9.4012 H         1 NCN991      0.0000 
     28 H          55.0805   40.7153   10.1908 H         1 NCN991      0.0000 
     29 H          55.6238   41.1712    6.8507 H         1 NCN991      0.0000 
     30 H          53.8796   41.3893    5.1505 H         1 NCN991      0.0000 
     31 H          51.6318   40.5430    5.6167 H         1 NCN991      0.0000 
     32 H          52.8979   39.2724    9.4370 H         1 NCN991      0.0000 
     33 H          56.9269   38.5609   11.8923 H         1 NCN991      0.0000 
     34 H          54.5891   39.4726   11.5840 H         1 NCN991      0.0000 
@<TRIPOS>BOND
     1    2    1 ar   
     2    3    1 1    
     3    4    1 ar   
     4    5    1 1    
     5    6    5 1    
     6    7    6 1    
     7   23    6 1    
     8   24    6 1    
     9    8    7 1    
    10    9    7 1    
    11   25    7 1    
    12   13    8 1    
    13   10    9 1    
    14   11    9 1    
    15   26    9 1    
    16   33   10 1    
    17   12   11 1    
    18   13   11 1    
    19   27   11 1    
    20   34   12 1    
    21   14   13 1    
    22   28   13 1    
    23   15   14 ar   
    24   19   14 ar   
    25   16   15 ar   
    26   29   15 1    
    27   17   16 ar   
    28   30   16 1    
    29   18   17 ar   
    30   31   17 1    
    31   19   18 ar   
    32   20   18 1    
    33   32   19 1    
    34   21   20 ar   
    35   22   20 ar   
@<TRIPOS>SUBSTRUCTURE
     1 NCN991      1 GROUP   
@<TRIPOS>SET

