#    Name: 2IIB_1_CAVITY_N1_6.mol2
#    Modification time : Mon Mar 10 19:32:55 2014

@<TRIPOS>MOLECULE
2IIB_1_CAVITY_N1_6.mol2
  109     0     6     0     0
SMALL
NO_CHARGES


@<TRIPOS>ATOM
      1 CA         11.7479   -5.4442   -1.1009 C.3       5 GLY6        0.0000 
      2 N          11.8678    2.7126   -4.5940 N.2       2 ALA2        0.0000 
      3 N          11.1092    1.6766   -3.8187 N.2       2 ALA2        0.0000 
      4 OG          9.8269    2.3991   -4.1078 O.2       1 SER1        0.0000 
      5 OG         10.3506    0.6406   -3.0433 O.2       1 SER1        0.0000 
      6 CA         10.8743   -1.1180   -1.9788 C.3       5 GLY6        0.0000 
      7 CA         13.2041   -5.3578    0.4393 C.3       5 GLY6        0.0000 
      8 OG         11.9218   -4.6352    0.1502 O.2       1 SER1        0.0000 
      9 O          12.4455   -6.3938    1.2146 O.2       2 ALA2        0.0000 
     10 CA         11.1632   -5.6712    0.9255 C.3       5 GLY6        0.0000 
     11 CZ         12.0417    3.5216   -3.3429 C.ar      4 PHE5        0.0000 
     12 CZ         10.7593    4.2442   -3.6320 C.ar      4 PHE5        0.0000 
     13 N          12.5654    1.7631   -2.2785 N.2       2 ALA2        0.0000 
     14 N          11.2831    2.4856   -2.5676 N.2       2 ALA2        0.0000 
     15 DU         10.0007    3.2082   -2.8567 H         6 CUB7        0.0000 
     16 N           8.7184    3.9308   -3.1458 N.2       2 ALA2        0.0000 
     17 CA         11.8068    0.7270   -1.5031 C.3       5 GLY6        0.0000 
     18 DU         10.5245    1.4496   -1.7922 H         6 CUB7        0.0000 
     19 OG          9.2421    2.1722   -2.0813 O.2       1 SER1        0.0000 
     20 N           7.9598    2.8947   -2.3704 N.2       2 ALA2        0.0000 
     21 N          11.0482   -0.3090   -0.7277 N.2       2 ALA2        0.0000 
     22 N           9.7659    0.4136   -1.0168 N.2       2 ALA2        0.0000 
     23 N           8.4835    1.1362   -1.3059 N.2       2 ALA2        0.0000 
     24 CA          7.2012    1.8587   -1.5951 C.3       5 GLY6        0.0000 
     25 N           5.9189    2.5813   -1.8842 N.2       2 ALA2        0.0000 
     26 OG         14.1365   -3.5127    0.9150 O.2       1 SER1        0.0000 
     27 OG         11.5719   -2.0676    0.3368 O.2       1 SER1        0.0000 
     28 CA         14.6602   -5.2713    1.9795 C.3       5 GLY6        0.0000 
     29 CA         13.3779   -4.5487    1.6903 C.3       5 GLY6        0.0000 
     30 OG         12.0956   -3.8261    1.4012 O.2       1 SER1        0.0000 
     31 N          10.8133   -3.1036    1.1121 N.2       2 ALA2        0.0000 
     32 O          12.6193   -5.5847    2.4657 O.2       2 ALA2        0.0000 
     33 CA         11.3370   -4.8622    2.1766 C.3       5 GLY6        0.0000 
     34 CA         10.0547   -4.1396    1.8875 C.3       5 GLY6        0.0000 
     35 CA         11.8607   -6.6207    3.2411 C.3       5 GLY6        0.0000 
     36 CA         10.5784   -5.8982    2.9520 C.3       5 GLY6        0.0000 
     37 OG         12.2155    4.3307   -2.0918 O.2       1 SER1        0.0000 
     38 DU         10.9332    5.0533   -2.3810 H         6 CUB7        0.0000 
     39 OG         12.7392    2.5721   -1.0274 O.2       1 SER1        0.0000 
     40 OG         11.4569    3.2947   -1.3165 O.2       1 SER1        0.0000 
     41 DU         10.1746    4.0172   -1.6056 H         6 CUB7        0.0000 
     42 OG         11.9806    1.5361   -0.2520 O.2       1 SER1        0.0000 
     43 DU         10.6983    2.2587   -0.5411 H         6 CUB7        0.0000 
     44 DU          9.4160    2.9812   -0.8302 H         6 CUB7        0.0000 
     45 DU          8.1337    3.7038   -1.1193 H         6 CUB7        0.0000 
     46 DU          6.8514    4.4264   -1.4084 H         6 CUB7        0.0000 
     47 OG         12.5043   -0.2225    0.8125 O.2       1 SER1        0.0000 
     48 N          11.2220    0.5001    0.5234 N.2       2 ALA2        0.0000 
     49 N           9.9397    1.2226    0.2343 N.2       2 ALA2        0.0000 
     50 N           8.6574    1.9452   -0.0549 N.2       2 ALA2        0.0000 
     51 CA          7.3751    2.6678   -0.3440 C.3       5 GLY6        0.0000 
     52 CZ          6.0928    3.3903   -0.6331 C.ar      4 PHE5        0.0000 
     53 CA         14.3103   -2.7036    2.1661 C.3       5 GLY6        0.0000 
     54 CA         13.0280   -1.9811    1.8770 C.3       5 GLY6        0.0000 
     55 N          11.7457   -1.2585    1.5878 N.2       2 ALA2        0.0000 
     56 N          10.4634   -0.5359    1.2987 N.2       2 ALA2        0.0000 
     57 N           7.8988    0.9092    0.7205 N.2       2 ALA2        0.0000 
     58 CA          6.6165    1.6318    0.4314 C.3       5 GLY6        0.0000 
     59 CA          5.3342    2.3543    0.1423 C.3       5 GLY6        0.0000 
     60 NZ         13.5517   -3.7397    2.9414 N.2       3 LYS4        0.0000 
     61 DU         12.2694   -3.0171    2.6523 H         6 CUB7        0.0000 
     62 N          10.9871   -2.2945    2.3632 N.2       2 ALA2        0.0000 
     63 CA          5.8579    0.5957    1.2068 C.3       5 GLY6        0.0000 
     64 CA          4.5755    1.3183    0.9177 C.3       5 GLY6        0.0000 
     65 NZ         12.7931   -4.7757    3.7168 N.2       3 LYS4        0.0000 
     66 CA         11.5108   -4.0531    3.4277 C.3       5 GLY6        0.0000 
     67 CA         10.2285   -3.3305    3.1386 C.3       5 GLY6        0.0000 
     68 CA         10.7522   -5.0891    4.2031 C.3       5 GLY6        0.0000 
     69 OG         13.1479    6.1758   -1.6161 O.2       1 SER1        0.0000 
     70 OG         11.1070    5.8623   -1.1299 O.2       1 SER1        0.0000 
     71 OG         11.6307    4.1037   -0.0654 O.2       1 SER1        0.0000 
     72 DU         10.3484    4.8263   -0.3545 H         6 CUB7        0.0000 
     73 OG         12.1544    2.3451    0.9991 O.2       1 SER1        0.0000 
     74 OG         10.8721    3.0677    0.7100 O.2       1 SER1        0.0000 
     75 DU          9.5898    3.7903    0.4209 H         6 CUB7        0.0000 
     76 OG         11.3958    1.3091    1.7745 O.2       1 SER1        0.0000 
     77 O          10.1135    2.0317    1.4853 O.2       2 ALA2        0.0000 
     78 DU          8.8312    2.7543    1.1962 H         6 CUB7        0.0000 
     79 CZ          6.2666    4.1994    0.6180 C.ar      4 PHE5        0.0000 
     80 CA         13.2018   -1.1720    3.1280 C.3       5 GLY6        0.0000 
     81 OG         11.9195   -0.4495    2.8389 O.2       1 SER1        0.0000 
     82 N          10.6372    0.2731    2.5498 N.2       2 ALA2        0.0000 
     83 N           9.3549    0.9957    2.2607 N.2       2 ALA2        0.0000 
     84 N           8.0726    1.7182    1.9716 N.2       2 ALA2        0.0000 
     85 O           6.7903    2.4408    1.6825 O.2       2 ALA2        0.0000 
     86 DU          5.5080    3.1634    1.3934 H         6 CUB7        0.0000 
     87 NZ         13.7255   -2.9306    4.1925 N.2       3 LYS4        0.0000 
     88 CA         12.4432   -2.2080    3.9034 C.3       5 GLY6        0.0000 
     89 CA         11.1609   -1.4855    3.6143 C.3       5 GLY6        0.0000 
     90 O           9.8786   -0.7629    3.3252 O.2       2 ALA2        0.0000 
     91 O           8.5963   -0.0403    3.0361 O.2       2 ALA2        0.0000 
     92 O           7.3140    0.6822    2.7470 O.2       2 ALA2        0.0000 
     93 O           6.0317    1.4048    2.4579 O.2       2 ALA2        0.0000 
     94 O          12.9669   -3.9666    4.9679 O.2       2 ALA2        0.0000 
     95 CA         11.8045    4.9128    1.1857 C.3       5 GLY6        0.0000 
     96 CA         10.5222    5.6354    0.8966 C.3       5 GLY6        0.0000 
     97 O          11.0459    3.8768    1.9611 O.2       2 ALA2        0.0000 
     98 O           9.7636    4.5993    1.6719 O.2       2 ALA2        0.0000 
     99 O          11.5696    2.1182    3.0255 O.2       2 ALA2        0.0000 
    100 O           9.0050    3.5633    2.4473 O.2       2 ALA2        0.0000 
    101 DU          7.7227    4.2859    2.1582 H         6 CUB7        0.0000 
    102 O          10.8110    1.0822    3.8009 O.2       2 ALA2        0.0000 
    103 O           9.5287    1.8047    3.5118 O.2       2 ALA2        0.0000 
    104 O           8.2464    2.5273    3.2227 O.2       2 ALA2        0.0000 
    105 O           6.9641    3.2499    2.9336 O.2       2 ALA2        0.0000 
    106 O          11.3347   -0.6764    4.8654 O.2       2 ALA2        0.0000 
    107 O          10.0524    0.0462    4.5763 O.2       2 ALA2        0.0000 
    108 O           8.7701    0.7687    4.2872 O.2       2 ALA2        0.0000 
    109 O           9.9374    5.4084    2.9230 O.2       2 ALA2        0.0000 
@<TRIPOS>BOND
@<TRIPOS>SUBSTRUCTURE
     1 SER1        4 GROUP   
     2 ALA2        2 GROUP   
     3 LYS4       60 GROUP   
     4 PHE5       11 GROUP   
     5 GLY6        1 GROUP   
     6 CUB7       15 GROUP   
@<TRIPOS>SET

