#    Name: 2iib_C5P_1_INTS_M
#    Modification time : Tue Mar 25 18:15:39 2014

@<TRIPOS>MOLECULE
2iib_C5P_1_INTS_M
   55     0     9     0     0
SMALL
NO_CHARGES


@<TRIPOS>ATOM
      1 N          12.8060   -1.8365   -1.2855 N.am      2 SEC2        0.0000 
      2 N          11.6980   -1.1780   -1.0860 N.am      8 SEL2        0.0000 
      3 N          13.9140   -2.4950   -1.4850 N.am      5 SEP2        0.0000 
      4 N           9.3255   -0.8085    0.4205 N.am      2 SEC2        0.0000 
      5 N          10.2920    0.0480    0.7150 N.am      8 SEL2        0.0000 
      6 N           8.3590   -1.6650    0.1260 N.am      5 SEP2        0.0000 
      7 N          14.1175    0.2105   -0.0270 N.am      2 SEC2        0.0000 
      8 N          12.7790    0.7350    0.3600 N.am      8 SEL2        0.0000 
      9 N          15.4560   -0.3140   -0.4140 N.am      5 SEP2        0.0000 
     10 N          13.7620    0.9325    1.1750 N.am      2 SEC2        0.0000 
     11 N          14.7450    1.1300    1.9900 N.am      5 SEP2        0.0000 
     12 N          13.0840   -2.0175   -0.0575 N.am      2 SEC2        0.0000 
     13 N          12.2540   -1.5400    1.3700 N.am      8 SEL2        0.0000 
     14 CA         13.2210   -1.8795    5.3405 C.3       3 GLC5        0.0000 
     15 CA         12.3860   -2.6450    3.4250 C.3       9 GLL5        0.0000 
     16 CA         14.0560   -1.1140    7.2560 C.3       6 GLP5        0.0000 
     17 O          15.7795   -3.8155    3.9270 O.2       1 ALC1        0.0000 
     18 O          14.8570   -3.0050    3.9050 O.2       7 ALL1        0.0000 
     19 O          16.7020   -4.6260    3.9490 O.2       4 ALP1        0.0000 
     20 CA         14.9015   -4.9480    1.5280 C.3       3 GLC5        0.0000 
     21 CA         13.3720   -4.8140    3.0570 C.3       9 GLL5        0.0000 
     22 CA         16.4310   -5.0820   -0.0010 C.3       6 GLP5        0.0000 
     23 N          12.7425   -6.2640    5.3725 N.am      2 SEC2        0.0000 
     24 N          13.5220   -5.2930    4.3940 N.am      8 SEL2        0.0000 
     25 N          11.9630   -7.2350    6.3510 N.am      5 SEP2        0.0000 
     26 O          14.5865   -5.8700    4.5055 O.2       1 ALC1        0.0000 
     27 O          13.5220   -5.2930    4.3940 O.2       7 ALL1        0.0000 
     28 O          15.6510   -6.4470    4.6170 O.2       4 ALP1        0.0000 
     29 CA         10.7130   -3.9645    4.4250 C.3       3 GLC5        0.0000 
     30 CA         11.8820   -4.9180    2.9110 C.3       9 GLL5        0.0000 
     31 CA          9.5440   -3.0110    5.9390 C.3       6 GLP5        0.0000 
     32 CA          9.9795   -5.4540    2.8870 C.3       3 GLC5        0.0000 
     33 CA          8.0770   -5.9900    2.8630 C.3       6 GLP5        0.0000 
     34 N          10.7410   -8.4280    0.3265 N.am      2 SEC2        0.0000 
     35 N          11.5230   -7.1530   -0.0860 N.am      8 SEL2        0.0000 
     36 N           9.9590   -9.7030    0.7390 N.am      5 SEP2        0.0000 
     37 N          12.9340   -8.3120    2.5330 N.am      2 SEC2        0.0000 
     38 N          11.9080   -7.5120    2.1310 N.am      8 SEL2        0.0000 
     39 N          13.9600   -9.1120    2.9350 N.am      5 SEP2        0.0000 
     40 O          10.6640   -5.6395   -3.3990 O.2       1 ALC1        0.0000 
     41 O          11.1280   -6.6830   -2.3730 O.2       7 ALL1        0.0000 
     42 O          10.2000   -4.5960   -4.4250 O.2       4 ALP1        0.0000 
     43 O          10.7490   -7.8565   -3.0605 O.2       1 ALC1        0.0000 
     44 O          10.3700   -9.0300   -3.7480 O.2       4 ALP1        0.0000 
     45 CA         10.9132   -2.4928    4.5148 C.3       3 GLC5        0.0000 
     46 CA         14.1994   -1.3921    2.5694 C.3       3 GLC5        0.0000 
     47 CA         15.4020   -0.1210    2.0150 C.3       6 GLP5        0.0000 
     48 CA          9.9567   -3.5648   -0.5690 C.3       3 GLC5        0.0000 
     49 CA         11.4580   -4.4570    0.5020 C.3       9 GLL5        0.0000 
     50 CA          8.5450   -2.4530   -0.9830 C.3       6 GLP5        0.0000 
     51 CA          9.7748   -5.1988    0.6125 C.3       3 GLC5        0.0000 
     52 CA         11.2790   -4.8960   -0.8120 C.3       9 GLL5        0.0000 
     53 CA          8.1810   -5.7210    1.3800 C.3       6 GLP5        0.0000 
     54 CA         13.1062   -5.2788   -0.9745 C.3       3 GLC5        0.0000 
     55 CA         14.8440   -5.8810   -1.7940 C.3       6 GLP5        0.0000 
@<TRIPOS>BOND
@<TRIPOS>SUBSTRUCTURE
     1 ALC1       17 GROUP        1 X    ALC  0     ROOT ALC X 1
     2 SEC2        1 GROUP        1 X    SEC  0     **** SEC X 2
     3 GLC5       14 GROUP        1 X    GLC  0     **** GLC X 6
     4 ALP1       19 GROUP        1 Y    ALP  0     ROOT ALP Y 8
     5 SEP2        3 GROUP        1 Y    SEP  0     **** SEP Y 9
     6 GLP5       16 GROUP        1 Y    GLP  0     **** GLP Y 13
     7 ALL1       18 GROUP        1 Z    ALL  0     ROOT ALL Z 15
     8 SEL2        2 GROUP        1 Z    SEL  0     **** SEL Z 16
     9 GLL5       15 GROUP        1 Z    GLL  0     **** GLL Z 20
@<TRIPOS>SET

