#    Name: 2iib_C5P_1_ligand
#    Modification time : Tue Mar 25 18:15:39 2014

@<TRIPOS>MOLECULE
2iib_C5P_1_ligand
   33    34     1     0     0
SMALL
NO_CHARGES


@<TRIPOS>ATOM
      1 O3P        11.6980   -1.1780   -1.0860 O.co2     1 C5P1427     0.0000 
      2 P          11.7390   -0.4540    0.3280 P.3       1 C5P1427     0.0000 
      3 O1P        10.2920    0.0480    0.7150 O.co2     1 C5P1427     0.0000 
      4 O2P        12.7790    0.7350    0.3600 O.co2     1 C5P1427     0.0000 
      5 O5'        12.2540   -1.5400    1.3700 O.3       1 C5P1427     0.0000 
      6 C5'        12.1790   -1.3040    2.7560 C.3       1 C5P1427     0.0000 
      7 C4'        12.3860   -2.6450    3.4250 C.3       1 C5P1427     0.0000 
      8 O4'        11.3430   -3.6140    3.1650 O.3       1 C5P1427     0.0000 
      9 C3'        13.7110   -3.3520    3.1570 C.3       1 C5P1427     0.0000 
     10 O3'        14.8570   -3.0050    3.9050 O.3       1 C5P1427     0.0000 
     11 C2'        13.3720   -4.8140    3.0570 C.3       1 C5P1427     0.0000 
     12 O2'        13.5220   -5.2930    4.3940 O.3       1 C5P1427     0.0000 
     13 C1'        11.8820   -4.9180    2.9110 C.3       1 C5P1427     0.0000 
     14 N1         11.6780   -5.3370    1.5060 N.am      1 C5P1427     0.0000 
     15 C2         11.7120   -6.7140    1.1950 C.2       1 C5P1427     0.0000 
     16 N3         11.5230   -7.1530   -0.0860 N.2       1 C5P1427     0.0000 
     17 C4         11.3070   -6.2630   -1.0940 C.2       1 C5P1427     0.0000 
     18 C5         11.2790   -4.8960   -0.8120 C.2       1 C5P1427     0.0000 
     19 C6         11.4580   -4.4570    0.5020 C.2       1 C5P1427     0.0000 
     20 O2         11.9080   -7.5120    2.1310 O.2       1 C5P1427     0.0000 
     21 N4         11.1280   -6.6830   -2.3730 N.pl3     1 C5P1427     0.0000 
     22 H          11.2087   -0.9215    3.0591 H         1 C5P1427     0.0000 
     23 H          12.9559   -0.6294    3.1039 H         1 C5P1427     0.0000 
     24 H          12.3781   -2.4627    4.5472 H         1 C5P1427     0.0000 
     25 H          13.9142   -3.0718    2.0313 H         1 C5P1427     0.0000 
     26 H          13.8727   -5.3083    2.3707 H         1 C5P1427     0.0000 
     27 H          11.5264   -5.6509    3.5748 H         1 C5P1427     0.0000 
     28 H          11.1280   -4.2180   -1.5645 H         1 C5P1427     0.0000 
     29 H          11.4182   -3.4349    0.6916 H         1 C5P1427     0.0000 
     30 H          11.1956   -7.6689   -2.5259 H         1 C5P1427     0.0000 
     31 H          10.9444   -5.9692   -3.0489 H         1 C5P1427     0.0000 
     32 H          15.6140   -3.4757    3.4518 H         1 C5P1427     0.0000 
     33 H          14.0727   -6.1236    4.3110 H         1 C5P1427     0.0000 
@<TRIPOS>BOND
     1    2    1 ar   
     2    3    2 ar   
     3    4    2 ar   
     4    5    2 1    
     5    6    5 1    
     6    7    6 1    
     7   22    6 1    
     8   23    6 1    
     9    8    7 1    
    10    9    7 1    
    11   24    7 1    
    12   13    8 1    
    13   10    9 1    
    14   11    9 1    
    15   25    9 1    
    16   32   10 1    
    17   12   11 1    
    18   13   11 1    
    19   26   11 1    
    20   33   12 1    
    21   14   13 1    
    22   27   13 1    
    23   15   14 am   
    24   19   14 1    
    25   16   15 1    
    26   20   15 2    
    27   17   16 2    
    28   18   17 1    
    29   21   17 1    
    30   19   18 2    
    31   28   18 1    
    32   29   19 1    
    33   30   21 1    
    34   31   21 1    
@<TRIPOS>SUBSTRUCTURE
     1 C5P1427     1 GROUP   
@<TRIPOS>SET

