#    Name: 3qjg_FMN_5_INTS_M
#    Modification time : Tue Mar 25 09:51:14 2014

@<TRIPOS>MOLECULE
3qjg_FMN_5_INTS_M
   66     0     9     0     0
SMALL
NO_CHARGES


@<TRIPOS>ATOM
      1 N          67.2845  129.2125   39.7585 N.am      2 SEC2        0.0000 
      2 N          67.4120  128.2070   38.6820 N.am      8 SEL2        0.0000 
      3 N          67.1570  130.2180   40.8350 N.am      5 SEP2        0.0000 
      4 O          69.4935  126.4820   39.2230 O.2       1 ALC1        0.0000 
      5 O          68.4600  126.2760   38.3190 O.2       7 ALL1        0.0000 
      6 O          70.5270  126.6880   40.1270 O.2       4 ALP1        0.0000 
      7 CA         66.4320  122.2595   37.6890 C.3       3 GLC5        0.0000 
      8 CA         66.1210  122.9400   35.7440 C.3       9 GLL5        0.0000 
      9 CA         66.7430  121.5790   39.6340 C.3       6 GLP5        0.0000 
     10 CA         64.4105  119.6595   35.6490 C.3       3 GLC5        0.0000 
     11 CA         64.9080  119.9170   33.8040 C.3       9 GLL5        0.0000 
     12 CA         63.9130  119.4020   37.4940 C.3       6 GLP5        0.0000 
     13 CA         63.7240  118.5620   33.9900 C.3       3 GLC5        0.0000 
     14 CA         62.5400  117.2070   34.1760 C.3       6 GLP5        0.0000 
     15 CA         62.8070  121.0185   35.6200 C.3       3 GLC5        0.0000 
     16 CA         62.6370  121.6550   33.5960 C.3       9 GLL5        0.0000 
     17 CA         62.9770  120.3820   37.6440 C.3       6 GLP5        0.0000 
     18 CA         61.5905  120.3140   32.7610 C.3       3 GLC5        0.0000 
     19 CA         60.5440  118.9730   31.9260 C.3       6 GLP5        0.0000 
     20 CA         63.6590  127.7600   35.1470 C.3       3 GLC5        0.0000 
     21 CA         63.9970  126.1010   36.1900 C.3       9 GLL5        0.0000 
     22 CA         63.3210  129.4190   34.1040 C.3       6 GLP5        0.0000 
     23 CA         64.3625  126.1190   39.3200 C.3       3 GLC5        0.0000 
     24 CA         63.1950  126.0980   37.4870 C.3       9 GLL5        0.0000 
     25 CA         65.5300  126.1400   41.1530 C.3       6 GLP5        0.0000 
     26 O          63.7255  124.0430   38.3720 O.2       1 ALC1        0.0000 
     27 O          62.7910  124.7530   37.8240 O.2       7 ALL1        0.0000 
     28 O          64.6600  123.3330   38.9200 O.2       4 ALP1        0.0000 
     29 CA         62.6530  128.2120   35.7005 C.3       3 GLC5        0.0000 
     30 CA         61.9850  127.0050   37.2970 C.3       9 GLL5        0.0000 
     31 N          61.7875  129.0030   36.0620 N.am      2 SEC2        0.0000 
     32 N          62.4750  128.3220   37.1130 N.am      8 SEL2        0.0000 
     33 N          61.1000  129.6840   35.0110 N.am      5 SEP2        0.0000 
     34 O          61.3910  129.3450   37.5775 O.2       1 ALC1        0.0000 
     35 O          62.4750  128.3220   37.1130 O.2       7 ALL1        0.0000 
     36 O          60.3070  130.3680   38.0420 O.2       4 ALP1        0.0000 
     37 O          60.1455  129.1230   38.1490 O.2       1 ALC1        0.0000 
     38 O          59.9840  127.8780   38.2560 O.2       7 ALL1        0.0000 
     39 CA         63.5490  126.6100   40.4940 C.3       3 GLC5        0.0000 
     40 CA         61.5680  127.0800   39.8350 C.3       9 GLL5        0.0000 
     41 CA         61.9270  128.9535   40.2770 C.3       3 GLC5        0.0000 
     42 CA         62.2860  130.8270   40.7190 C.3       6 GLP5        0.0000 
     43 N          59.2640  126.7110   40.4685 N.am      2 SEC2        0.0000 
     44 N          60.6380  126.9820   40.8770 N.am      8 SEL2        0.0000 
     45 N          57.8900  126.4400   40.0600 N.am      5 SEP2        0.0000 
     46 N          60.4700  128.5630   41.4000 N.am      2 SEC2        0.0000 
     47 N          60.3020  130.1440   41.9230 N.am      5 SEP2        0.0000 
     48 N          60.1905  125.5020   43.8460 N.am      2 SEC2        0.0000 
     49 N          59.9500  126.8940   43.2640 N.am      8 SEL2        0.0000 
     50 N          60.4310  124.1100   44.4280 N.am      5 SEP2        0.0000 
     51 N          63.4520  127.8860   42.6685 N.am      2 SEC2        0.0000 
     52 N          62.1700  127.8460   42.7690 N.am      8 SEL2        0.0000 
     53 N          64.7340  127.9260   42.5680 N.am      5 SEP2        0.0000 
     54 N          61.2360  128.9950   42.3460 N.am      2 SEC2        0.0000 
     55 N          62.3550  128.2680   43.9840 N.am      2 SEC2        0.0000 
     56 N          62.5400  128.6900   45.1990 N.am      5 SEP2        0.0000 
     57 N          62.6835  124.4030   42.3630 N.am      2 SEC2        0.0000 
     58 N          61.7270  125.3410   42.6060 N.am      8 SEL2        0.0000 
     59 N          63.6400  123.4650   42.1200 N.am      5 SEP2        0.0000 
     60 N          61.0790  124.7255   43.5170 N.am      2 SEC2        0.0000 
     61 CA         66.3370  119.4024   35.0509 C.3       3 GLC5        0.0000 
     62 CA         66.0820  121.6980   35.1630 C.3       9 GLL5        0.0000 
     63 CA         67.4600  118.1030   35.7950 C.3       6 GLP5        0.0000 
     64 CA         59.9835  125.6252   39.8770 C.3       3 GLC5        0.0000 
     65 CA         60.9600  126.8890   38.4450 C.3       9 GLL5        0.0000 
     66 CA         58.7030  124.2660   40.6140 C.3       6 GLP5        0.0000 
@<TRIPOS>BOND
@<TRIPOS>SUBSTRUCTURE
     1 ALC1        4 GROUP        1 X    ALC  0     ROOT ALC X 1
     2 SEC2        1 GROUP        1 X    SEC  0     **** SEC X 2
     3 GLC5        7 GROUP        1 X    GLC  0     **** GLC X 6
     4 ALP1        6 GROUP        1 Y    ALP  0     ROOT ALP Y 8
     5 SEP2        3 GROUP        1 Y    SEP  0     **** SEP Y 9
     6 GLP5        9 GROUP        1 Y    GLP  0     **** GLP Y 13
     7 ALL1        5 GROUP        1 Z    ALL  0     ROOT ALL Z 15
     8 SEL2        2 GROUP        1 Z    SEL  0     **** SEL Z 16
     9 GLL5        8 GROUP        1 Z    GLL  0     **** GLL Z 20
@<TRIPOS>SET

