#    Name: 3qjg_FMN_5_ligand
#    Modification time : Tue Mar 25 09:51:15 2014

@<TRIPOS>MOLECULE
3qjg_FMN_5_ligand
   50    52     1     0     0
SMALL
NO_CHARGES


@<TRIPOS>ATOM
      1 N1         66.2630  126.6920   37.4990 N.2       1 FMN501      0.0000 
      2 C2         67.3890  127.1070   38.1840 C.2       1 FMN501      0.0000 
      3 O2         67.4120  128.2070   38.6820 O.2       1 FMN501      0.0000 
      4 N3         68.4600  126.2760   38.3190 N.am      1 FMN501      0.0000 
      5 C4         68.3990  125.0190   37.7420 C.2       1 FMN501      0.0000 
      6 O4         69.3630  124.2700   37.8300 O.2       1 FMN501      0.0000 
      7 C4A        67.3000  124.5970   37.0090 C.2       1 FMN501      0.0000 
      8 N5         67.2520  123.3350   36.4260 N.2       1 FMN501      0.0000 
      9 C5A        66.1210  122.9400   35.7440 C.ar      1 FMN501      0.0000 
     10 C6         66.0820  121.6980   35.1630 C.ar      1 FMN501      0.0000 
     11 C7         64.9580  121.2750   34.4560 C.ar      1 FMN501      0.0000 
     12 C7M        64.9080  119.9170   33.8040 C.3       1 FMN501      0.0000 
     13 C8         63.8540  122.1100   34.3630 C.ar      1 FMN501      0.0000 
     14 C8M        62.6370  121.6550   33.5960 C.3       1 FMN501      0.0000 
     15 C9         63.8910  123.3590   34.9570 C.ar      1 FMN501      0.0000 
     16 C9A        65.0250  123.8030   35.6360 C.ar      1 FMN501      0.0000 
     17 N10        65.0840  125.0650   36.2270 N.pl3     1 FMN501      0.0000 
     18 C10        66.2180  125.4490   36.9060 C.2       1 FMN501      0.0000 
     19 C1'        63.9970  126.1010   36.1900 C.3       1 FMN501      0.0000 
     20 C2'        63.1950  126.0980   37.4870 C.3       1 FMN501      0.0000 
     21 O2'        62.7910  124.7530   37.8240 O.3       1 FMN501      0.0000 
     22 C3'        61.9850  127.0050   37.2970 C.3       1 FMN501      0.0000 
     23 O3'        62.4750  128.3220   37.1130 O.3       1 FMN501      0.0000 
     24 C4'        60.9600  126.8890   38.4450 C.3       1 FMN501      0.0000 
     25 O4'        59.9840  127.8780   38.2560 O.3       1 FMN501      0.0000 
     26 C5'        61.5680  127.0800   39.8350 C.3       1 FMN501      0.0000 
     27 O5'        60.6380  126.9820   40.8770 O.3       1 FMN501      0.0000 
     28 P          61.1690  126.7420   42.4060 P.3       1 FMN501      0.0000 
     29 O1P        59.9500  126.8940   43.2640 O.co2     1 FMN501      0.0000 
     30 O2P        62.1700  127.8460   42.7690 O.co2     1 FMN501      0.0000 
     31 O3P        61.7270  125.3410   42.6060 O.co2     1 FMN501      0.0000 
     32 H          69.2966  126.5651   38.8340 H         1 FMN501      0.0000 
     33 H          66.8941  121.0587   35.2454 H         1 FMN501      0.0000 
     34 H          63.0622  123.9801   34.8988 H         1 FMN501      0.0000 
     35 H          63.3212  125.8991   35.3555 H         1 FMN501      0.0000 
     36 H          64.4345  127.0919   36.0467 H         1 FMN501      0.0000 
     37 H          63.8159  126.5259   38.2602 H         1 FMN501      0.0000 
     38 H          61.4833  126.6638   36.3728 H         1 FMN501      0.0000 
     39 H          60.5195  125.9005   38.3985 H         1 FMN501      0.0000 
     40 H          62.0841  128.0704   39.8285 H         1 FMN501      0.0000 
     41 H          62.3874  126.3278   39.9353 H         1 FMN501      0.0000 
     42 H          65.6340  119.8037   33.1257 H         1 FMN501      0.0000 
     43 H          65.0134  119.1802   34.4719 H         1 FMN501      0.0000 
     44 H          64.0397  119.7632   33.3325 H         1 FMN501      0.0000 
     45 H          62.8509  121.4674   32.6373 H         1 FMN501      0.0000 
     46 H          62.2485  120.8170   33.9790 H         1 FMN501      0.0000 
     47 H          61.9129  122.3446   33.6052 H         1 FMN501      0.0000 
     48 H          63.6285  124.2096   37.7678 H         1 FMN501      0.0000 
     49 H          61.9065  128.8945   37.7038 H         1 FMN501      0.0000 
     50 H          60.4875  128.7420   38.2580 H         1 FMN501      0.0000 
@<TRIPOS>BOND
     1    2    1 1    
     2   18    1 2    
     3    3    2 2    
     4    4    2 am   
     5    5    4 am   
     6   32    4 1    
     7    6    5 2    
     8    7    5 1    
     9    8    7 2    
    10   18    7 1    
    11    9    8 1    
    12   10    9 ar   
    13   16    9 ar   
    14   11   10 ar   
    15   33   10 1    
    16   12   11 1    
    17   13   11 ar   
    18   42   12 1    
    19   43   12 1    
    20   44   12 1    
    21   14   13 1    
    22   15   13 ar   
    23   45   14 1    
    24   46   14 1    
    25   47   14 1    
    26   16   15 ar   
    27   34   15 1    
    28   17   16 1    
    29   18   17 1    
    30   19   17 1    
    31   20   19 1    
    32   35   19 1    
    33   36   19 1    
    34   21   20 1    
    35   22   20 1    
    36   37   20 1    
    37   48   21 1    
    38   23   22 1    
    39   24   22 1    
    40   38   22 1    
    41   49   23 1    
    42   25   24 1    
    43   26   24 1    
    44   39   24 1    
    45   50   25 1    
    46   27   26 1    
    47   40   26 1    
    48   41   26 1    
    49   28   27 1    
    50   29   28 ar   
    51   30   28 ar   
    52   31   28 ar   
@<TRIPOS>SUBSTRUCTURE
     1 FMN501      1 GROUP   
@<TRIPOS>SET

