#    Name: 1ht5_FL2_1_INTS_M
#    Modification time : Tue Mar 25 05:50:54 2014

@<TRIPOS>MOLECULE
1ht5_FL2_1_INTS_M
   66     0     6     0     0
SMALL
NO_CHARGES


@<TRIPOS>ATOM
      1 CA         24.4530   34.8350  194.9290 C.3       2 GLC5        0.0000 
      2 CA         24.9860   35.2170  196.9370 C.3       6 GLL5        0.0000 
      3 CA         23.9200   34.4530  192.9210 C.3       4 GLP5        0.0000 
      4 CA         27.8840   37.3255  200.5845 C.3       2 GLC5        0.0000 
      5 CA         26.7720   36.4020  198.8920 C.3       6 GLL5        0.0000 
      6 CA         28.9960   38.2490  202.2770 C.3       4 GLP5        0.0000 
      7 CA         29.0000   34.7115  199.3170 C.3       2 GLC5        0.0000 
      8 CA         27.8270   34.1450  200.9220 C.3       6 GLL5        0.0000 
      9 CA         30.1730   35.2780  197.7120 C.3       4 GLP5        0.0000 
     10 CA         30.1085   33.1385  201.8205 C.3       2 GLC5        0.0000 
     11 CA         28.0470   33.4680  202.1900 C.3       6 GLL5        0.0000 
     12 CA         32.1700   32.8090  201.4510 C.3       4 GLP5        0.0000 
     13 CA         24.7620   34.1245  204.3565 C.3       2 GLC5        0.0000 
     14 CA         25.5840   33.3220  202.6070 C.3       6 GLL5        0.0000 
     15 CA         23.9400   34.9270  206.1060 C.3       4 GLP5        0.0000 
     16 CA         25.4875   33.6320  205.2535 C.3       2 GLC5        0.0000 
     17 CA         27.0350   32.3370  204.4010 C.3       6 GLL5        0.0000 
     18 CA         29.7525   31.3550  205.5185 C.3       2 GLC5        0.0000 
     19 CA         28.2100   32.8650  205.2590 C.3       6 GLL5        0.0000 
     20 CA         31.2950   29.8450  205.7780 C.3       4 GLP5        0.0000 
     21 CA         28.8525   33.5590  206.8550 C.3       2 GLC5        0.0000 
     22 CA         29.4950   34.2530  208.4510 C.3       4 GLP5        0.0000 
     23 N          25.8595   29.1090  203.4995 N.am      1 SEC2        0.0000 
     24 N          25.7390   30.4080  204.3560 N.am      5 SEL2        0.0000 
     25 N          25.9800   27.8100  202.6430 N.am      3 SEP2        0.0000 
     26 N          28.0585   28.8625  202.9120 N.am      1 SEC2        0.0000 
     27 N          27.8880   29.9620  203.6730 N.am      5 SEL2        0.0000 
     28 N          28.2290   27.7630  202.1510 N.am      3 SEP2        0.0000 
     29 N          26.9340   28.8860  203.1580 N.am      1 SEC2        0.0000 
     30 CA         23.9750   36.2725  200.6020 C.3       2 GLC5        0.0000 
     31 CA         24.0780   34.1830  201.0600 C.3       6 GLL5        0.0000 
     32 CA         23.8720   38.3620  200.1440 C.3       4 GLP5        0.0000 
     33 CA         22.3395   34.8435  200.1525 C.3       2 GLC5        0.0000 
     34 CA         20.6010   35.5040  199.2450 C.3       4 GLP5        0.0000 
     35 CA         22.6510   32.8565  201.0300 C.3       2 GLC5        0.0000 
     36 CA         21.2240   31.5300  201.0000 C.3       4 GLP5        0.0000 
     37 CA         30.2650   30.1215  204.5850 C.3       2 GLC5        0.0000 
     38 CA         29.2350   30.3980  203.3920 C.3       6 GLL5        0.0000 
     39 CA         29.8140   29.3590  202.2585 C.3       2 GLC5        0.0000 
     40 CA         30.3930   28.3200  201.1250 C.3       4 GLP5        0.0000 
     41 CA         28.5040   30.4525  201.6880 C.3       2 GLC5        0.0000 
     42 CA         27.7730   30.5070  199.9840 C.3       4 GLP5        0.0000 
     43 CA         30.6620   31.0450  202.9315 C.3       2 GLC5        0.0000 
     44 CA         32.0890   31.6920  202.4710 C.3       4 GLP5        0.0000 
     45 CA         25.6128   33.3708  196.6010 C.3       2 GLC5        0.0000 
     46 CA         25.2330   34.5160  198.1770 C.3       6 GLL5        0.0000 
     47 CA         26.1160   31.8750  195.6450 C.3       4 GLP5        0.0000 
     48 CA         26.9363   33.0962  198.7350 C.3       2 GLC5        0.0000 
     49 CA         28.1820   31.3730  198.7940 C.3       4 GLP5        0.0000 
     50 CA         25.1660   37.0623  199.5888 C.3       2 GLC5        0.0000 
     51 CA         26.1480   35.1230  199.1750 C.3       6 GLL5        0.0000 
     52 CA         24.9625   37.5670  198.6483 C.3       2 GLC5        0.0000 
     53 CA         26.4970   37.0740  197.6330 C.3       6 GLL5        0.0000 
     54 CA         28.3257   35.8481  198.0226 C.3       2 GLC5        0.0000 
     55 CA         27.5190   35.4438  202.2597 C.3       2 GLC5        0.0000 
     56 CA         27.9070   36.6060  203.8160 C.3       4 GLP5        0.0000 
     57 CA         27.6565   32.8272  199.7488 C.3       2 GLC5        0.0000 
     58 CA         27.6930   34.9348  203.2130 C.3       2 GLC5        0.0000 
     59 CA         27.6260   31.8853  201.2970 C.3       2 GLC5        0.0000 
     60 CA         26.6923   35.1273  202.9052 C.3       2 GLC5        0.0000 
     61 CA         24.3342   31.9063  201.8288 C.3       2 GLC5        0.0000 
     62 CA         23.1910   30.1640  201.6630 C.3       4 GLP5        0.0000 
     63 CA         26.6253   32.0778  200.9892 C.3       2 GLC5        0.0000 
     64 CA         27.7647   34.6035  204.3230 C.3       2 GLC5        0.0000 
     65 CA         26.3727   32.0310  206.0000 C.3       2 GLC5        0.0000 
     66 CA         25.1230   31.4610  207.1700 C.3       4 GLP5        0.0000 
@<TRIPOS>BOND
@<TRIPOS>SUBSTRUCTURE
     1 SEC2       23 GROUP        1 X    SEC  0     ROOT SEC X 2
     2 GLC5        1 GROUP        1 X    GLC  0     **** GLC X 6
     3 SEP2       25 GROUP        1 Y    SEP  0     ROOT SEP Y 9
     4 GLP5        3 GROUP        1 Y    GLP  0     **** GLP Y 13
     5 SEL2       24 GROUP        1 Z    SEL  0     ROOT SEL Z 16
     6 GLL5        2 GROUP        1 Z    GLL  0     **** GLL Z 20
@<TRIPOS>SET

