#    Name: 1ht5_FL2_1_ligand
#    Modification time : Tue Mar 25 05:50:54 2014

@<TRIPOS>MOLECULE
1ht5_FL2_1_ligand
   34    35     1     0     0
SMALL
NO_CHARGES


@<TRIPOS>ATOM
      1 C          24.9860   35.2170  196.9370 C.ar      1 FL21701     0.0000 
      2 C1         25.2330   34.5160  198.1770 C.ar      1 FL21701     0.0000 
      3 C2         26.1480   35.1230  199.1750 C.ar      1 FL21701     0.0000 
      4 C3         26.7720   36.4020  198.8920 C.ar      1 FL21701     0.0000 
      5 C4         26.4970   37.0740  197.6330 C.ar      1 FL21701     0.0000 
      6 C5         25.6090   36.4700  196.6720 C.ar      1 FL21701     0.0000 
      7 C6         26.4350   34.4180  200.4850 C.ar      1 FL21701     0.0000 
      8 C7         27.8270   34.1450  200.9220 C.ar      1 FL21701     0.0000 
      9 C8         28.0470   33.4680  202.1900 C.ar      1 FL21701     0.0000 
     10 C9         26.9110   33.0590  203.0300 C.ar      1 FL21701     0.0000 
     11 C10        25.5840   33.3220  202.6070 C.ar      1 FL21701     0.0000 
     12 C11        25.3710   33.9750  201.3820 C.ar      1 FL21701     0.0000 
     13 C12        27.0350   32.3370  204.4010 C.3       1 FL21701     0.0000 
     14 C13        28.2100   32.8650  205.2590 C.3       1 FL21701     0.0000 
     15 C14        26.9280   30.8150  204.1150 C.2       1 FL21701     0.0000 
     16 O          25.7390   30.4080  204.3560 O.2       1 FL21701     0.0000 
     17 O1         27.8880   29.9620  203.6730 O.3       1 FL21701     0.0000 
     18 F          24.0780   34.1830  201.0600 F         1 FL21701     0.0000 
     19 C16        29.2350   30.3980  203.3920 C.3       1 FL21701     0.0000 
     20 H          24.3574   34.8021  196.2506 H         1 FL21701     0.0000 
     21 H          24.8043   33.6390  198.3743 H         1 FL21701     0.0000 
     22 H          27.3918   36.8222  199.5629 H         1 FL21701     0.0000 
     23 H          26.9309   37.9642  197.4366 H         1 FL21701     0.0000 
     24 H          25.4286   36.9531  195.7907 H         1 FL21701     0.0000 
     25 H          28.5882   34.4261  200.3470 H         1 FL21701     0.0000 
     26 H          28.9867   33.2734  202.5034 H         1 FL21701     0.0000 
     27 H          24.7996   33.0390  203.1877 H         1 FL21701     0.0000 
     28 H          26.0749   32.6111  204.9391 H         1 FL21701     0.0000 
     29 H          29.0896   32.7439  204.7989 H         1 FL21701     0.0000 
     30 H          28.1153   33.8403  205.4584 H         1 FL21701     0.0000 
     31 H          28.2709   32.3908  206.1373 H         1 FL21701     0.0000 
     32 H          29.6770   30.7839  204.2018 H         1 FL21701     0.0000 
     33 H          29.8108   29.6444  203.0749 H         1 FL21701     0.0000 
     34 H          29.2570   31.1023  202.6824 H         1 FL21701     0.0000 
@<TRIPOS>BOND
     1    2    1 ar   
     2    6    1 ar   
     3   20    1 1    
     4    3    2 ar   
     5   21    2 1    
     6    4    3 ar   
     7    7    3 1    
     8    5    4 ar   
     9   22    4 1    
    10    6    5 ar   
    11   23    5 1    
    12   24    6 1    
    13    8    7 ar   
    14   12    7 ar   
    15    9    8 ar   
    16   25    8 1    
    17   10    9 ar   
    18   26    9 1    
    19   11   10 ar   
    20   13   10 1    
    21   12   11 ar   
    22   27   11 1    
    23   18   12 1    
    24   14   13 1    
    25   15   13 1    
    26   28   13 1    
    27   29   14 1    
    28   30   14 1    
    29   31   14 1    
    30   16   15 2    
    31   17   15 1    
    32   19   17 1    
    33   32   19 1    
    34   33   19 1    
    35   34   19 1    
@<TRIPOS>SUBSTRUCTURE
     1 FL21701     1 GROUP   
@<TRIPOS>SET

