#    Name: 3zhu_TD8_4_INTS_M
#    Modification time : Tue Mar 25 03:17:05 2014

@<TRIPOS>MOLECULE
3zhu_TD8_4_INTS_M
  104     0    15     0     0
SMALL
NO_CHARGES


@<TRIPOS>ATOM
      1 CA         14.2375   13.2795  -72.6705 C.3       5 GLC5        0.0000 
      2 CA         16.1560   12.4270  -72.0900 C.3      15 GLL5        0.0000 
      3 CA         12.3190   14.1320  -73.2510 C.3      10 GLP5        0.0000 
      4 N          18.4120   19.9840  -74.5965 N.am      2 SEC2        0.0000 
      5 N          17.9490   18.9700  -73.9040 N.am     12 SEL2        0.0000 
      6 N          18.8750   20.9980  -75.2890 N.am      7 SEP2        0.0000 
      7 CA         16.6255    9.1970  -71.4605 C.3       5 GLC5        0.0000 
      8 CA         16.2370   11.1760  -71.2350 C.3      15 GLL5        0.0000 
      9 CA         17.0140    7.2180  -71.6860 C.3      10 GLP5        0.0000 
     10 CA         16.4200   10.7920  -69.4440 C.3       5 GLC5        0.0000 
     11 CA         16.6030   10.4080  -67.6530 C.3      10 GLP5        0.0000 
     12 N          12.4875   12.2015  -72.0745 N.am      2 SEC2        0.0000 
     13 N          13.0240   11.6150  -70.6470 N.am     12 SEL2        0.0000 
     14 N          11.9510   12.7880  -73.5020 N.am      7 SEP2        0.0000 
     15 N          11.6555   11.7095  -70.7400 N.am      2 SEC2        0.0000 
     16 N          10.2870   11.8040  -70.8330 N.am      7 SEP2        0.0000 
     17 CA         15.4020    8.5600  -71.1610 C.3       5 GLC5        0.0000 
     18 CA         14.9650   10.3160  -71.2290 C.3      15 GLL5        0.0000 
     19 CA         15.8390    6.8040  -71.0930 C.3      10 GLP5        0.0000 
     20 CA         15.1165   10.0230  -69.3575 C.3       5 GLC5        0.0000 
     21 CA         15.2680    9.7300  -67.4860 C.3      10 GLP5        0.0000 
     22 CA         13.5895    9.0460  -71.1200 C.3       5 GLC5        0.0000 
     23 CA         12.2140    7.7760  -71.0110 C.3      10 GLP5        0.0000 
     24 N          12.5785   11.8280  -73.1195 N.am      2 SEC2        0.0000 
     25 N          13.2060   10.8680  -72.7370 N.am     12 SEL2        0.0000 
     26 N          13.4775   11.1390  -74.1470 N.am      2 SEC2        0.0000 
     27 N          13.7490   11.4100  -75.5570 N.am      7 SEP2        0.0000 
     28 Zn         24.2190   13.6565  -65.5925 Zn        4 ZIC7        0.0000 
     29 Zn         23.7930   14.4570  -66.2610 Zn       14 ZIL7        0.0000 
     30 Zn         24.6450   12.8560  -64.9240 Zn        9 ZIP7        0.0000 
     31 N          24.1330   15.8770  -65.8385 N.am      2 SEC2        0.0000 
     32 N          23.7930   14.4570  -66.2610 N.am     12 SEL2        0.0000 
     33 N          24.4730   17.2970  -65.4160 N.am      7 SEP2        0.0000 
     34 Zn         24.0790   12.2275  -65.5465 Zn        4 ZIC7        0.0000 
     35 Zn         23.5130   11.5990  -66.1690 Zn       14 ZIL7        0.0000 
     36 N          23.8370   10.4875  -65.0245 N.am      2 SEC2        0.0000 
     37 N          23.5130   11.5990  -66.1690 N.am     12 SEL2        0.0000 
     38 N          24.1610    9.3760  -63.8800 N.am      7 SEP2        0.0000 
     39 CA         16.3535   19.2360  -75.1320 C.3       5 GLC5        0.0000 
     40 CA         16.8990   19.0210  -73.0480 C.3      15 GLL5        0.0000 
     41 CA         15.8080   19.4510  -77.2160 C.3      10 GLP5        0.0000 
     42 CA         15.4200   19.1255  -74.1420 C.3       5 GLC5        0.0000 
     43 CA         16.2980   20.3300  -72.6180 C.3      15 GLL5        0.0000 
     44 CA         14.5420   17.9210  -75.6660 C.3      10 GLP5        0.0000 
     45 N          21.9030   17.2020  -66.5625 N.am      2 SEC2        0.0000 
     46 N          21.5250   15.7280  -66.4830 N.am     12 SEL2        0.0000 
     47 N          22.2810   18.6760  -66.6420 N.am      7 SEP2        0.0000 
     48 NZ         21.4385    9.5150  -67.4440 N.4       3 LYC4        0.0000 
     49 NZ         21.4750   11.0870  -67.5460 N.4      13 LYL4        0.0000 
     50 NZ         21.0520    7.3710  -66.1930 N.4       8 LYP4        0.0000 
     51 N          20.1010   11.0095  -67.6860 N.am      2 SEC2        0.0000 
     52 N          21.4750   11.0870  -67.5460 N.am     12 SEL2        0.0000 
     53 N          18.7270   10.9320  -67.8260 N.am      7 SEP2        0.0000 
     54 N          21.4385    9.5150  -67.4440 N.am      2 SEC2        0.0000 
     55 N          21.4020    7.9430  -67.3420 N.am      7 SEP2        0.0000 
     56 N          15.4790   18.1030  -71.2315 N.am      2 SEC2        0.0000 
     57 N          16.3720   17.8790  -72.5660 N.am     12 SEL2        0.0000 
     58 N          14.5860   18.3270  -69.8970 N.am      7 SEP2        0.0000 
     59 CA         19.3325   14.6745  -75.9635 C.3       5 GLC5        0.0000 
     60 CA         18.5980   15.2780  -74.2810 C.3      15 GLL5        0.0000 
     61 CA         20.0670   14.0710  -77.6460 C.3      10 GLP5        0.0000 
     62 CA         17.2310   15.4830  -75.4590 C.3       5 GLC5        0.0000 
     63 CA         15.8640   15.6880  -76.6370 C.3      10 GLP5        0.0000 
     64 NZ         21.0665    9.6225  -65.0650 N.4       3 LYC4        0.0000 
     65 NZ         21.2880   11.1340  -65.0100 N.4      13 LYL4        0.0000 
     66 N          21.0665    9.6225  -65.0650 N.am      2 SEC2        0.0000 
     67 N          21.2880   11.1340  -65.0100 N.am     12 SEL2        0.0000 
     68 N          20.8450    8.1110  -65.1200 N.am      7 SEP2        0.0000 
     69 N          22.1245   12.0240  -64.2350 N.am      2 SEC2        0.0000 
     70 N          22.9610   12.9140  -63.4600 N.am      7 SEP2        0.0000 
     71 CA         14.9235   17.5040  -72.2925 C.3       5 GLC5        0.0000 
     72 CA         16.8930   16.6710  -72.9080 C.3      15 GLL5        0.0000 
     73 CA         12.9540   18.3370  -71.6770 C.3      10 GLP5        0.0000 
     74 CA         16.9185   16.6120  -71.0755 C.3       5 GLC5        0.0000 
     75 CA         16.9440   16.5530  -69.2430 C.3      10 GLP5        0.0000 
     76 O          15.0895   15.6170  -71.7265 O.2       1 ALC1        0.0000 
     77 O          16.2560   15.5970  -72.4040 O.2      11 ALL1        0.0000 
     78 O          13.9230   15.6370  -71.0490 O.2       6 ALP1        0.0000 
     79 CA         22.5805   16.6155  -74.8820 C.3       5 GLC5        0.0000 
     80 CA         21.4580   15.6310  -73.2870 C.3      15 GLL5        0.0000 
     81 CA         23.7030   17.6000  -76.4770 C.3      10 GLP5        0.0000 
     82 CA         21.6235   16.6450  -71.7095 C.3       5 GLC5        0.0000 
     83 CA         21.7890   17.6590  -70.1320 C.3      10 GLP5        0.0000 
     84 CA         18.2030   16.4920  -71.5955 C.3       5 GLC5        0.0000 
     85 CA         17.9730   16.5880  -73.8020 C.3      15 GLL5        0.0000 
     86 CA         18.4330   16.3960  -69.3890 C.3      10 GLP5        0.0000 
     87 CA         23.2660   12.5400  -71.6905 C.3       5 GLC5        0.0000 
     88 CA         21.9480   13.7150  -70.6230 C.3      15 GLL5        0.0000 
     89 CA         24.5840   11.3650  -72.7580 C.3      10 GLP5        0.0000 
     90 CA         20.0080   15.4190  -69.3545 C.3       5 GLC5        0.0000 
     91 CA         21.5830   14.4420  -69.3200 C.3      15 GLL5        0.0000 
     92 CA         17.1420   18.6215  -75.7550 C.3       5 GLC5        0.0000 
     93 CA         18.4760   17.7920  -74.2940 C.3      15 GLL5        0.0000 
     94 CA         21.1947   15.9543  -71.1223 C.3       5 GLC5        0.0000 
     95 CA         20.7670   13.8050  -71.5390 C.3      15 GLL5        0.0000 
     96 CA         19.3383   15.2165  -70.6932 C.3       5 GLC5        0.0000 
     97 CA         20.4340   14.6940  -72.6860 C.3      15 GLL5        0.0000 
     98 CA         18.5138   19.5108  -72.0810 C.3       5 GLC5        0.0000 
     99 CA         20.4290   19.3460  -71.3290 C.3      10 GLP5        0.0000 
    100 CA         14.7763   19.0063  -72.2550 C.3       5 GLC5        0.0000 
    101 CA         19.3268   18.2680  -72.6885 C.3       5 GLC5        0.0000 
    102 CA         21.7773   15.8687  -70.0517 C.3       5 GLC5        0.0000 
    103 CA         23.8092   13.8442  -69.5178 C.3       5 GLC5        0.0000 
    104 CA         25.8530   13.6100  -69.0640 C.3      10 GLP5        0.0000 
@<TRIPOS>BOND
@<TRIPOS>SUBSTRUCTURE
     1 ALC1       76 GROUP        1 X    ALC  0     ROOT ALC X 1
     2 SEC2        4 GROUP        1 X    SEC  0     **** SEC X 2
     3 LYC4       48 GROUP        1 X    LYC  0     **** LYC X 4
     4 ZIC7       28 GROUP        1 X    ZIC  0     **** ZIC X 5
     5 GLC5        1 GROUP        1 X    GLC  0     **** GLC X 6
     6 ALP1       78 GROUP        1 Y    ALP  0     ROOT ALP Y 8
     7 SEP2        6 GROUP        1 Y    SEP  0     **** SEP Y 9
     8 LYP4       50 GROUP        1 Y    LYP  0     **** LYP Y 11
     9 ZIP7       30 GROUP        1 Y    ZIP  0     **** ZIP Y 12
    10 GLP5        3 GROUP        1 Y    GLP  0     **** GLP Y 13
    11 ALL1       77 GROUP        1 Z    ALL  0     ROOT ALL Z 15
    12 SEL2        5 GROUP        1 Z    SEL  0     **** SEL Z 16
    13 LYL4       49 GROUP        1 Z    LYL  0     **** LYL Z 18
    14 ZIL7       29 GROUP        1 Z    ZIL  0     **** ZIL Z 19
    15 GLL5        2 GROUP        1 Z    GLL  0     **** GLL Z 20
@<TRIPOS>SET

