#    Name: 3zhu_TD8_4_ligand
#    Modification time : Tue Mar 25 03:17:05 2014

@<TRIPOS>MOLECULE
3zhu_TD8_4_ligand
   57    58     1     0     0
SMALL
NO_CHARGES


@<TRIPOS>ATOM
      1 S1         19.3390   12.9550  -71.0790 S.3       1 TD82001     0.0000 
      2 C2         18.4210   13.5860  -72.4370 C.2       1 TD82001     0.0000 
      3 N3         19.1530   14.5010  -73.1510 N.2       1 TD82001     0.0000 
      4 C4         20.4340   14.6940  -72.6860 C.2       1 TD82001     0.0000 
      5 C5         20.7670   13.8050  -71.5390 C.2       1 TD82001     0.0000 
      6 C8         17.3770   12.6300  -72.9710 C.3       1 TD82001     0.0000 
      7 C9         16.1560   12.4270  -72.0900 C.3       1 TD82001     0.0000 
      8 O9         17.0950   12.7320  -74.2710 O.3       1 TD82001     0.0000 
      9 PA         22.3500   14.4750  -66.7060 P.3       1 TD82001     0.0000 
     10 PB         21.9890   11.6390  -66.2590 P.3       1 TD82001     0.0000 
     11 N1'        17.9490   18.9700  -73.9040 N.ar      1 TD82001     0.0000 
     12 C10        16.2370   11.1760  -71.2350 C.3       1 TD82001     0.0000 
     13 O11        13.0240   11.6150  -70.6470 O.co2     1 TD82001     0.0000 
     14 C12        14.9650   10.3160  -71.2290 C.3       1 TD82001     0.0000 
     15 O12        13.2060   10.8680  -72.7370 O.co2     1 TD82001     0.0000 
     16 C14        13.6420   10.9920  -71.5580 C.2       1 TD82001     0.0000 
     17 O1A        23.7930   14.4570  -66.2610 O.co2     1 TD82001     0.0000 
     18 O1B        23.5130   11.5990  -66.1690 O.co2     1 TD82001     0.0000 
     19 C2'        16.8990   19.0210  -73.0480 C.ar      1 TD82001     0.0000 
     20 C2A        16.2980   20.3300  -72.6180 C.3       1 TD82001     0.0000 
     21 O2A        21.5250   15.7280  -66.4830 O.co2     1 TD82001     0.0000 
     22 O2B        21.4750   11.0870  -67.5460 O.co2     1 TD82001     0.0000 
     23 N3'        16.3720   17.8790  -72.5660 N.ar      1 TD82001     0.0000 
     24 C35        18.5980   15.2780  -74.2810 C.3       1 TD82001     0.0000 
     25 O3A        21.5110   13.1940  -66.2430 O.3       1 TD82001     0.0000 
     26 O3B        21.2880   11.1340  -65.0100 O.co2     1 TD82001     0.0000 
     27 C4'        16.8930   16.6710  -72.9080 C.ar      1 TD82001     0.0000 
     28 N4'        16.2560   15.5970  -72.4040 N.pl3     1 TD82001     0.0000 
     29 C4A        21.4580   15.6310  -73.2870 C.3       1 TD82001     0.0000 
     30 C5'        17.9730   16.5880  -73.8020 C.ar      1 TD82001     0.0000 
     31 C5A        21.9480   13.7150  -70.6230 C.3       1 TD82001     0.0000 
     32 C5B        21.5830   14.4420  -69.3200 C.3       1 TD82001     0.0000 
     33 O5G        22.5100   14.1310  -68.2850 O.3       1 TD82001     0.0000 
     34 C6'        18.4760   17.7920  -74.2940 C.ar      1 TD82001     0.0000 
     35 H          17.9332   11.5663  -72.8424 H         1 TD82001     0.0000 
     36 H          15.2592   12.3713  -72.7263 H         1 TD82001     0.0000 
     37 H          16.0357   13.3040  -71.4352 H         1 TD82001     0.0000 
     38 H          16.4711   11.4629  -70.1923 H         1 TD82001     0.0000 
     39 H          17.0809   10.5512  -71.5840 H         1 TD82001     0.0000 
     40 H          14.8782    9.8295  -70.2229 H         1 TD82001     0.0000 
     41 H          15.1179    9.4630  -71.9399 H         1 TD82001     0.0000 
     42 H          17.8278   14.6970  -74.8020 H         1 TD82001     0.0000 
     43 H          19.3865   15.5149  -75.0051 H         1 TD82001     0.0000 
     44 H          15.7879   15.7327  -71.5308 H         1 TD82001     0.0000 
     45 H          16.3078   14.7594  -72.9478 H         1 TD82001     0.0000 
     46 H          22.8043   14.1992  -71.0642 H         1 TD82001     0.0000 
     47 H          22.1711   12.6848  -70.3966 H         1 TD82001     0.0000 
     48 H          20.5567   14.1444  -69.0542 H         1 TD82001     0.0000 
     49 H          21.5614   15.5206  -69.5406 H         1 TD82001     0.0000 
     50 H          19.2670   17.7591  -74.9686 H         1 TD82001     0.0000 
     51 H          16.9672   20.9120  -72.1560 H         1 TD82001     0.0000 
     52 H          15.9449   20.8499  -73.3958 H         1 TD82001     0.0000 
     53 H          15.5364   20.1984  -71.9834 H         1 TD82001     0.0000 
     54 H          22.3215   15.6101  -72.7831 H         1 TD82001     0.0000 
     55 H          21.6665   15.3940  -74.2359 H         1 TD82001     0.0000 
     56 H          21.1403   16.5792  -73.2848 H         1 TD82001     0.0000 
     57 H          17.9501   13.0248  -74.6990 H         1 TD82001     0.0000 
@<TRIPOS>BOND
     1    2    1 1    
     2    5    1 1    
     3    3    2 2    
     4    6    2 1    
     5    4    3 1    
     6   24    3 1    
     7    5    4 2    
     8   29    4 1    
     9   31    5 1    
    10    7    6 1    
    11    8    6 1    
    12   35    6 1    
    13   12    7 1    
    14   36    7 1    
    15   37    7 1    
    16   57    8 1    
    17   17    9 ar   
    18   21    9 ar   
    19   25    9 1    
    20   33    9 1    
    21   18   10 ar   
    22   22   10 ar   
    23   25   10 1    
    24   26   10 ar   
    25   19   11 ar   
    26   34   11 ar   
    27   14   12 1    
    28   38   12 1    
    29   39   12 1    
    30   16   13 ar   
    31   16   14 1    
    32   40   14 1    
    33   41   14 1    
    34   16   15 ar   
    35   20   19 1    
    36   23   19 ar   
    37   51   20 1    
    38   52   20 1    
    39   53   20 1    
    40   27   23 ar   
    41   30   24 1    
    42   42   24 1    
    43   43   24 1    
    44   28   27 1    
    45   30   27 ar   
    46   44   28 1    
    47   45   28 1    
    48   54   29 1    
    49   55   29 1    
    50   56   29 1    
    51   34   30 ar   
    52   32   31 1    
    53   46   31 1    
    54   47   31 1    
    55   33   32 1    
    56   48   32 1    
    57   49   32 1    
    58   50   34 1    
@<TRIPOS>SUBSTRUCTURE
     1 TD82001     1 GROUP   
@<TRIPOS>SET

