#    Name: 3ntz_3TZ_1_INTS_M
#    Modification time : Tue Mar 25 02:35:36 2014

@<TRIPOS>MOLECULE
3ntz_3TZ_1_INTS_M
   52     0    12     0     0
SMALL
NO_CHARGES


@<TRIPOS>ATOM
      1 NZ          6.0245   12.9075   25.6825 N.4       3 LYC4        0.0000 
      2 NZ          5.2020   11.8130   25.2320 N.4      11 LYL4        0.0000 
      3 NZ          6.6390   15.3110   26.1210 N.4       7 LYP4        0.0000 
      4 N           6.0245   12.9075   25.6825 N.am      2 SEC2        0.0000 
      5 N           5.2020   11.8130   25.2320 N.am     10 SEL2        0.0000 
      6 N           6.8470   14.0020   26.1330 N.am      6 SEP2        0.0000 
      7 O          -3.9970   17.0050   21.3965 O.2       1 ALC1        0.0000 
      8 O          -3.5840   17.6850   22.5600 O.2       9 ALL1        0.0000 
      9 O          -4.4100   16.3250   20.2330 O.2       5 ALP1        0.0000 
     10 CA          0.1260   10.9465   22.3035 C.3       4 GLC5        0.0000 
     11 CA          1.9110   10.1210   23.1060 C.3      12 GLL5        0.0000 
     12 CA         -1.6590   11.7720   21.5010 C.3       8 GLP5        0.0000 
     13 O          -3.4320   18.7555   20.0330 O.2       1 ALC1        0.0000 
     14 O          -3.0540   19.5190   21.1760 O.2       9 ALL1        0.0000 
     15 O          -3.8100   17.9920   18.8900 O.2       5 ALP1        0.0000 
     16 CA         -0.6695   15.3080   23.3945 C.3       4 GLC5        0.0000 
     17 CA         -1.5240   13.6660   24.6540 C.3      12 GLL5        0.0000 
     18 CA          0.1850   16.9500   22.1350 C.3       8 GLP5        0.0000 
     19 CA         -0.4845   12.3475   29.1510 C.3       4 GLC5        0.0000 
     20 CA         -1.2660   12.4870   27.2370 C.3      12 GLL5        0.0000 
     21 CA          0.2970   12.2080   31.0650 C.3       8 GLP5        0.0000 
     22 CA         -1.8255   11.1585   28.8220 C.3       4 GLC5        0.0000 
     23 CA         -2.3850    9.8300   30.4070 C.3       8 GLP5        0.0000 
     24 CA         -5.7740   14.7225   25.7555 C.3       4 GLC5        0.0000 
     25 CA         -4.0550   15.0030   26.6190 C.3      12 GLL5        0.0000 
     26 CA         -7.4930   14.4420   24.8920 C.3       8 GLP5        0.0000 
     27 CA         -0.8010   21.1845   25.1275 C.3       4 GLC5        0.0000 
     28 CA         -2.3290   19.9390   26.0380 C.3      12 GLL5        0.0000 
     29 CA          0.7270   22.4300   24.2170 C.3       8 GLP5        0.0000 
     30 CA         -1.0090   20.6715   27.3005 C.3       4 GLC5        0.0000 
     31 CA          0.3110   21.4040   28.5630 C.3       8 GLP5        0.0000 
     32 NZ          5.3025   13.8115   25.5965 N.4       3 LYC4        0.0000 
     33 NZ          3.7580   13.6210   25.0600 N.4      11 LYL4        0.0000 
     34 N           4.6315   14.7365   25.3465 N.am      2 SEC2        0.0000 
     35 N           3.7580   13.6210   25.0600 N.am     10 SEL2        0.0000 
     36 N           5.5050   15.8520   25.6330 N.am      6 SEP2        0.0000 
     37 N           5.3025   13.8115   25.5965 N.am      2 SEC2        0.0000 
     38 CA         -3.5110   21.1388   24.3732 C.3       4 GLC5        0.0000 
     39 CA         -2.7630   19.1180   24.6710 C.3      12 GLL5        0.0000 
     40 CA         -4.4760   22.7490   23.3920 C.3       8 GLP5        0.0000 
     41 CA         -1.3933   17.6997   23.4647 C.3       4 GLC5        0.0000 
     42 CA          3.7577   12.3038   23.1900 C.3       4 GLC5        0.0000 
     43 CA          3.0150   11.2330   25.2560 C.3      12 GLL5        0.0000 
     44 CA          4.4220   13.7150   21.8100 C.3       8 GLP5        0.0000 
     45 CA         -2.6478   18.5652   30.4000 C.3       4 GLC5        0.0000 
     46 CA         -2.5280   17.3540   29.0700 C.3      12 GLL5        0.0000 
     47 CA         -2.9350   19.1820   32.0620 C.3       8 GLP5        0.0000 
     48 CA         -1.8510   15.6275   30.0613 C.3       4 GLC5        0.0000 
     49 CA         -0.8960   14.4350   31.3760 C.3       8 GLP5        0.0000 
     50 CA         -1.3190   12.5333   23.1478 C.3       4 GLC5        0.0000 
     51 CA         -1.0252   19.9610   28.1465 C.3       4 GLC5        0.0000 
     52 CA         -2.5300   18.4930   27.0540 C.3      12 GLL5        0.0000 
@<TRIPOS>BOND
@<TRIPOS>SUBSTRUCTURE
     1 ALC1        7 GROUP        1 X    ALC  0     ROOT ALC X 1
     2 SEC2        4 GROUP        1 X    SEC  0     **** SEC X 2
     3 LYC4        1 GROUP        1 X    LYC  0     **** LYC X 4
     4 GLC5       10 GROUP        1 X    GLC  0     **** GLC X 6
     5 ALP1        9 GROUP        1 Y    ALP  0     ROOT ALP Y 8
     6 SEP2        6 GROUP        1 Y    SEP  0     **** SEP Y 9
     7 LYP4        3 GROUP        1 Y    LYP  0     **** LYP Y 11
     8 GLP5       12 GROUP        1 Y    GLP  0     **** GLP Y 13
     9 ALL1        8 GROUP        1 Z    ALL  0     ROOT ALL Z 15
    10 SEL2        5 GROUP        1 Z    SEL  0     **** SEL Z 16
    11 LYL4        2 GROUP        1 Z    LYL  0     **** LYL Z 18
    12 GLL5       11 GROUP        1 Z    GLL  0     **** GLL Z 20
@<TRIPOS>SET

