#    Name: 3ntz_3TZ_1_ligand
#    Modification time : Tue Mar 25 02:35:36 2014

@<TRIPOS>MOLECULE
3ntz_3TZ_1_ligand
   54    57     1     0     0
SMALL
NO_CHARGES


@<TRIPOS>ATOM
      1 C           4.0750   12.3550   25.2230 C.2       1 3TZ187      0.0000 
      2 N           1.6960   11.8360   25.4420 N.am      1 3TZ187      0.0000 
      3 O           5.2020   11.8130   25.2320 O.co2     1 3TZ187      0.0000 
      4 N1         -3.5840   17.6850   22.5600 N.am      1 3TZ187      0.0000 
      5 C2         -3.1400   18.9390   22.4310 C.2       1 3TZ187      0.0000 
      6 N3         -2.7630   19.7170   23.4370 N.2       1 3TZ187      0.0000 
      7 C4         -2.7630   19.1180   24.6710 C.2       1 3TZ187      0.0000 
      8 C5         -3.1800   17.7810   24.9180 C.2       1 3TZ187      0.0000 
      9 C6         -3.6790   17.1450   23.7850 C.2       1 3TZ187      0.0000 
     10 O6         -4.1910   15.9260   23.6900 O.2       1 3TZ187      0.0000 
     11 CA          3.0150   11.2330   25.2560 C.3       1 3TZ187      0.0000 
     12 CB          3.1720   10.5520   23.8840 C.3       1 3TZ187      0.0000 
     13 CD          2.1420    8.6380   22.8000 C.2       1 3TZ187      0.0000 
     14 CG          1.9110   10.1210   23.1060 C.3       1 3TZ187      0.0000 
     15 NAA        -3.0540   19.5190   21.1760 N.pl3     1 3TZ187      0.0000 
     16 OAD         1.0390   10.7680   27.3600 O.2       1 3TZ187      0.0000 
     17 CAH        -2.5280   17.3540   29.0700 C.ar      1 3TZ187      0.0000 
     18 CAI        -3.0840   16.2860   28.4230 C.ar      1 3TZ187      0.0000 
     19 CAJ        -1.5240   13.6660   24.6540 C.ar      1 3TZ187      0.0000 
     20 CAK        -2.3910   13.2190   26.9630 C.ar      1 3TZ187      0.0000 
     21 CAL        -0.4340   12.9230   24.9350 C.ar      1 3TZ187      0.0000 
     22 CAM        -1.2660   12.4870   27.2370 C.ar      1 3TZ187      0.0000 
     23 CAN        -2.1930   18.5430   28.4060 C.ar      1 3TZ187      0.0000 
     24 CAQ        -4.0550   15.0030   26.6190 C.3       1 3TZ187      0.0000 
     25 NAT        -3.5330   14.4920   25.4340 N.pl3     1 3TZ187      0.0000 
     26 SAV        -2.3290   19.9390   26.0380 S.3       1 3TZ187      0.0000 
     27 CAY         0.8940   11.5890   26.4370 C.2       1 3TZ187      0.0000 
     28 CBA        -2.4720   13.7980   25.6860 C.ar      1 3TZ187      0.0000 
     29 CBB        -0.3290   12.3710   26.2140 C.ar      1 3TZ187      0.0000 
     30 CBD        -3.3900   16.2860   27.0680 C.ar      1 3TZ187      0.0000 
     31 CBE        -2.5300   18.4930   27.0540 C.ar      1 3TZ187      0.0000 
     32 CBG        -3.0410   17.4350   26.3020 C.ar      1 3TZ187      0.0000 
     33 OE1         2.2090    7.8240   23.7910 O.co2     1 3TZ187      0.0000 
     34 OE2         2.3730    8.3850   21.5840 O.co2     1 3TZ187      0.0000 
     35 OXT         3.7580   13.6210   25.0600 O.co2     1 3TZ187      0.0000 
     36 H           1.4279   12.5234   24.6681 H         1 3TZ187      0.0000 
     37 H          -3.8537   17.1312   21.7214 H         1 3TZ187      0.0000 
     38 H           3.2799   10.5555   26.0128 H         1 3TZ187      0.0000 
     39 H           3.8269    9.6478   24.0142 H         1 3TZ187      0.0000 
     40 H           3.7743   11.2319   23.2219 H         1 3TZ187      0.0000 
     41 H           1.8489   10.6710   22.2016 H         1 3TZ187      0.0000 
     42 H           1.0581   10.2333   23.7258 H         1 3TZ187      0.0000 
     43 H          -3.3411   18.9481   20.4068 H         1 3TZ187      0.0000 
     44 H          -2.7123   20.4584   21.1479 H         1 3TZ187      0.0000 
     45 H          -2.3395   17.2972   30.0984 H         1 3TZ187      0.0000 
     46 H          -3.2957   15.4099   28.9746 H         1 3TZ187      0.0000 
     47 H          -1.6776   14.1131   23.7644 H         1 3TZ187      0.0000 
     48 H          -3.1323   13.3455   27.6324 H         1 3TZ187      0.0000 
     49 H           0.3039   12.7559   24.2501 H         1 3TZ187      0.0000 
     50 H          -1.1139   12.0490   28.1333 H         1 3TZ187      0.0000 
     51 H          -1.7778   19.3044   28.8383 H         1 3TZ187      0.0000 
     52 H          -3.9659   14.2744   27.4623 H         1 3TZ187      0.0000 
     53 H          -5.1502   15.2123   26.5362 H         1 3TZ187      0.0000 
     54 H          -3.9498   14.6650   24.5658 H         1 3TZ187      0.0000 
@<TRIPOS>BOND
     1    3    1 ar   
     2   11    1 1    
     3   35    1 ar   
     4   11    2 1    
     5   27    2 am   
     6   36    2 1    
     7    5    4 1    
     8    9    4 am   
     9   37    4 1    
    10    6    5 2    
    11   15    5 1    
    12    7    6 1    
    13    8    7 2    
    14   26    7 1    
    15    9    8 1    
    16   32    8 1    
    17   10    9 2    
    18   12   11 1    
    19   38   11 1    
    20   14   12 1    
    21   39   12 1    
    22   40   12 1    
    23   14   13 1    
    24   33   13 ar   
    25   34   13 ar   
    26   41   14 1    
    27   42   14 1    
    28   43   15 1    
    29   44   15 1    
    30   27   16 2    
    31   18   17 ar   
    32   23   17 ar   
    33   45   17 1    
    34   30   18 ar   
    35   46   18 1    
    36   21   19 ar   
    37   28   19 ar   
    38   47   19 1    
    39   22   20 ar   
    40   28   20 ar   
    41   48   20 1    
    42   29   21 ar   
    43   49   21 1    
    44   29   22 ar   
    45   50   22 1    
    46   31   23 ar   
    47   51   23 1    
    48   25   24 1    
    49   30   24 1    
    50   52   24 1    
    51   53   24 1    
    52   28   25 1    
    53   54   25 1    
    54   31   26 1    
    55   29   27 1    
    56   32   30 ar   
    57   32   31 ar   
@<TRIPOS>SUBSTRUCTURE
     1 3TZ187      1 GROUP   
@<TRIPOS>SET

