#    Name: 3i4l_ANP_1_INTS_M
#    Modification time : Tue Mar 25 15:52:27 2014

@<TRIPOS>MOLECULE
3i4l_ANP_1_INTS_M
   59     0     9     0     0
SMALL
NO_CHARGES


@<TRIPOS>ATOM
      1 N          41.0330    9.3905   29.0605 N.am      2 SEC2        0.0000 
      2 N          40.9120    8.8010   27.9450 N.am      8 SEL2        0.0000 
      3 N          41.1540    9.9800   30.1760 N.am      5 SEP2        0.0000 
      4 CA         43.5300    9.8435   25.2815 C.3       3 GLC5        0.0000 
      5 CA         44.7110    9.0410   24.2210 C.3       9 GLL5        0.0000 
      6 CA         42.3490   10.6460   26.3420 C.3       6 GLP5        0.0000 
      7 CA         45.2555    7.3015   24.4580 C.3       3 GLC5        0.0000 
      8 CA         45.8000    5.5620   24.6950 C.3       6 GLP5        0.0000 
      9 CA         46.5255    8.8635   24.1530 C.3       3 GLC5        0.0000 
     10 CA         48.3400    8.6860   24.0850 C.3       6 GLP5        0.0000 
     11 CA         44.7680   11.2180   25.2870 C.3       3 GLC5        0.0000 
     12 CA         44.9830   10.5450   24.0710 C.3       9 GLL5        0.0000 
     13 CA         44.5530   11.8910   26.5030 C.3       6 GLP5        0.0000 
     14 CA         43.9210   11.4935   24.3105 C.3       3 GLC5        0.0000 
     15 CA         44.7490   11.1050   22.6890 C.3       9 GLL5        0.0000 
     16 CA         43.0930   11.8820   25.9320 C.3       6 GLP5        0.0000 
     17 CA         42.7605   11.1660   22.0050 C.3       3 GLC5        0.0000 
     18 CA         40.7720   11.2270   21.3210 C.3       6 GLP5        0.0000 
     19 N          45.9420   10.8960   20.8300 N.am      2 SEC2        0.0000 
     20 N          46.5200   12.0730   21.5820 N.am      8 SEL2        0.0000 
     21 N          45.3640    9.7190   20.0780 N.am      5 SEP2        0.0000 
     22 CA         47.1475   14.0215   24.3885 C.3       3 GLC5        0.0000 
     23 CA         46.4260   12.3620   23.9210 C.3       9 GLL5        0.0000 
     24 CA         47.8690   15.6810   24.8560 C.3       6 GLP5        0.0000 
     25 CA         49.3990   13.6950   20.0610 C.3       3 GLC5        0.0000 
     26 CA         50.4490   14.3170   21.7430 C.3       9 GLL5        0.0000 
     27 CA         48.3490   13.0730   18.3790 C.3       6 GLP5        0.0000 
     28 CA         52.0805   14.9310   20.6830 C.3       3 GLC5        0.0000 
     29 CA         53.7120   15.5450   19.6230 C.3       6 GLP5        0.0000 
     30 O          51.6825   14.1265   20.3560 O.2       1 ALC1        0.0000 
     31 O          51.7800   14.3820   21.8020 O.2       7 ALL1        0.0000 
     32 O          51.5850   13.8710   18.9100 O.2       4 ALP1        0.0000 
     33 N          50.9830   15.8415   20.9590 N.am      2 SEC2        0.0000 
     34 N          49.7440   14.9750   20.7960 N.am      8 SEL2        0.0000 
     35 N          52.2220   16.7080   21.1220 N.am      5 SEP2        0.0000 
     36 CA         48.1340   15.3030   22.8000 C.3       3 GLC5        0.0000 
     37 CA         48.3990   14.9250   20.7440 C.3       9 GLL5        0.0000 
     38 CA         46.2010   14.6205   21.0940 C.3       3 GLC5        0.0000 
     39 CA         44.0030   14.3160   21.4440 C.3       6 GLP5        0.0000 
     40 CA         48.3740   13.9990   19.5615 C.3       3 GLC5        0.0000 
     41 CA         49.3840   16.1695   21.6485 C.3       3 GLC5        0.0000 
     42 CA         50.3690   17.4140   22.5530 C.3       6 GLP5        0.0000 
     43 CA         46.1280   13.9095   22.0325 C.3       3 GLC5        0.0000 
     44 CA         48.2530   13.5030   22.6210 C.3       9 GLL5        0.0000 
     45 CA         47.4115   12.5850   20.9520 C.3       3 GLC5        0.0000 
     46 CA         46.5700   11.6670   19.2830 C.3       6 GLP5        0.0000 
     47 CA         45.8792   11.6880   20.9750 C.3       3 GLC5        0.0000 
     48 CA         45.6280   12.3130   22.6450 C.3       9 GLL5        0.0000 
     49 CA         44.8005    9.0790   22.4192 C.3       3 GLC5        0.0000 
     50 CA         44.8030    7.7090   21.4210 C.3       6 GLP5        0.0000 
     51 CA         45.2900   12.1143   24.8930 C.3       3 GLC5        0.0000 
     52 CA         44.9051   13.1758   22.3690 C.3       3 GLC5        0.0000 
     53 CA         48.5194   14.6964   23.6440 C.3       3 GLC5        0.0000 
     54 CA         49.7240   13.5240   22.7430 C.3       9 GLL5        0.0000 
     55 CA         49.5174   12.1219   21.7915 C.3       3 GLC5        0.0000 
     56 CA         49.8650   10.5320   21.1510 C.3       6 GLP5        0.0000 
     57 CA         49.7694   15.5629   22.4925 C.3       3 GLC5        0.0000 
     58 CA         46.9627   10.5351   23.1462 C.3       3 GLC5        0.0000 
     59 CA         48.4790    9.4890   22.9610 C.3       6 GLP5        0.0000 
@<TRIPOS>BOND
@<TRIPOS>SUBSTRUCTURE
     1 ALC1       30 GROUP        1 X    ALC  0     ROOT ALC X 1
     2 SEC2        1 GROUP        1 X    SEC  0     **** SEC X 2
     3 GLC5        4 GROUP        1 X    GLC  0     **** GLC X 6
     4 ALP1       32 GROUP        1 Y    ALP  0     ROOT ALP Y 8
     5 SEP2        3 GROUP        1 Y    SEP  0     **** SEP Y 9
     6 GLP5        6 GROUP        1 Y    GLP  0     **** GLP Y 13
     7 ALL1       31 GROUP        1 Z    ALL  0     ROOT ALL Z 15
     8 SEL2        2 GROUP        1 Z    SEL  0     **** SEL Z 16
     9 GLL5        5 GROUP        1 Z    GLL  0     **** GLL Z 20
@<TRIPOS>SET

