#    Name: 3i4l_ANP_1_ligand
#    Modification time : Tue Mar 25 15:52:27 2014

@<TRIPOS>MOLECULE
3i4l_ANP_1_ligand
   43    45     1     0     0
SMALL
NO_CHARGES


@<TRIPOS>ATOM
      1 PG         39.4090    8.8420   27.8350 P.3       1 ANP589      0.0000 
      2 O1G        38.7140    8.6040   29.1600 O.co2     1 ANP589      0.0000 
      3 O2G        38.8980   10.0470   27.0740 O.co2     1 ANP589      0.0000 
      4 O3G        40.9120    8.8010   27.9450 O.co2     1 ANP589      0.0000 
      5 PB         40.2100    6.5660   25.9970 P.3       1 ANP589      0.0000 
      6 O1B        39.4800    5.7790   24.9310 O.co2     1 ANP589      0.0000 
      7 O2B        41.0870    5.8010   26.9620 O.co2     1 ANP589      0.0000 
      8 N3B        38.9790    7.4250   26.8980 N.4       1 ANP589      0.0000 
      9 PA         42.6860    7.3970   24.9300 P.3       1 ANP589      0.0000 
     10 O1A        42.7180    6.5830   23.6620 O.co2     1 ANP589      0.0000 
     11 O2A        43.3420    6.8430   26.1720 O.co2     1 ANP589      0.0000 
     12 O3A        41.1320    7.6780   25.2660 O.3       1 ANP589      0.0000 
     13 O5'        43.3420    8.8530   24.6140 O.3       1 ANP589      0.0000 
     14 C5'        44.7110    9.0410   24.2210 C.3       1 ANP589      0.0000 
     15 C4'        44.9830   10.5450   24.0710 C.3       1 ANP589      0.0000 
     16 O4'        46.2950   11.0310   24.4450 O.3       1 ANP589      0.0000 
     17 C3'        44.7490   11.1050   22.6890 C.3       1 ANP589      0.0000 
     18 O3'        43.4330   11.5990   22.5530 O.3       1 ANP589      0.0000 
     19 C2'        45.6280   12.3130   22.6450 C.3       1 ANP589      0.0000 
     20 O2'        46.5200   12.0730   21.5820 O.3       1 ANP589      0.0000 
     21 C1'        46.4260   12.3620   23.9210 C.3       1 ANP589      0.0000 
     22 N9         47.8250   12.7170   23.6200 N.pl3     1 ANP589      0.0000 
     23 C8         48.9010   12.2940   24.3050 C.2       1 ANP589      0.0000 
     24 N7         50.0560   12.7690   23.7950 N.2       1 ANP589      0.0000 
     25 C5         49.7240   13.5240   22.7430 C.ar      1 ANP589      0.0000 
     26 C6         50.4490   14.3170   21.7430 C.ar      1 ANP589      0.0000 
     27 N6         51.7800   14.3820   21.8020 N.pl3     1 ANP589      0.0000 
     28 N1         49.7440   14.9750   20.7960 N.ar      1 ANP589      0.0000 
     29 C2         48.3990   14.9250   20.7440 C.ar      1 ANP589      0.0000 
     30 N3         47.6620   14.2180   21.6170 N.ar      1 ANP589      0.0000 
     31 C4         48.2530   13.5030   22.6210 C.ar      1 ANP589      0.0000 
     32 H          44.9260    8.5663   23.2628 H         1 ANP589      0.0000 
     33 H          45.4038    8.6499   24.9671 H         1 ANP589      0.0000 
     34 H          44.2338   11.0853   24.7280 H         1 ANP589      0.0000 
     35 H          45.0415   10.4315   21.9626 H         1 ANP589      0.0000 
     36 H          45.0606   13.1738   22.5259 H         1 ANP589      0.0000 
     37 H          45.9714   13.0739   24.5673 H         1 ANP589      0.0000 
     38 H          48.8541   11.6985   25.0980 H         1 ANP589      0.0000 
     39 H          52.2555   14.4688   20.9266 H         1 ANP589      0.0000 
     40 H          52.1826   14.3381   22.7163 H         1 ANP589      0.0000 
     41 H          47.9006   15.4687   19.9789 H         1 ANP589      0.0000 
     42 H          43.5296   12.5943   22.5470 H         1 ANP589      0.0000 
     43 H          46.6662   12.9677   21.1600 H         1 ANP589      0.0000 
@<TRIPOS>BOND
     1    2    1 ar   
     2    3    1 ar   
     3    4    1 ar   
     4    8    1 1    
     5    6    5 ar   
     6    7    5 ar   
     7    8    5 1    
     8   12    5 1    
     9   10    9 ar   
    10   11    9 ar   
    11   12    9 1    
    12   13    9 1    
    13   14   13 1    
    14   15   14 1    
    15   32   14 1    
    16   33   14 1    
    17   16   15 1    
    18   17   15 1    
    19   34   15 1    
    20   21   16 1    
    21   18   17 1    
    22   19   17 1    
    23   35   17 1    
    24   42   18 1    
    25   20   19 1    
    26   21   19 1    
    27   36   19 1    
    28   43   20 1    
    29   22   21 1    
    30   37   21 1    
    31   23   22 1    
    32   31   22 1    
    33   24   23 2    
    34   38   23 1    
    35   25   24 1    
    36   26   25 ar   
    37   31   25 ar   
    38   27   26 1    
    39   28   26 ar   
    40   39   27 1    
    41   40   27 1    
    42   29   28 ar   
    43   30   29 ar   
    44   41   29 1    
    45   31   30 ar   
@<TRIPOS>SUBSTRUCTURE
     1 ANP589      1 GROUP   
@<TRIPOS>SET

