#    Name: 1a4m_PRH_2_INTS_M
#    Modification time : Mon Mar 24 17:49:57 2014

@<TRIPOS>MOLECULE
1a4m_PRH_2_INTS_M
   70     0    12     0     0
SMALL
NO_CHARGES


@<TRIPOS>ATOM
      1 O          32.1185   69.9480  105.0900 O.2       1 ALC1        0.0000 
      2 O          31.5800   69.4460  103.8870 O.2       9 ALL1        0.0000 
      3 O          32.6570   70.4500  106.2930 O.2       5 ALP1        0.0000 
      4 O          31.1305   69.7185  105.4845 O.2       1 ALC1        0.0000 
      5 O          30.6810   69.9910  107.0820 O.2       5 ALP1        0.0000 
      6 N          33.6810   68.4875  101.1275 N.am      2 SEC2        0.0000 
      7 N          32.4080   68.5980  101.8840 N.am     10 SEL2        0.0000 
      8 N          34.9540   68.3770  100.3710 N.am      6 SEP2        0.0000 
      9 CA         32.4930   69.4450  100.0055 C.3       4 GLC5        0.0000 
     10 CA         31.1060   68.4530  101.3670 C.3      12 GLL5        0.0000 
     11 CA         33.8800   70.4370   98.6440 C.3       8 GLP5        0.0000 
     12 CA         31.0695   68.0075  104.9175 C.3       4 GLC5        0.0000 
     13 CA         30.2570   69.3450  103.4430 C.3      12 GLL5        0.0000 
     14 CA         31.8820   66.6700  106.3920 C.3       8 GLP5        0.0000 
     15 Zn         29.5075   71.4810  102.7130 Zn        3 ZIC7        0.0000 
     16 Zn         29.5690   70.7910  103.5640 Zn       11 ZIL7        0.0000 
     17 Zn         29.4460   72.1710  101.8620 Zn        7 ZIP7        0.0000 
     18 N          29.8025   71.8930  104.6470 N.am      2 SEC2        0.0000 
     19 N          29.5690   70.7910  103.5640 N.am     10 SEL2        0.0000 
     20 N          30.0360   72.9950  105.7300 N.am      6 SEP2        0.0000 
     21 O          28.3535   71.0170  104.0945 O.2       1 ALC1        0.0000 
     22 O          29.5690   70.7910  103.5640 O.2       9 ALL1        0.0000 
     23 O          27.1380   71.2430  104.6250 O.2       5 ALP1        0.0000 
     24 O          27.3420   68.3675  100.7535 O.2       1 ALC1        0.0000 
     25 O          28.9140   68.5820  101.3920 O.2       9 ALL1        0.0000 
     26 O          25.7700   68.1530  100.1150 O.2       5 ALP1        0.0000 
     27 O          27.5465   68.7295  101.7570 O.2       1 ALC1        0.0000 
     28 O          26.1790   68.8770  102.1220 O.2       5 ALP1        0.0000 
     29 CA         28.4260   69.3820   99.2320 C.3       4 GLC5        0.0000 
     30 CA         29.2810   68.0750  100.2030 C.3      12 GLL5        0.0000 
     31 CA         27.5710   70.6890   98.2610 C.3       8 GLP5        0.0000 
     32 CA         30.3590   66.3540  101.1300 C.3       4 GLC5        0.0000 
     33 CA         31.4370   64.6330  102.0570 C.3       8 GLP5        0.0000 
     34 CA         32.6520   68.9180   98.8735 C.3       4 GLC5        0.0000 
     35 CA         31.4240   67.3990   99.1030 C.3      12 GLL5        0.0000 
     36 CA         33.4030   67.2190   99.9030 C.3       4 GLC5        0.0000 
     37 CA         35.3820   67.0390  100.7030 C.3       8 GLP5        0.0000 
     38 CA         28.9315   65.6280   98.7135 C.3       4 GLC5        0.0000 
     39 CA         30.7620   66.1020   98.5950 C.3      12 GLL5        0.0000 
     40 CA         27.1010   65.1540   98.8320 C.3       8 GLP5        0.0000 
     41 CA         28.5055   65.5120   97.3775 C.3       4 GLC5        0.0000 
     42 CA         30.0740   66.3660   97.2110 C.3      12 GLL5        0.0000 
     43 CA         26.9370   64.6580   97.5440 C.3       8 GLP5        0.0000 
     44 O          29.2815   65.6785   95.3540 O.2       1 ALC1        0.0000 
     45 O          30.1770   65.2310   96.3420 O.2       9 ALL1        0.0000 
     46 O          28.3860   66.1260   94.3660 O.2       5 ALP1        0.0000 
     47 CA         32.5460   68.9430   97.7620 C.3       4 GLC5        0.0000 
     48 CA         31.2120   67.4490   96.8800 C.3      12 GLL5        0.0000 
     49 CA         30.1785   69.4995   94.2000 C.3       4 GLC5        0.0000 
     50 CA         30.8370   68.3290   95.6690 C.3      12 GLL5        0.0000 
     51 CA         29.5200   70.6700   92.7310 C.3       8 GLP5        0.0000 
     52 CA         32.0390   68.0030   93.9870 C.3       4 GLC5        0.0000 
     53 CA         33.2410   67.6770   92.3050 C.3       8 GLP5        0.0000 
     54 CA         31.5130   70.2870   95.4485 C.3       4 GLC5        0.0000 
     55 CA         32.1890   72.2450   95.2280 C.3       8 GLP5        0.0000 
     56 N          29.2265   69.6710   96.9055 N.am      2 SEC2        0.0000 
     57 N          29.5920   69.0070   95.8740 N.am     10 SEL2        0.0000 
     58 N          28.8610   70.3350   97.9370 N.am      6 SEP2        0.0000 
     59 O          28.9890   67.5665   95.1200 O.2       1 ALC1        0.0000 
     60 O          29.5920   69.0070   95.8740 O.2       9 ALL1        0.0000 
     61 O          28.3740   68.4125   95.4445 O.2       1 ALC1        0.0000 
     62 O          27.1560   67.8180   95.0150 O.2       5 ALP1        0.0000 
     63 CA         31.0040   66.6335  101.9002 C.3       4 GLC5        0.0000 
     64 CA         31.5445   70.6993  102.6036 C.3       4 GLC5        0.0000 
     65 CA         32.6750   72.4090  102.6140 C.3       8 GLP5        0.0000 
     66 CA         31.2650   65.6917  100.4530 C.3       4 GLC5        0.0000 
     67 CA         32.9735   66.4273   98.0310 C.3       4 GLC5        0.0000 
     68 CA         34.8540   66.1040   97.2130 C.3       8 GLP5        0.0000 
     69 CA         32.9397   67.5470   96.0248 C.3       4 GLC5        0.0000 
     70 CA         34.8550   67.2050   95.7750 C.3       8 GLP5        0.0000 
@<TRIPOS>BOND
@<TRIPOS>SUBSTRUCTURE
     1 ALC1        1 GROUP        1 X    ALC  0     ROOT ALC X 1
     2 SEC2        6 GROUP        1 X    SEC  0     **** SEC X 2
     3 ZIC7       15 GROUP        1 X    ZIC  0     **** ZIC X 5
     4 GLC5        9 GROUP        1 X    GLC  0     **** GLC X 6
     5 ALP1        3 GROUP        1 Y    ALP  0     ROOT ALP Y 8
     6 SEP2        8 GROUP        1 Y    SEP  0     **** SEP Y 9
     7 ZIP7       17 GROUP        1 Y    ZIP  0     **** ZIP Y 12
     8 GLP5       11 GROUP        1 Y    GLP  0     **** GLP Y 13
     9 ALL1        2 GROUP        1 Z    ALL  0     ROOT ALL Z 15
    10 SEL2        7 GROUP        1 Z    SEL  0     **** SEL Z 16
    11 ZIL7       16 GROUP        1 Z    ZIL  0     **** ZIL Z 19
    12 GLL5       10 GROUP        1 Z    GLL  0     **** GLL Z 20
@<TRIPOS>SET

