#    Name: 1a4m_PRH_2_ligand
#    Modification time : Mon Mar 24 17:49:57 2014

@<TRIPOS>MOLECULE
1a4m_PRH_2_ligand
   34    36     1     0     0
SMALL
NO_CHARGES


@<TRIPOS>ATOM
      1 N1         31.5800   69.4460  103.8870 N.pl3     1 PRH854      0.0000 
      2 C2         32.6010   69.0770  103.1110 C.2       1 PRH854      0.0000 
      3 N3         32.4080   68.5980  101.8840 N.2       1 PRH854      0.0000 
      4 C4         31.1060   68.4530  101.3670 C.2       1 PRH854      0.0000 
      5 C5         30.0360   68.8150  102.1200 C.2       1 PRH854      0.0000 
      6 C6         30.2570   69.3450  103.4430 C.3       1 PRH854      0.0000 
      7 O6         29.5690   70.7910  103.5640 O.3       1 PRH854      0.0000 
      8 N7         28.9140   68.5820  101.3920 N.pl3     1 PRH854      0.0000 
      9 C8         29.2810   68.0750  100.2030 C.2       1 PRH854      0.0000 
     10 N9         30.6290   67.9820  100.1670 N.pl3     1 PRH854      0.0000 
     11 C1'        31.4240   67.3990   99.1030 C.3       1 PRH854      0.0000 
     12 C2'        30.7620   66.1020   98.5950 C.3       1 PRH854      0.0000 
     13 O2'        31.7600   65.0800   98.4890 O.3       1 PRH854      0.0000 
     14 C3'        30.0740   66.3660   97.2110 C.3       1 PRH854      0.0000 
     15 O3'        30.1770   65.2310   96.3420 O.3       1 PRH854      0.0000 
     16 C4'        31.2120   67.4490   96.8800 C.3       1 PRH854      0.0000 
     17 O4'        31.4940   68.2450   97.9750 O.3       1 PRH854      0.0000 
     18 C5'        30.8370   68.3290   95.6690 C.3       1 PRH854      0.0000 
     19 O5'        29.5920   69.0070   95.8740 O.3       1 PRH854      0.0000 
     20 H          31.7422   69.8210  104.8491 H         1 PRH854      0.0000 
     21 H          33.5884   69.1680  103.4816 H         1 PRH854      0.0000 
     22 H          29.6562   68.7385  104.1783 H         1 PRH854      0.0000 
     23 H          28.0116   68.7538  101.6854 H         1 PRH854      0.0000 
     24 H          28.6820   67.8172   99.4867 H         1 PRH854      0.0000 
     25 H          32.4043   67.1295   99.4493 H         1 PRH854      0.0000 
     26 H          29.9885   65.8318   99.2955 H         1 PRH854      0.0000 
     27 H          29.2285   66.8521   97.3564 H         1 PRH854      0.0000 
     28 H          32.0940   66.8564   96.5763 H         1 PRH854      0.0000 
     29 H          30.8020   67.6715   94.7853 H         1 PRH854      0.0000 
     30 H          31.6657   69.0381   95.5109 H         1 PRH854      0.0000 
     31 H          28.6871   70.6219  104.0040 H         1 PRH854      0.0000 
     32 H          31.6964   64.7532   97.5461 H         1 PRH854      0.0000 
     33 H          30.0425   65.5972   95.4213 H         1 PRH854      0.0000 
     34 H          28.9002   68.4028   95.4786 H         1 PRH854      0.0000 
@<TRIPOS>BOND
     1    2    1 1    
     2    6    1 1    
     3   20    1 1    
     4    3    2 2    
     5   21    2 1    
     6    4    3 1    
     7    5    4 2    
     8   10    4 1    
     9    6    5 1    
    10    8    5 1    
    11    7    6 1    
    12   22    6 1    
    13   31    7 1    
    14    9    8 1    
    15   23    8 1    
    16   10    9 2    
    17   24    9 1    
    18   11   10 1    
    19   12   11 1    
    20   17   11 1    
    21   25   11 1    
    22   13   12 1    
    23   14   12 1    
    24   26   12 1    
    25   32   13 1    
    26   15   14 1    
    27   16   14 1    
    28   27   14 1    
    29   33   15 1    
    30   17   16 1    
    31   18   16 1    
    32   28   16 1    
    33   19   18 1    
    34   29   18 1    
    35   30   18 1    
    36   34   19 1    
@<TRIPOS>SUBSTRUCTURE
     1 PRH854      1 GROUP   
@<TRIPOS>SET

