#    Name: 4CMX_3_CAVITY_N1_6.mol2
#    Modification time : Mon Mar 10 13:22:19 2014

@<TRIPOS>MOLECULE
4CMX_3_CAVITY_N1_6.mol2
  143     0     7     0     0
SMALL
NO_CHARGES


@<TRIPOS>ATOM
      1 NZ        -16.8814  -21.3425  -18.2307 N.2       4 LYS4        0.0000 
      2 CZ        -16.1170  -20.0893  -18.5391 C.ar      5 PHE5        0.0000 
      3 DU        -16.3232  -20.3245  -20.0061 H         7 CUB7        0.0000 
      4 DU        -15.0492  -21.1145  -20.0586 H         7 CUB7        0.0000 
      5 DU        -16.5295  -20.5597  -21.4732 H         7 CUB7        0.0000 
      6 CZ        -15.3526  -18.8360  -18.8475 C.ar      5 PHE5        0.0000 
      7 N         -14.0786  -19.6260  -18.9000 N.2       2 ALA2        0.0000 
      8 N         -12.8045  -20.4160  -18.9524 N.2       2 ALA2        0.0000 
      9 N         -11.5305  -21.2059  -19.0049 N.2       2 ALA2        0.0000 
     10 O         -15.5588  -19.0712  -20.3146 O.2       2 ALA2        0.0000 
     11 O         -14.2848  -19.8612  -20.3670 O.2       2 ALA2        0.0000 
     12 DU        -13.0108  -20.6512  -20.4194 H         7 CUB7        0.0000 
     13 CA        -11.7367  -21.4412  -20.4719 C.3       6 GLY6        0.0000 
     14 CA        -10.4627  -22.2311  -20.5243 C.3       6 GLY6        0.0000 
     15 O         -14.4910  -20.0964  -21.8340 O.2       2 ALA2        0.0000 
     16 DU        -13.2170  -20.8864  -21.8865 H         7 CUB7        0.0000 
     17 DU        -11.9429  -21.6764  -21.9389 H         7 CUB7        0.0000 
     18 CA        -13.4232  -21.1216  -23.3535 C.3       6 GLY6        0.0000 
     19 CA        -12.1492  -21.9116  -23.4059 C.3       6 GLY6        0.0000 
     20 OG        -13.3142  -18.3727  -19.2084 O.2       1 SER1        0.0000 
     21 N         -12.0401  -19.1627  -19.2608 N.2       2 ALA2        0.0000 
     22 O         -14.7945  -17.8180  -20.6230 O.2       2 ALA2        0.0000 
     23 O         -13.5204  -18.6080  -20.6754 O.2       2 ALA2        0.0000 
     24 DU        -12.2464  -19.3979  -20.7278 H         7 CUB7        0.0000 
     25 CA        -10.9723  -20.1879  -20.7803 C.3       6 GLY6        0.0000 
     26 O         -12.4526  -19.6332  -22.1949 O.2       2 ALA2        0.0000 
     27 CA        -11.1786  -20.4231  -22.2473 C.3       6 GLY6        0.0000 
     28 CA         -9.9045  -21.2131  -22.2997 C.3       6 GLY6        0.0000 
     29 CA        -12.6589  -19.8684  -23.6619 C.3       6 GLY6        0.0000 
     30 CA        -11.3848  -20.6584  -23.7143 C.3       6 GLY6        0.0000 
     31 OG        -11.0695  -17.6742  -18.1022 O.2       1 SER1        0.0000 
     32 OG        -12.5498  -17.1195  -19.5168 O.2       1 SER1        0.0000 
     33 OG        -11.2758  -17.9095  -19.5692 O.2       1 SER1        0.0000 
     34 O         -12.7560  -17.3547  -20.9838 O.2       2 ALA2        0.0000 
     35 CA        -11.4820  -18.1447  -21.0363 C.3       6 GLY6        0.0000 
     36 O         -11.6882  -18.3799  -22.5033 O.2       2 ALA2        0.0000 
     37 CA        -10.4142  -19.1699  -22.5557 C.3       6 GLY6        0.0000 
     38 O         -11.8945  -18.6152  -23.9703 O.2       2 ALA2        0.0000 
     39 O         -10.6204  -19.4051  -24.0227 O.2       2 ALA2        0.0000 
     40 OG        -10.3051  -16.4210  -18.4106 O.2       1 SER1        0.0000 
     41 CA         -9.0311  -17.2110  -18.4631 C.3       6 GLY6        0.0000 
     42 OG        -11.7854  -15.8663  -19.8252 O.2       1 SER1        0.0000 
     43 OG        -10.5114  -16.6562  -19.8777 O.2       1 SER1        0.0000 
     44 OD1       -13.2657  -15.3115  -21.2398 O.3       3 ASP3        0.0000 
     45 O         -11.9917  -16.1015  -21.2922 O.2       2 ALA2        0.0000 
     46 CA        -10.7176  -16.8915  -21.3447 C.3       6 GLY6        0.0000 
     47 O         -10.9239  -17.1267  -22.8117 O.2       2 ALA2        0.0000 
     48 O          -8.0605  -15.7225  -17.3045 O.2       2 ALA2        0.0000 
     49 N          -6.7864  -16.5125  -17.3569 N.2       2 ALA2        0.0000 
     50 N          -5.5124  -17.3024  -17.4094 N.2       2 ALA2        0.0000 
     51 O         -10.8148  -14.3778  -18.6666 O.2       2 ALA2        0.0000 
     52 O          -9.5408  -15.1678  -18.7190 O.2       2 ALA2        0.0000 
     53 O          -8.2667  -15.9577  -18.7715 O.2       2 ALA2        0.0000 
     54 CA         -6.9927  -16.7477  -18.8239 C.3       6 GLY6        0.0000 
     55 CA         -5.7186  -17.5377  -18.8764 C.3       6 GLY6        0.0000 
     56 OG        -13.5692  -13.0331  -20.0287 O.2       1 SER1        0.0000 
     57 OG        -12.2951  -13.8230  -20.0812 O.2       1 SER1        0.0000 
     58 OG        -11.0211  -14.6130  -20.1336 O.2       1 SER1        0.0000 
     59 DU         -9.7470  -15.4030  -20.1861 H         7 CUB7        0.0000 
     60 CA         -8.4730  -16.1930  -20.2385 C.3       6 GLY6        0.0000 
     61 CA         -7.1989  -16.9829  -20.2909 C.3       6 GLY6        0.0000 
     62 O         -12.5013  -14.0583  -21.5482 O.2       2 ALA2        0.0000 
     63 O         -11.2273  -14.8482  -21.6006 O.2       2 ALA2        0.0000 
     64 DU         -9.9532  -15.6382  -21.6531 H         7 CUB7        0.0000 
     65 OD1        -8.6792  -16.4282  -21.7055 O.3       3 ASP3        0.0000 
     66 O         -10.1595  -15.8734  -23.1201 O.2       2 ALA2        0.0000 
     67 OD1        -6.7498  -18.7138  -26.2114 O.3       3 ASP3        0.0000 
     68 N          -5.8158  -15.0240  -16.1983 N.2       2 ALA2        0.0000 
     69 N          -4.5418  -15.8140  -16.2508 N.2       2 ALA2        0.0000 
     70 N          -6.0221  -15.2592  -17.6653 N.2       2 ALA2        0.0000 
     71 N          -4.7480  -16.0492  -17.7178 N.2       2 ALA2        0.0000 
     72 O          -7.5024  -14.7045  -19.0799 O.2       2 ALA2        0.0000 
     73 O          -6.2283  -15.4945  -19.1323 O.2       2 ALA2        0.0000 
     74 O          -4.9543  -16.2844  -19.1848 O.2       2 ALA2        0.0000 
     75 NZ        -10.2567  -13.3598  -20.4420 N.2       4 LYS4        0.0000 
     76 NZ         -8.9826  -14.1497  -20.4945 N.2       4 LYS4        0.0000 
     77 O          -7.7086  -14.9397  -20.5469 O.2       2 ALA2        0.0000 
     78 CA         -6.4345  -15.7297  -20.5994 C.3       6 GLY6        0.0000 
     79 CA        -10.4629  -13.5950  -21.9090 C.3       6 GLY6        0.0000 
     80 CA         -9.1889  -14.3850  -21.9615 C.3       6 GLY6        0.0000 
     81 OD1        -7.9148  -15.1749  -22.0139 O.3       3 ASP3        0.0000 
     82 CA         -6.6408  -15.9649  -22.0664 C.3       6 GLY6        0.0000 
     83 CA         -5.3667  -16.7549  -22.1188 C.3       6 GLY6        0.0000 
     84 CA        -10.6692  -13.8302  -23.3761 C.3       6 GLY6        0.0000 
     85 O          -9.3951  -14.6202  -23.4285 O.2       2 ALA2        0.0000 
     86 OD1        -8.1211  -15.4102  -23.4809 O.3       3 ASP3        0.0000 
     87 OD1        -5.5730  -16.9901  -23.5858 O.3       3 ASP3        0.0000 
     88 O          -9.6014  -14.8554  -24.8955 O.2       2 ALA2        0.0000 
     89 OD1        -8.3273  -15.6454  -24.9480 O.3       3 ASP3        0.0000 
     90 OD1        -7.0533  -16.4354  -25.0004 O.3       3 ASP3        0.0000 
     91 OD1        -5.7792  -17.2253  -25.0528 O.3       3 ASP3        0.0000 
     92 O          -4.5052  -18.0153  -25.1053 O.2       2 ALA2        0.0000 
     93 O          -7.2595  -16.6706  -26.4674 O.2       2 ALA2        0.0000 
     94 OD1        -5.9854  -17.4606  -26.5199 O.3       3 ASP3        0.0000 
     95 O          -7.4657  -16.9058  -27.9344 O.2       2 ALA2        0.0000 
     96 O          -7.6720  -17.1411  -29.4014 O.2       2 ALA2        0.0000 
     97 O          -6.3255  -12.9808  -16.4543 O.2       2 ALA2        0.0000 
     98 O          -5.0515  -13.7708  -16.5067 O.2       2 ALA2        0.0000 
     99 O          -6.5317  -13.2160  -17.9213 O.2       2 ALA2        0.0000 
    100 O          -5.2577  -14.0060  -17.9737 O.2       2 ALA2        0.0000 
    101 O          -3.9836  -14.7960  -18.0262 O.2       2 ALA2        0.0000 
    102 O          -4.1899  -15.0312  -19.4932 O.2       2 ALA2        0.0000 
    103 O          -5.6702  -14.4764  -20.9078 O.2       2 ALA2        0.0000 
    104 O          -8.4245  -13.1317  -22.2699 O.2       2 ALA2        0.0000 
    105 O          -7.1505  -13.9217  -22.3223 O.2       2 ALA2        0.0000 
    106 O          -5.8764  -14.7117  -22.3748 O.2       2 ALA2        0.0000 
    107 O          -4.6024  -15.5016  -22.4272 O.2       2 ALA2        0.0000 
    108 O          -8.6307  -13.3670  -23.7369 O.2       2 ALA2        0.0000 
    109 O          -7.3567  -14.1569  -23.7894 O.2       2 ALA2        0.0000 
    110 OD1        -6.0826  -14.9469  -23.8418 O.3       3 ASP3        0.0000 
    111 O          -4.8086  -15.7369  -23.8942 O.2       2 ALA2        0.0000 
    112 O          -8.8370  -13.6022  -25.2039 O.2       2 ALA2        0.0000 
    113 DU         -7.5629  -14.3922  -25.2564 H         7 CUB7        0.0000 
    114 DU         -6.2889  -15.1821  -25.3088 H         7 CUB7        0.0000 
    115 DU         -5.0148  -15.9721  -25.3613 H         7 CUB7        0.0000 
    116 O          -3.7408  -16.7621  -25.4137 O.2       2 ALA2        0.0000 
    117 O          -7.7692  -14.6274  -26.7234 O.2       2 ALA2        0.0000 
    118 DU         -6.4951  -15.4174  -26.7758 H         7 CUB7        0.0000 
    119 DU         -5.2211  -16.2073  -26.8283 H         7 CUB7        0.0000 
    120 OD1        -3.9470  -16.9973  -26.8807 O.3       3 ASP3        0.0000 
    121 O          -6.7014  -15.6526  -28.2428 O.2       2 ALA2        0.0000 
    122 DU         -5.4273  -16.4426  -28.2953 H         7 CUB7        0.0000 
    123 O          -6.9076  -15.8878  -29.7099 O.2       2 ALA2        0.0000 
    124 O          -5.1120  -13.4584  -22.6832 O.2       2 ALA2        0.0000 
    125 O          -3.8380  -14.2484  -22.7356 O.2       2 ALA2        0.0000 
    126 CA         -2.5639  -15.0384  -22.7881 C.3       6 GLY6        0.0000 
    127 O          -6.5923  -12.9037  -24.0978 O.2       2 ALA2        0.0000 
    128 DU         -4.0442  -14.4836  -24.2026 H         7 CUB7        0.0000 
    129 O          -2.7702  -15.2736  -24.2551 O.2       2 ALA2        0.0000 
    130 N          -6.7986  -13.1389  -25.5648 N.2       2 ALA2        0.0000 
    131 N          -5.5245  -13.9289  -25.6172 N.2       2 ALA2        0.0000 
    132 OD1        -4.2505  -14.7189  -25.6697 O.3       3 ASP3        0.0000 
    133 OD1        -2.9764  -15.5088  -25.7221 O.3       3 ASP3        0.0000 
    134 N          -7.0048  -13.3741  -27.0318 N.2       2 ALA2        0.0000 
    135 N          -5.7307  -14.1641  -27.0842 N.2       2 ALA2        0.0000 
    136 OD1        -4.4567  -14.9541  -27.1367 O.3       3 ASP3        0.0000 
    137 N          -5.9370  -14.3993  -28.5513 N.2       2 ALA2        0.0000 
    138 OD1        -4.6629  -15.1893  -28.6037 O.3       3 ASP3        0.0000 
    139 O          -3.0736  -12.9952  -23.0440 O.2       2 ALA2        0.0000 
    140 CA         -3.2798  -13.2304  -24.5111 C.3       6 GLY6        0.0000 
    141 CA         -4.7601  -12.6756  -25.9256 C.3       6 GLY6        0.0000 
    142 OD1        -3.4861  -13.4656  -25.9781 O.3       3 ASP3        0.0000 
    143 N          -4.9664  -12.9109  -27.3926 N.2       2 ALA2        0.0000 
@<TRIPOS>BOND
@<TRIPOS>SUBSTRUCTURE
     1 SER1       20 GROUP   
     2 ALA2        7 GROUP   
     3 ASP3       44 GROUP   
     4 LYS4        1 GROUP   
     5 PHE5        2 GROUP   
     6 GLY6       13 GROUP   
     7 CUB7        3 GROUP   
@<TRIPOS>SET

