#    Name: 4cmx_BHC_3_INTS_M
#    Modification time : Tue Mar 25 09:23:40 2014

@<TRIPOS>MOLECULE
4cmx_BHC_3_INTS_M
   59     0     9     0     0
SMALL
NO_CHARGES


@<TRIPOS>ATOM
      1 N          -7.0230  -13.0310  -20.8575 N.am      1 SEC2        0.0000 
      2 N          -8.1640  -14.3270  -20.9630 N.am      7 SEL2        0.0000 
      3 N          -5.8820  -11.7350  -20.7520 N.am      4 SEP2        0.0000 
      4 N          -9.3695  -12.4190  -20.2425 N.am      1 SEC2        0.0000 
      5 N         -10.0860  -13.4610  -20.3710 N.am      7 SEL2        0.0000 
      6 N          -8.6530  -11.3770  -20.1140 N.am      4 SEP2        0.0000 
      7 N         -10.7040  -12.8035  -24.2365 N.am      1 SEC2        0.0000 
      8 N          -9.9470  -14.2770  -23.7790 N.am      7 SEL2        0.0000 
      9 N         -11.4610  -11.3300  -24.6940 N.am      4 SEP2        0.0000 
     10 NZ         -8.1585  -17.1785  -23.7770 N.4       2 LYC4        0.0000 
     11 NZ         -8.5170  -15.8780  -24.0850 N.4       8 LYL4        0.0000 
     12 NZ         -7.8000  -18.4790  -23.4690 N.4       5 LYP4        0.0000 
     13 N          -8.1585  -17.1785  -23.7770 N.am      1 SEC2        0.0000 
     14 N          -8.5170  -15.8780  -24.0850 N.am      7 SEL2        0.0000 
     15 N          -7.8000  -18.4790  -23.4690 N.am      4 SEP2        0.0000 
     16 NZ         -8.9380  -18.6525  -23.9390 N.4       2 LYC4        0.0000 
     17 NZ        -10.0760  -18.8260  -24.4090 N.4       8 LYL4        0.0000 
     18 NZ         -9.9135  -19.9330  -25.0840 N.4       2 LYC4        0.0000 
     19 NZ        -10.3460  -22.0790  -26.3400 N.4       5 LYP4        0.0000 
     20 N          -8.9380  -18.6525  -23.9390 N.am      1 SEC2        0.0000 
     21 N         -10.0760  -18.8260  -24.4090 N.am      7 SEL2        0.0000 
     22 N          -9.9880  -18.1465  -25.9625 N.am      1 SEC2        0.0000 
     23 N          -9.9000  -17.4670  -27.5160 N.am      4 SEP2        0.0000 
     24 N          -9.9135  -19.9330  -25.0840 N.am      1 SEC2        0.0000 
     25 N          -9.7510  -21.0400  -25.7590 N.am      4 SEP2        0.0000 
     26 NZ        -12.4085  -16.3550  -24.4280 N.4       2 LYC4        0.0000 
     27 NZ        -11.5140  -17.2530  -24.8960 N.4       8 LYL4        0.0000 
     28 NZ        -14.4610  -15.9010  -23.5080 N.4       5 LYP4        0.0000 
     29 NZ        -11.1545  -16.3000  -26.1535 N.4       2 LYC4        0.0000 
     30 NZ        -10.2280  -16.3220  -28.1110 N.4       5 LYP4        0.0000 
     31 N         -12.4085  -16.3550  -24.4280 N.am      1 SEC2        0.0000 
     32 N         -11.5140  -17.2530  -24.8960 N.am      7 SEL2        0.0000 
     33 N         -13.3030  -15.4570  -23.9600 N.am      4 SEP2        0.0000 
     34 N         -11.1545  -16.3000  -26.1535 N.am      1 SEC2        0.0000 
     35 N         -10.7950  -15.3470  -27.4110 N.am      4 SEP2        0.0000 
     36 N         -10.7070  -17.3600  -26.2060 N.am      1 SEC2        0.0000 
     37 NZ        -13.8420  -18.3235  -22.9245 N.4       2 LYC4        0.0000 
     38 NZ        -13.0810  -19.4640  -22.6600 N.4       8 LYL4        0.0000 
     39 N         -13.8420  -18.3235  -22.9245 N.am      1 SEC2        0.0000 
     40 N         -13.0810  -19.4640  -22.6600 N.am      7 SEL2        0.0000 
     41 N         -14.6030  -17.1830  -23.1890 N.am      4 SEP2        0.0000 
     42 NZ        -11.4615  -14.0955  -17.2750 N.4       2 LYC4        0.0000 
     43 NZ        -11.5800  -15.3000  -18.1810 N.4       8 LYL4        0.0000 
     44 NZ        -10.1010  -12.4390  -16.2570 N.4       5 LYP4        0.0000 
     45 N         -11.4615  -14.0955  -17.2750 N.am      1 SEC2        0.0000 
     46 N         -11.5800  -15.3000  -18.1810 N.am      7 SEL2        0.0000 
     47 N         -11.3430  -12.8910  -16.3690 N.am      4 SEP2        0.0000 
     48 NZ         -9.2930  -14.5215  -17.3635 N.4       2 LYC4        0.0000 
     49 NZ         -9.4990  -15.8650  -18.0430 N.4       8 LYL4        0.0000 
     50 N          -9.2930  -14.5215  -17.3635 N.am      1 SEC2        0.0000 
     51 N          -9.4990  -15.8650  -18.0430 N.am      7 SEL2        0.0000 
     52 N          -9.0870  -13.1780  -16.6840 N.am      4 SEP2        0.0000 
     53 CA         -9.0768  -17.6445  -21.4420 C.3       3 GLC5        0.0000 
     54 CA        -10.0920  -15.7250  -21.0880 C.3       9 GLL5        0.0000 
     55 CA         -8.0330  -19.3270  -21.1510 C.3       6 GLP5        0.0000 
     56 CA         -9.5622  -18.5433  -21.6388 C.3       3 GLC5        0.0000 
     57 CA        -10.7950  -17.3930  -22.6420 C.3       9 GLL5        0.0000 
     58 CA         -9.5195  -18.1803  -20.6660 C.3       3 GLC5        0.0000 
     59 CA        -11.3350  -17.6330  -20.3070 C.3       9 GLL5        0.0000 
@<TRIPOS>BOND
@<TRIPOS>SUBSTRUCTURE
     1 SEC2        1 GROUP        1 X    SEC  0     ROOT SEC X 2
     2 LYC4       10 GROUP        1 X    LYC  0     **** LYC X 4
     3 GLC5       53 GROUP        1 X    GLC  0     **** GLC X 6
     4 SEP2        3 GROUP        1 Y    SEP  0     ROOT SEP Y 9
     5 LYP4       12 GROUP        1 Y    LYP  0     **** LYP Y 11
     6 GLP5       55 GROUP        1 Y    GLP  0     **** GLP Y 13
     7 SEL2        2 GROUP        1 Z    SEL  0     ROOT SEL Z 16
     8 LYL4       11 GROUP        1 Z    LYL  0     **** LYL Z 18
     9 GLL5       54 GROUP        1 Z    GLL  0     **** GLL Z 20
@<TRIPOS>SET

