#    Name: 4cmx_BHC_3_ligand
#    Modification time : Tue Mar 25 09:23:40 2014

@<TRIPOS>MOLECULE
4cmx_BHC_3_ligand
   24    24     1     0     0
SMALL
NO_CHARGES


@<TRIPOS>ATOM
      1 C1        -10.0920  -15.7250  -21.0880 C.ar      1 BHC1297     0.0000 
      2 CO1        -9.4080  -14.4310  -20.7960 C.2       1 BHC1297     0.0000 
      3 O11        -8.1640  -14.3270  -20.9630 O.co2     1 BHC1297     0.0000 
      4 O12       -10.0860  -13.4610  -20.3710 O.co2     1 BHC1297     0.0000 
      5 C2        -10.1490  -16.1990  -22.3780 C.ar      1 BHC1297     0.0000 
      6 CO2        -9.5100  -15.4130  -23.4710 C.2       1 BHC1297     0.0000 
      7 O21        -9.9470  -14.2770  -23.7790 O.co2     1 BHC1297     0.0000 
      8 O22        -8.5170  -15.8780  -24.0850 O.co2     1 BHC1297     0.0000 
      9 C3        -10.7950  -17.3930  -22.6420 C.ar      1 BHC1297     0.0000 
     10 CO3       -10.8060  -17.8560  -24.0560 C.2       1 BHC1297     0.0000 
     11 O31       -10.0760  -18.8260  -24.4090 O.co2     1 BHC1297     0.0000 
     12 O32       -11.5140  -17.2530  -24.8960 O.co2     1 BHC1297     0.0000 
     13 C4        -11.3880  -18.1260  -21.6110 C.ar      1 BHC1297     0.0000 
     14 CO4       -12.0740  -19.4250  -21.9030 C.2       1 BHC1297     0.0000 
     15 O41       -11.6470  -20.4910  -21.3950 O.co2     1 BHC1297     0.0000 
     16 O42       -13.0810  -19.4640  -22.6600 O.co2     1 BHC1297     0.0000 
     17 C5        -11.3350  -17.6330  -20.3070 C.ar      1 BHC1297     0.0000 
     18 CO5       -11.9380  -18.3780  -19.1640 C.2       1 BHC1297     0.0000 
     19 O51       -13.1370  -18.7390  -19.1580 O.co2     1 BHC1297     0.0000 
     20 O52       -11.2220  -18.6520  -18.1760 O.co2     1 BHC1297     0.0000 
     21 C6        -10.6770  -16.4340  -20.0550 C.ar      1 BHC1297     0.0000 
     22 CO6       -10.5810  -15.8490  -18.6850 C.2       1 BHC1297     0.0000 
     23 O61       -11.5800  -15.3000  -18.1810 O.co2     1 BHC1297     0.0000 
     24 O62        -9.4990  -15.8650  -18.0430 O.co2     1 BHC1297     0.0000 
@<TRIPOS>BOND
     1    2    1 1    
     2    5    1 ar   
     3   21    1 ar   
     4    3    2 ar   
     5    4    2 ar   
     6    6    5 1    
     7    9    5 ar   
     8    7    6 ar   
     9    8    6 ar   
    10   10    9 1    
    11   13    9 ar   
    12   11   10 ar   
    13   12   10 ar   
    14   14   13 1    
    15   17   13 ar   
    16   15   14 ar   
    17   16   14 ar   
    18   18   17 1    
    19   21   17 ar   
    20   19   18 ar   
    21   20   18 ar   
    22   22   21 1    
    23   23   22 ar   
    24   24   22 ar   
@<TRIPOS>SUBSTRUCTURE
     1 BHC1297     1 GROUP   
@<TRIPOS>SET

