#    Name: 3aqv_TAK_1_INTS_M
#    Modification time : Mon Mar 24 18:03:10 2014

@<TRIPOS>MOLECULE
3aqv_TAK_1_INTS_M
   61     0     6     0     0
SMALL
NO_CHARGES


@<TRIPOS>ATOM
      1 CA         -8.5295   41.5175    4.2600 C.3       2 GLC5        0.0000 
      2 CA         -9.1760   39.4670    3.8650 C.3       6 GLL5        0.0000 
      3 CA         -7.8830   43.5680    4.6550 C.3       4 GLP5        0.0000 
      4 CA         -8.1880   36.0205    1.1180 C.3       2 GLC5        0.0000 
      5 CA         -8.3680   37.4970    2.5040 C.3       6 GLL5        0.0000 
      6 CA         -8.0080   34.5440   -0.2680 C.3       4 GLP5        0.0000 
      7 CA         -9.5585   35.5395    2.2950 C.3       2 GLC5        0.0000 
      8 CA         -8.8620   36.8750    3.8370 C.3       6 GLL5        0.0000 
      9 CA        -10.2550   34.2040    0.7530 C.3       4 GLP5        0.0000 
     10 CA         -9.3620   42.1370    5.2715 C.3       2 GLC5        0.0000 
     11 CA        -10.8410   40.7060    5.8880 C.3       6 GLL5        0.0000 
     12 CA         -8.2450   48.0185    6.8045 C.3       2 GLC5        0.0000 
     13 CA         -8.1650   46.7480    8.5280 C.3       6 GLL5        0.0000 
     14 CA         -8.3250   49.2890    5.0810 C.3       4 GLP5        0.0000 
     15 CA         -6.5175   47.6555    7.4365 C.3       2 GLC5        0.0000 
     16 CA         -4.8700   48.5630    6.3450 C.3       4 GLP5        0.0000 
     17 CA         -7.1365   46.9655   11.4300 C.3       2 GLC5        0.0000 
     18 CA         -6.2970   47.7750    9.5750 C.3       6 GLL5        0.0000 
     19 CA         -7.9760   46.1560   13.2850 C.3       4 GLP5        0.0000 
     20 N          -9.0405   49.5375    8.1085 N.am      1 SEC2        0.0000 
     21 N          -7.8350   49.1160    8.9070 N.am      5 SEL2        0.0000 
     22 N         -10.2460   49.9590    7.3100 N.am      3 SEP2        0.0000 
     23 CA         -4.8480   52.6680    9.6230 C.3       2 GLC5        0.0000 
     24 CA         -4.4380   50.8580   10.7220 C.3       6 GLL5        0.0000 
     25 CA         -5.2580   54.4780    8.5240 C.3       4 GLP5        0.0000 
     26 CA         -2.2970   51.9780   12.8615 C.3       2 GLC5        0.0000 
     27 CA         -3.2470   51.3800   11.2440 C.3       6 GLL5        0.0000 
     28 CA         -1.3470   52.5760   14.4790 C.3       4 GLP5        0.0000 
     29 CA         -3.3820   53.2900   11.9745 C.3       2 GLC5        0.0000 
     30 CA         -3.5170   55.2000   12.7050 C.3       4 GLP5        0.0000 
     31 CA         -2.8220   48.1845   13.0590 C.3       2 GLC5        0.0000 
     32 CA         -2.4150   49.2300   11.3490 C.3       6 GLL5        0.0000 
     33 CA         -3.2290   47.1390   14.7690 C.3       4 GLP5        0.0000 
     34 CA         -1.2030   48.8515   13.1995 C.3       2 GLC5        0.0000 
     35 CA          0.0090   48.4730   15.0500 C.3       4 GLP5        0.0000 
     36 CA         -4.1725   48.9715   12.8235 C.3       2 GLC5        0.0000 
     37 CA         -3.5780   48.6590   10.8020 C.3       6 GLL5        0.0000 
     38 CA         -4.7670   49.2840   14.8450 C.3       4 GLP5        0.0000 
     39 CA         -6.5225   38.3503    2.8538 C.3       2 GLC5        0.0000 
     40 CA         -8.6120   39.0200    2.5110 C.3       6 GLL5        0.0000 
     41 CA         -4.5550   38.4420    3.2000 C.3       4 GLP5        0.0000 
     42 CA         -7.4365   38.7037    0.8183 C.3       2 GLC5        0.0000 
     43 CA         -6.3830   39.1490   -0.8710 C.3       4 GLP5        0.0000 
     44 CA         -8.7605   43.0153    5.9830 C.3       2 GLC5        0.0000 
     45 CA         -9.2530   41.8740    7.3430 C.3       6 GLL5        0.0000 
     46 CA         -8.3513   43.9157    6.3438 C.3       2 GLC5        0.0000 
     47 CA         -9.4570   44.2510    7.7470 C.3       6 GLL5        0.0000 
     48 CA         -7.7893   43.0322    6.3855 C.3       2 GLC5        0.0000 
     49 CA         -7.4190   43.0910    8.3430 C.3       6 GLL5        0.0000 
     50 CA         -8.0104   44.2164   10.5246 C.3       2 GLC5        0.0000 
     51 CA         -8.3230   43.8520   12.5080 C.3       4 GLP5        0.0000 
     52 CA         -5.1205   48.7632    8.2264 C.3       2 GLC5        0.0000 
     53 CA         -4.6520   49.5010   10.4840 C.3       6 GLL5        0.0000 
     54 CA         -6.2749   50.4102   11.6380 C.3       2 GLC5        0.0000 
     55 CA         -7.6970   50.7470   12.8220 C.3       4 GLP5        0.0000 
     56 CA         -4.3315   50.0319   12.8842 C.3       2 GLC5        0.0000 
     57 CA         -2.6960   50.6844    9.3117 C.3       2 GLC5        0.0000 
     58 CA         -1.4960   50.5890    7.7000 C.3       4 GLP5        0.0000 
     59 CA         -2.2462   49.7667    9.3878 C.3       2 GLC5        0.0000 
     60 CA         -2.4997   47.2392   10.6582 C.3       2 GLC5        0.0000 
     61 CA         -2.0030   45.5340   10.2410 C.3       4 GLP5        0.0000 
@<TRIPOS>BOND
@<TRIPOS>SUBSTRUCTURE
     1 SEC2       20 GROUP        1 X    SEC  0     ROOT SEC X 2
     2 GLC5        1 GROUP        1 X    GLC  0     **** GLC X 6
     3 SEP2       22 GROUP        1 Y    SEP  0     ROOT SEP Y 9
     4 GLP5        3 GROUP        1 Y    GLP  0     **** GLP Y 13
     5 SEL2       21 GROUP        1 Z    SEL  0     ROOT SEL Z 16
     6 GLL5        2 GROUP        1 Z    GLL  0     **** GLL Z 20
@<TRIPOS>SET

