#    Name: 3aqv_TAK_1_ligand
#    Modification time : Mon Mar 24 18:03:10 2014

@<TRIPOS>MOLECULE
3aqv_TAK_1_ligand
   56    60     1     0     0
SMALL
NO_CHARGES


@<TRIPOS>ATOM
      1 C1         -9.1760   39.4670    3.8650 C.3       1 TAK1        0.0000 
      2 C2         -8.6120   39.0200    2.5110 C.3       1 TAK1        0.0000 
      3 C3         -8.3680   37.4970    2.5040 C.3       1 TAK1        0.0000 
      4 C4         -8.8620   36.8750    3.8370 C.3       1 TAK1        0.0000 
      5 C5        -10.3010   37.3280    4.1650 C.3       1 TAK1        0.0000 
      6 N1        -10.4770   38.8150    4.1480 N.4       1 TAK1        0.0000 
      7 C6        -11.1850   39.2540    5.3880 C.3       1 TAK1        0.0000 
      8 C7        -10.8410   40.7060    5.8880 C.3       1 TAK1        0.0000 
      9 O1         -9.7350   40.6560    6.8950 O.3       1 TAK1        0.0000 
     10 C8         -9.2530   41.8740    7.3430 C.ar      1 TAK1        0.0000 
     11 C9        -10.0230   43.0510    7.2790 C.ar      1 TAK1        0.0000 
     12 C10        -9.4570   44.2510    7.7470 C.ar      1 TAK1        0.0000 
     13 C11        -7.9720   41.9020    7.8890 C.ar      1 TAK1        0.0000 
     14 C12        -7.4190   43.0910    8.3430 C.ar      1 TAK1        0.0000 
     15 C13        -8.1820   44.2760    8.3180 C.ar      1 TAK1        0.0000 
     16 C14        -7.5950   45.4780    8.7520 C.2       1 TAK1        0.0000 
     17 C15        -8.1650   46.7480    8.5280 C.2       1 TAK1        0.0000 
     18 C16        -6.3680   45.4500    9.3400 C.2       1 TAK1        0.0000 
     19 N2         -5.7660   46.5550    9.7510 N.2       1 TAK1        0.0000 
     20 C17        -6.2970   47.7750    9.5750 C.2       1 TAK1        0.0000 
     21 N3         -7.5330   47.8910    8.9840 N.pl3     1 TAK1        0.0000 
     22 N4         -7.8350   49.1160    8.9070 N.2       1 TAK1        0.0000 
     23 C18        -6.8550   49.8940    9.4230 C.2       1 TAK1        0.0000 
     24 C19        -5.8830   49.0770    9.8880 C.2       1 TAK1        0.0000 
     25 C20        -4.6520   49.5010   10.4840 C.ar      1 TAK1        0.0000 
     26 C21        -4.4380   50.8580   10.7220 C.ar      1 TAK1        0.0000 
     27 C22        -3.2470   51.3800   11.2440 C.ar      1 TAK1        0.0000 
     28 N5         -2.2840   50.5340   11.5530 N.ar      1 TAK1        0.0000 
     29 C23        -2.4150   49.2300   11.3490 C.ar      1 TAK1        0.0000 
     30 C24        -3.5780   48.6590   10.8020 C.ar      1 TAK1        0.0000 
     31 H          -9.2908   40.5562    3.8482 H         1 TAK1        0.0000 
     32 H          -8.4464   39.2159    4.6424 H         1 TAK1        0.0000 
     33 H          -7.6721   39.5298    2.3261 H         1 TAK1        0.0000 
     34 H          -9.3190   39.2687    1.7263 H         1 TAK1        0.0000 
     35 H          -7.3100   37.3039    2.3963 H         1 TAK1        0.0000 
     36 H          -8.9126   37.0504    1.6841 H         1 TAK1        0.0000 
     37 H          -8.1979   37.1860    4.6380 H         1 TAK1        0.0000 
     38 H          -8.8388   35.7927    3.7503 H         1 TAK1        0.0000 
     39 H         -10.5679   36.9293    5.1570 H         1 TAK1        0.0000 
     40 H         -10.9819   36.8606    3.4355 H         1 TAK1        0.0000 
     41 H         -11.1585   39.0266    3.2815 H         1 TAK1        0.0000 
     42 H         -10.9619   38.5599    6.2232 H         1 TAK1        0.0000 
     43 H         -12.2827   39.2120    5.2382 H         1 TAK1        0.0000 
     44 H         -11.7406   41.1268    6.3242 H         1 TAK1        0.0000 
     45 H         -10.5488   41.2924    5.0234 H         1 TAK1        0.0000 
     46 H         -10.9634   43.0337    6.9043 H         1 TAK1        0.0000 
     47 H          -9.9974   45.1277    7.6651 H         1 TAK1        0.0000 
     48 H          -7.4283   41.0251    7.9559 H         1 TAK1        0.0000 
     49 H          -6.4577   43.1178    8.6980 H         1 TAK1        0.0000 
     50 H          -9.0584   46.8128    8.0202 H         1 TAK1        0.0000 
     51 H          -5.8962   44.5127    9.4646 H         1 TAK1        0.0000 
     52 H          -6.8513   50.8534    9.4531 H         1 TAK1        0.0000 
     53 H          -5.2150   51.5323   10.4973 H         1 TAK1        0.0000 
     54 H          -3.1651   52.3947   11.3672 H         1 TAK1        0.0000 
     55 H          -1.6330   48.5650   11.5963 H         1 TAK1        0.0000 
     56 H          -3.6358   47.6596   10.6421 H         1 TAK1        0.0000 
@<TRIPOS>BOND
     1    2    1 1    
     2    6    1 1    
     3   31    1 1    
     4   32    1 1    
     5    3    2 1    
     6   33    2 1    
     7   34    2 1    
     8    4    3 1    
     9   35    3 1    
    10   36    3 1    
    11    5    4 1    
    12   37    4 1    
    13   38    4 1    
    14    6    5 1    
    15   39    5 1    
    16   40    5 1    
    17    7    6 1    
    18   41    6 1    
    19    8    7 1    
    20   42    7 1    
    21   43    7 1    
    22    9    8 1    
    23   44    8 1    
    24   45    8 1    
    25   10    9 1    
    26   11   10 ar   
    27   13   10 ar   
    28   12   11 ar   
    29   46   11 1    
    30   15   12 ar   
    31   47   12 1    
    32   14   13 ar   
    33   48   13 1    
    34   15   14 ar   
    35   49   14 1    
    36   16   15 1    
    37   17   16 2    
    38   18   16 1    
    39   21   17 1    
    40   50   17 1    
    41   19   18 2    
    42   51   18 1    
    43   20   19 1    
    44   21   20 1    
    45   24   20 2    
    46   22   21 1    
    47   23   22 2    
    48   24   23 1    
    49   52   23 1    
    50   25   24 1    
    51   26   25 ar   
    52   30   25 ar   
    53   27   26 ar   
    54   53   26 1    
    55   28   27 ar   
    56   54   27 1    
    57   29   28 ar   
    58   30   29 ar   
    59   55   29 1    
    60   56   30 1    
@<TRIPOS>SUBSTRUCTURE
     1 TAK1        1 GROUP   
@<TRIPOS>SET

