#    Name: 3t0i_SAH_2_INTS_M
#    Modification time : Mon Mar 24 18:58:32 2014

@<TRIPOS>MOLECULE
3t0i_SAH_2_INTS_M
   75     0    12     0     0
SMALL
NO_CHARGES


@<TRIPOS>ATOM
      1 O          31.8895  -23.2680  -41.1815 O.2       1 ALC1        0.0000 
      2 O          30.9750  -22.2700  -40.9960 O.2       9 ALL1        0.0000 
      3 O          32.8040  -24.2660  -41.3670 O.2       5 ALP1        0.0000 
      4 O          31.2400  -20.5780  -40.7610 O.2       1 ALC1        0.0000 
      5 O          31.5050  -18.8860  -40.5260 O.2       5 ALP1        0.0000 
      6 O          29.8455  -22.9140  -40.4220 O.2       1 ALC1        0.0000 
      7 O          28.7160  -23.5580  -39.8480 O.2       5 ALP1        0.0000 
      8 CA         32.9300  -22.0370  -41.3705 C.3       4 GLC5        0.0000 
      9 CA         30.9770  -21.5220  -42.2620 C.3      12 GLL5        0.0000 
     10 CA         34.8830  -22.5520  -40.4790 C.3       8 GLP5        0.0000 
     11 CA         29.8080  -22.9220  -45.7325 C.3       4 GLC5        0.0000 
     12 CA         29.4510  -24.5560  -44.7150 C.3      12 GLL5        0.0000 
     13 CA         30.1650  -21.2880  -46.7500 C.3       8 GLP5        0.0000 
     14 NZ         28.3610  -19.4155  -40.8855 N.4       3 LYC4        0.0000 
     15 NZ         28.8960  -20.7460  -41.4130 N.4      11 LYL4        0.0000 
     16 NZ         28.2970  -16.9870  -40.9330 N.4       7 LYP4        0.0000 
     17 N          28.3610  -19.4155  -40.8855 N.am      2 SEC2        0.0000 
     18 N          28.8960  -20.7460  -41.4130 N.am     10 SEL2        0.0000 
     19 N          27.8260  -18.0850  -40.3580 N.am      6 SEP2        0.0000 
     20 NZ         29.4435  -18.3720  -42.5710 N.4       3 LYC4        0.0000 
     21 NZ         29.7840  -19.6720  -43.1520 N.4      11 LYL4        0.0000 
     22 N          29.4435  -18.3720  -42.5710 N.am      2 SEC2        0.0000 
     23 N          29.7840  -19.6720  -43.1520 N.am     10 SEL2        0.0000 
     24 N          29.1030  -17.0720  -41.9900 N.am      6 SEP2        0.0000 
     25 N          29.5850  -19.3700  -44.5965 N.am      2 SEC2        0.0000 
     26 N          29.3860  -19.0680  -46.0410 N.am      6 SEP2        0.0000 
     27 CA         28.2565  -27.3275  -43.7060 C.3       4 GLC5        0.0000 
     28 CA         30.0510  -26.1240  -43.9860 C.3      12 GLL5        0.0000 
     29 CA         26.4620  -28.5310  -43.4260 C.3       8 GLP5        0.0000 
     30 CA         32.7520  -26.2015  -42.2075 C.3       4 GLC5        0.0000 
     31 CA         31.5740  -26.1830  -43.8550 C.3      12 GLL5        0.0000 
     32 CA         33.9300  -26.2200  -40.5600 C.3       8 GLP5        0.0000 
     33 CA         33.2710  -24.9540  -46.8540 C.3       4 GLC5        0.0000 
     34 CA         32.2410  -25.9910  -45.2210 C.3      12 GLL5        0.0000 
     35 CA         34.3010  -23.9170  -48.4870 C.3       8 GLP5        0.0000 
     36 O          34.3020  -25.4575  -44.4365 O.2       1 ALC1        0.0000 
     37 O          33.3260  -25.0670  -45.1020 O.2       9 ALL1        0.0000 
     38 O          35.2780  -25.8480  -43.7710 O.2       5 ALP1        0.0000 
     39 O          34.6140  -26.5550  -45.0535 O.2       1 ALC1        0.0000 
     40 O          33.9500  -27.2620  -46.3360 O.2       9 ALL1        0.0000 
     41 O          35.2760  -26.5300  -45.9225 O.2       1 ALC1        0.0000 
     42 O          36.6020  -25.7980  -45.5090 O.2       5 ALP1        0.0000 
     43 CA         33.5380  -27.0270  -42.3435 C.3       4 GLC5        0.0000 
     44 CA         33.1460  -27.8340  -44.1270 C.3      12 GLL5        0.0000 
     45 CA         32.0760  -31.8400  -42.9240 C.3       4 GLC5        0.0000 
     46 CA         34.0980  -31.2610  -43.3890 C.3      12 GLL5        0.0000 
     47 CA         30.0540  -32.4190  -42.4590 C.3       8 GLP5        0.0000 
     48 CA         36.8720  -32.7220  -41.8665 C.3       4 GLC5        0.0000 
     49 CA         34.9060  -32.1160  -42.6610 C.3      12 GLL5        0.0000 
     50 CA         38.8380  -33.3280  -41.0720 C.3       8 GLP5        0.0000 
     51 CA         34.6880  -32.5285  -40.9425 C.3       4 GLC5        0.0000 
     52 CA         34.4700  -32.9410  -39.2240 C.3       8 GLP5        0.0000 
     53 N          36.3005  -32.4120  -40.8365 N.am      2 SEC2        0.0000 
     54 N          35.8260  -31.5890  -41.8330 N.am     10 SEL2        0.0000 
     55 N          36.7750  -33.2350  -39.8400 N.am      6 SEP2        0.0000 
     56 CA         36.9560  -28.5880  -42.1685 C.3       4 GLC5        0.0000 
     57 CA         35.9550  -30.2820  -41.7090 C.3      12 GLL5        0.0000 
     58 CA         37.9570  -26.8940  -42.6280 C.3       8 GLP5        0.0000 
     59 CA         36.5670  -30.5095  -43.5695 C.3       4 GLC5        0.0000 
     60 CA         37.1790  -30.7370  -45.4300 C.3       8 GLP5        0.0000 
     61 CA         37.3965  -31.8050  -41.3905 C.3       4 GLC5        0.0000 
     62 CA         34.3765  -30.1940  -40.8765 C.3       4 GLC5        0.0000 
     63 CA         32.7980  -30.1060  -40.0440 C.3       8 GLP5        0.0000 
     64 N          36.4825  -29.0485  -43.3270 N.am      2 SEC2        0.0000 
     65 N          35.1970  -29.4380  -42.3890 N.am     10 SEL2        0.0000 
     66 N          37.7680  -28.6590  -44.2650 N.am      6 SEP2        0.0000 
     67 CA         32.8440  -22.1343  -43.5570 C.3       4 GLC5        0.0000 
     68 CA         30.8750  -22.4970  -43.4380 C.3      12 GLL5        0.0000 
     69 CA         34.7620  -22.2590  -44.2640 C.3       8 GLP5        0.0000 
     70 CA         30.2140  -22.1195  -45.0610 C.3       4 GLC5        0.0000 
     71 CA         30.5688  -26.5528  -42.0912 C.3       4 GLC5        0.0000 
     72 CA         30.3250  -26.9520  -40.2620 C.3       8 GLP5        0.0000 
     73 CA         33.4895  -30.3418  -41.6782 C.3       4 GLC5        0.0000 
     74 CA         35.7810  -30.7641  -44.2803 C.3       4 GLC5        0.0000 
     75 CA         34.2640  -29.8940  -43.2360 C.3      12 GLL5        0.0000 
@<TRIPOS>BOND
@<TRIPOS>SUBSTRUCTURE
     1 ALC1        1 GROUP        1 X    ALC  0     ROOT ALC X 1
     2 SEC2       17 GROUP        1 X    SEC  0     **** SEC X 2
     3 LYC4       14 GROUP        1 X    LYC  0     **** LYC X 4
     4 GLC5        8 GROUP        1 X    GLC  0     **** GLC X 6
     5 ALP1        3 GROUP        1 Y    ALP  0     ROOT ALP Y 8
     6 SEP2       19 GROUP        1 Y    SEP  0     **** SEP Y 9
     7 LYP4       16 GROUP        1 Y    LYP  0     **** LYP Y 11
     8 GLP5       10 GROUP        1 Y    GLP  0     **** GLP Y 13
     9 ALL1        2 GROUP        1 Z    ALL  0     ROOT ALL Z 15
    10 SEL2       18 GROUP        1 Z    SEL  0     **** SEL Z 16
    11 LYL4       15 GROUP        1 Z    LYL  0     **** LYL Z 18
    12 GLL5        9 GROUP        1 Z    GLL  0     **** GLL Z 20
@<TRIPOS>SET

