#    Name: 3t0i_SAH_2_ligand
#    Modification time : Mon Mar 24 18:58:32 2014

@<TRIPOS>MOLECULE
3t0i_SAH_2_ligand
   46    48     1     0     0
SMALL
NO_CHARGES


@<TRIPOS>ATOM
      1 N          30.9750  -22.2700  -40.9960 N.4       1 SAH301      0.0000 
      2 CA         30.9770  -21.5220  -42.2620 C.3       1 SAH301      0.0000 
      3 CB         30.8750  -22.4970  -43.4380 C.3       1 SAH301      0.0000 
      4 CG         29.6510  -23.4050  -43.3060 C.3       1 SAH301      0.0000 
      5 SD         29.4510  -24.5560  -44.7150 S.3       1 SAH301      0.0000 
      6 C          29.7820  -20.5650  -42.2790 C.2       1 SAH301      0.0000 
      7 O          28.8960  -20.7460  -41.4130 O.co2     1 SAH301      0.0000 
      8 OXT        29.7840  -19.6720  -43.1520 O.co2     1 SAH301      0.0000 
      9 C5'        30.0510  -26.1240  -43.9860 C.3       1 SAH301      0.0000 
     10 C4'        31.5740  -26.1830  -43.8550 C.3       1 SAH301      0.0000 
     11 O4'        31.9530  -27.4950  -43.4030 O.3       1 SAH301      0.0000 
     12 C3'        32.2410  -25.9910  -45.2210 C.3       1 SAH301      0.0000 
     13 O3'        33.3260  -25.0670  -45.1020 O.3       1 SAH301      0.0000 
     14 C2'        32.7690  -27.3900  -45.5400 C.3       1 SAH301      0.0000 
     15 O2'        33.9500  -27.2620  -46.3360 O.3       1 SAH301      0.0000 
     16 C1'        33.1460  -27.8340  -44.1270 C.3       1 SAH301      0.0000 
     17 N9         33.3820  -29.2930  -44.0320 N.pl3     1 SAH301      0.0000 
     18 C8         32.7010  -30.2420  -44.6710 C.2       1 SAH301      0.0000 
     19 N7         33.1210  -31.4410  -44.2830 N.2       1 SAH301      0.0000 
     20 C5         34.0980  -31.2610  -43.3890 C.ar      1 SAH301      0.0000 
     21 C6         34.9060  -32.1160  -42.6610 C.ar      1 SAH301      0.0000 
     22 N6         34.7740  -33.4350  -42.7670 N.pl3     1 SAH301      0.0000 
     23 N1         35.8260  -31.5890  -41.8330 N.ar      1 SAH301      0.0000 
     24 C2         35.9550  -30.2820  -41.7090 C.ar      1 SAH301      0.0000 
     25 N3         35.1970  -29.4380  -42.3890 N.ar      1 SAH301      0.0000 
     26 C4         34.2640  -29.8940  -43.2360 C.ar      1 SAH301      0.0000 
     27 H          31.8757  -20.9510  -42.3621 H         1 SAH301      0.0000 
     28 H          31.7755  -23.1114  -43.4727 H         1 SAH301      0.0000 
     29 H          30.8031  -21.9306  -44.3673 H         1 SAH301      0.0000 
     30 H          28.7173  -22.8746  -43.3179 H         1 SAH301      0.0000 
     31 H          29.7030  -24.0805  -42.4727 H         1 SAH301      0.0000 
     32 H          29.6480  -26.8529  -44.6636 H         1 SAH301      0.0000 
     33 H          29.5362  -26.1427  -43.0440 H         1 SAH301      0.0000 
     34 H          31.9093  -25.4289  -43.1962 H         1 SAH301      0.0000 
     35 H          31.5149  -25.7289  -45.9203 H         1 SAH301      0.0000 
     36 H          32.0222  -27.9698  -45.9060 H         1 SAH301      0.0000 
     37 H          33.9615  -27.2656  -43.7980 H         1 SAH301      0.0000 
     38 H          31.9922  -30.0778  -45.3321 H         1 SAH301      0.0000 
     39 H          35.4256  -33.9858  -42.2453 H         1 SAH301      0.0000 
     40 H          34.0351  -33.7571  -43.3588 H         1 SAH301      0.0000 
     41 H          36.6891  -29.8944  -41.0436 H         1 SAH301      0.0000 
     42 H          31.0368  -21.6614  -40.2049 H         1 SAH301      0.0000 
     43 H          30.1411  -22.8107  -40.8854 H         1 SAH301      0.0000 
     44 H          31.7455  -22.9047  -40.9385 H         1 SAH301      0.0000 
     45 H          33.7536  -25.2818  -44.2239 H         1 SAH301      0.0000 
     46 H          34.5903  -26.7452  -45.7677 H         1 SAH301      0.0000 
@<TRIPOS>BOND
     1    2    1 1    
     2   42    1 1    
     3   43    1 1    
     4   44    1 1    
     5    3    2 1    
     6    6    2 1    
     7   27    2 1    
     8    4    3 1    
     9   28    3 1    
    10   29    3 1    
    11    5    4 1    
    12   30    4 1    
    13   31    4 1    
    14    9    5 1    
    15    7    6 ar   
    16    8    6 ar   
    17   10    9 1    
    18   32    9 1    
    19   33    9 1    
    20   11   10 1    
    21   12   10 1    
    22   34   10 1    
    23   16   11 1    
    24   13   12 1    
    25   14   12 1    
    26   35   12 1    
    27   45   13 1    
    28   15   14 1    
    29   16   14 1    
    30   36   14 1    
    31   46   15 1    
    32   17   16 1    
    33   37   16 1    
    34   18   17 1    
    35   26   17 1    
    36   19   18 2    
    37   38   18 1    
    38   20   19 1    
    39   21   20 ar   
    40   26   20 ar   
    41   22   21 1    
    42   23   21 ar   
    43   39   22 1    
    44   40   22 1    
    45   24   23 ar   
    46   25   24 ar   
    47   41   24 1    
    48   26   25 ar   
@<TRIPOS>SUBSTRUCTURE
     1 SAH301      1 GROUP   
@<TRIPOS>SET

