#    Name: 1j20_AMP_3_INTS_M
#    Modification time : Tue Mar 25 08:33:05 2014

@<TRIPOS>MOLECULE
1j20_AMP_3_INTS_M
   44     0     9     0     0
SMALL
NO_CHARGES


@<TRIPOS>ATOM
      1 N          -0.8900   88.4260   12.1985 N.am      2 SEC2        0.0000 
      2 N          -0.2650   88.7420   10.7070 N.am      8 SEL2        0.0000 
      3 N          -1.5150   88.1100   13.6900 N.am      5 SEP2        0.0000 
      4 N          -7.7935   92.2290   11.5735 N.am      2 SEC2        0.0000 
      5 N          -6.7220   92.9680   11.9490 N.am      8 SEL2        0.0000 
      6 N          -8.8650   91.4900   11.1980 N.am      5 SEP2        0.0000 
      7 O          -6.9335   94.3655   12.0840 O.2       1 ALC1        0.0000 
      8 O          -6.7220   92.9680   11.9490 O.2       7 ALL1        0.0000 
      9 O          -7.1450   95.7630   12.2190 O.2       4 ALP1        0.0000 
     10 CA         -5.4265   91.4855   14.7430 C.3       3 GLC5        0.0000 
     11 CA         -4.8880   92.4670   13.4940 C.3       9 GLL5        0.0000 
     12 CA         -5.9650   90.5040   15.9920 C.3       6 GLP5        0.0000 
     13 CA         -1.1965   96.7320   16.8615 C.3       3 GLC5        0.0000 
     14 CA         -1.3240   95.6530   15.0520 C.3       9 GLL5        0.0000 
     15 CA         -1.0690   97.8110   18.6710 C.3       6 GLP5        0.0000 
     16 O           0.5840   96.9190   15.8885 O.2       1 ALC1        0.0000 
     17 O           0.0400   95.7660   15.2140 O.2       7 ALL1        0.0000 
     18 O           1.1280   98.0720   16.5630 O.2       4 ALP1        0.0000 
     19 N          -1.8640   97.9170   16.0475 N.am      2 SEC2        0.0000 
     20 N          -2.2850   96.6430   15.3850 N.am      8 SEL2        0.0000 
     21 N          -1.4430   99.1910   16.7100 N.am      5 SEP2        0.0000 
     22 CA         -5.6595   96.4090   14.8420 C.3       3 GLC5        0.0000 
     23 CA         -3.6520   96.4620   15.2030 C.3       9 GLL5        0.0000 
     24 CA         -7.6670   96.3560   14.4810 C.3       6 GLP5        0.0000 
     25 CA         -3.2460   98.4345   15.1955 C.3       3 GLC5        0.0000 
     26 CA         -2.8400  100.4070   15.1880 C.3       6 GLP5        0.0000 
     27 CA         -4.3170   95.3865   16.7610 C.3       3 GLC5        0.0000 
     28 CA         -4.9820   94.3110   18.3190 C.3       6 GLP5        0.0000 
     29 CA         -5.3680   94.6240   14.6250 C.3       3 GLC5        0.0000 
     30 CA         -3.2570   94.3480   14.3640 C.3       9 GLL5        0.0000 
     31 CA         -7.4790   94.9000   14.8860 C.3       6 GLP5        0.0000 
     32 CA         -5.2505   89.7188   13.7408 C.3       3 GLC5        0.0000 
     33 CA         -4.7050   90.5180   12.0600 C.3       9 GLL5        0.0000 
     34 CA         -6.4370   89.3430   15.4040 C.3       6 GLP5        0.0000 
     35 CA         -5.4838   93.4442   10.1160 C.3       3 GLC5        0.0000 
     36 CA         -4.6200   91.8360   11.0800 C.3       9 GLL5        0.0000 
     37 CA         -5.9940   94.5270    8.6800 C.3       6 GLP5        0.0000 
     38 CA         -6.8223   91.6492   10.7145 C.3       3 GLC5        0.0000 
     39 CA         -5.3270   92.8870   12.0240 C.3       9 GLL5        0.0000 
     40 CA         -8.6710   90.9370    9.8770 C.3       6 GLP5        0.0000 
     41 CA         -6.2933   93.7885   13.8225 C.3       3 GLC5        0.0000 
     42 CA         -2.3795   93.8360   16.1336 C.3       3 GLC5        0.0000 
     43 CA         -1.8220   94.4310   14.5050 C.3       9 GLL5        0.0000 
     44 CA         -2.3440   92.9770   17.6960 C.3       6 GLP5        0.0000 
@<TRIPOS>BOND
@<TRIPOS>SUBSTRUCTURE
     1 ALC1        7 GROUP        1 X    ALC  0     ROOT ALC X 1
     2 SEC2        1 GROUP        1 X    SEC  0     **** SEC X 2
     3 GLC5       10 GROUP        1 X    GLC  0     **** GLC X 6
     4 ALP1        9 GROUP        1 Y    ALP  0     ROOT ALP Y 8
     5 SEP2        3 GROUP        1 Y    SEP  0     **** SEP Y 9
     6 GLP5       12 GROUP        1 Y    GLP  0     **** GLP Y 13
     7 ALL1        8 GROUP        1 Z    ALL  0     ROOT ALL Z 15
     8 SEL2        2 GROUP        1 Z    SEL  0     **** SEL Z 16
     9 GLL5       11 GROUP        1 Z    GLL  0     **** GLL Z 20
@<TRIPOS>SET

