#    Name: 1j20_AMP_3_ligand
#    Modification time : Tue Mar 25 08:33:05 2014

@<TRIPOS>MOLECULE
1j20_AMP_3_ligand
   35    37     1     0     0
SMALL
NO_CHARGES


@<TRIPOS>ATOM
      1 P          -1.6190   89.4230   10.0620 P.3       1 AMP3510     0.0000 
      2 O1P        -1.6570   88.6760    8.5940 O.co2     1 AMP3510     0.0000 
      3 O2P        -0.2650   88.7420   10.7070 O.co2     1 AMP3510     0.0000 
      4 O3P        -1.3530   90.7970    9.8940 O.co2     1 AMP3510     0.0000 
      5 O5'        -2.9080   89.0910   10.7400 O.3       1 AMP3510     0.0000 
      6 C5'        -3.4230   89.6710   12.0950 C.3       1 AMP3510     0.0000 
      7 C4'        -4.7050   90.5180   12.0600 C.3       1 AMP3510     0.0000 
      8 O4'        -4.8490   90.9930   13.4540 O.3       1 AMP3510     0.0000 
      9 C3'        -4.6200   91.8360   11.0800 C.3       1 AMP3510     0.0000 
     10 O3'        -5.3320   91.3930    9.8610 O.3       1 AMP3510     0.0000 
     11 C2'        -5.3270   92.8870   12.0240 C.3       1 AMP3510     0.0000 
     12 O2'        -6.7220   92.9680   11.9490 O.3       1 AMP3510     0.0000 
     13 C1'        -4.8880   92.4670   13.4940 C.3       1 AMP3510     0.0000 
     14 N9         -3.5080   93.0890   13.8340 N.pl3     1 AMP3510     0.0000 
     15 C8         -2.1950   92.5350   13.6980 C.2       1 AMP3510     0.0000 
     16 N7         -1.1410   93.2980   14.0870 N.2       1 AMP3510     0.0000 
     17 C5         -1.8220   94.4310   14.5050 C.ar      1 AMP3510     0.0000 
     18 C6         -1.3240   95.6530   15.0520 C.ar      1 AMP3510     0.0000 
     19 N6          0.0400   95.7660   15.2140 N.pl3     1 AMP3510     0.0000 
     20 N1         -2.2850   96.6430   15.3850 N.ar      1 AMP3510     0.0000 
     21 C2         -3.6520   96.4620   15.2030 C.ar      1 AMP3510     0.0000 
     22 N3         -4.2010   95.3110   14.6880 N.ar      1 AMP3510     0.0000 
     23 C4         -3.2570   94.3480   14.3640 C.ar      1 AMP3510     0.0000 
     24 H          -2.6031   90.2788   12.5401 H         1 AMP3510     0.0000 
     25 H          -3.5745   88.8191   12.7958 H         1 AMP3510     0.0000 
     26 H          -5.5275   89.9415   11.7748 H         1 AMP3510     0.0000 
     27 H          -3.6251   92.0317   10.9853 H         1 AMP3510     0.0000 
     28 H          -4.8218   93.8395   11.8538 H         1 AMP3510     0.0000 
     29 H          -5.6301   92.8184   14.1537 H         1 AMP3510     0.0000 
     30 H          -2.0917   91.6014   13.3202 H         1 AMP3510     0.0000 
     31 H           0.5838   94.9763   14.9299 H         1 AMP3510     0.0000 
     32 H           0.3672   96.6279   15.6015 H         1 AMP3510     0.0000 
     33 H          -4.2953   97.2518   15.4759 H         1 AMP3510     0.0000 
     34 H          -4.6406   91.4054    9.1387 H         1 AMP3510     0.0000 
     35 H          -6.9082   93.8707   11.5611 H         1 AMP3510     0.0000 
@<TRIPOS>BOND
     1    2    1 ar   
     2    3    1 ar   
     3    4    1 ar   
     4    5    1 1    
     5    6    5 1    
     6    7    6 1    
     7   24    6 1    
     8   25    6 1    
     9    8    7 1    
    10    9    7 1    
    11   26    7 1    
    12   13    8 1    
    13   10    9 1    
    14   11    9 1    
    15   27    9 1    
    16   34   10 1    
    17   12   11 1    
    18   13   11 1    
    19   28   11 1    
    20   35   12 1    
    21   14   13 1    
    22   29   13 1    
    23   15   14 1    
    24   23   14 1    
    25   16   15 2    
    26   30   15 1    
    27   17   16 1    
    28   18   17 ar   
    29   23   17 ar   
    30   19   18 1    
    31   20   18 ar   
    32   31   19 1    
    33   32   19 1    
    34   21   20 ar   
    35   22   21 ar   
    36   33   21 1    
    37   23   22 ar   
@<TRIPOS>SUBSTRUCTURE
     1 AMP3510     1 GROUP   
@<TRIPOS>SET

