#    Name: 1jqd_SAH_3_INTS_M
#    Modification time : Tue Mar 25 09:15:54 2014

@<TRIPOS>MOLECULE
1jqd_SAH_3_INTS_M
   65     0     9     0     0
SMALL
NO_CHARGES


@<TRIPOS>ATOM
      1 O          46.3585   -2.1260   32.4630 O.2       1 ALC1        0.0000 
      2 O          47.1480   -1.8460   31.2020 O.2       7 ALL1        0.0000 
      3 O          45.5690   -2.4060   33.7240 O.2       4 ALP1        0.0000 
      4 O          46.7565   -3.0065   30.4545 O.2       1 ALC1        0.0000 
      5 O          46.3650   -4.1670   29.7070 O.2       4 ALP1        0.0000 
      6 CA         48.2265   -7.7920   33.7590 C.3       3 GLC5        0.0000 
      7 CA         48.2980   -5.9990   34.0800 C.3       9 GLL5        0.0000 
      8 CA         48.1550   -9.5850   33.4380 C.3       6 GLP5        0.0000 
      9 CA         45.5355   -4.2730   34.9370 C.3       3 GLC5        0.0000 
     10 CA         47.4520   -5.2450   35.0640 C.3       9 GLL5        0.0000 
     11 CA         43.6190   -3.3010   34.8100 C.3       6 GLP5        0.0000 
     12 CA         48.1615   -2.6705   36.3170 C.3       3 GLC5        0.0000 
     13 CA         48.2040   -4.9020   36.4420 C.3       9 GLL5        0.0000 
     14 CA         48.1190   -0.4390   36.1920 C.3       6 GLP5        0.0000 
     15 N          49.4465   -2.7240   37.1440 N.am      2 SEC2        0.0000 
     16 N          48.1850   -3.4840   36.8710 N.am      8 SEL2        0.0000 
     17 N          50.7080   -1.9640   37.4170 N.am      5 SEP2        0.0000 
     18 O          47.0740   -2.9855   37.2420 O.2       1 ALC1        0.0000 
     19 O          48.1850   -3.4840   36.8710 O.2       7 ALL1        0.0000 
     20 O          45.9630   -2.4870   37.6130 O.2       4 ALP1        0.0000 
     21 CA         45.8060   -5.9770   38.8580 C.3       3 GLC5        0.0000 
     22 CA         47.4090   -5.8170   37.3450 C.3       9 GLL5        0.0000 
     23 CA         44.2030   -6.1370   40.3710 C.3       6 GLP5        0.0000 
     24 O          46.7780   -4.5370   39.1305 O.2       1 ALC1        0.0000 
     25 O          47.4270   -5.4970   38.7420 O.2       7 ALL1        0.0000 
     26 O          46.1290   -3.5770   39.5190 O.2       4 ALP1        0.0000 
     27 CA         44.8190   -4.5950   35.7195 C.3       3 GLC5        0.0000 
     28 CA         46.0190   -5.8890   36.6290 C.3       9 GLL5        0.0000 
     29 CA         44.7870   -5.4040   38.1855 C.3       3 GLC5        0.0000 
     30 CA         43.5550   -4.9190   39.7420 C.3       6 GLP5        0.0000 
     31 CA         43.8210   -7.2640   38.7845 C.3       3 GLC5        0.0000 
     32 CA         43.4390   -8.3910   37.1980 C.3       9 GLL5        0.0000 
     33 CA         42.2245   -8.6405   39.0200 C.3       3 GLC5        0.0000 
     34 CA         41.0100   -8.8900   40.8420 C.3       6 GLP5        0.0000 
     35 CA         44.3610   -9.8550   36.2150 C.3       3 GLC5        0.0000 
     36 CA         45.2830  -11.3190   35.2320 C.3       6 GLP5        0.0000 
     37 CA         40.8575   -8.6520   38.6315 C.3       3 GLC5        0.0000 
     38 CA         41.9980   -8.6780   37.1740 C.3       9 GLL5        0.0000 
     39 CA         39.7170   -8.6260   40.0890 C.3       6 GLP5        0.0000 
     40 O          42.1660  -11.1690   36.7210 O.2       1 ALC1        0.0000 
     41 O          41.5120   -9.9170   37.3910 O.2       7 ALL1        0.0000 
     42 O          42.8200  -12.4210   36.0510 O.2       4 ALP1        0.0000 
     43 N          39.6880   -7.3755   37.4015 N.am      2 SEC2        0.0000 
     44 N          41.0800   -7.6670   36.9200 N.am      8 SEL2        0.0000 
     45 N          38.2960   -7.0840   37.8830 N.am      5 SEP2        0.0000 
     46 CA         40.4310   -5.4745   35.1910 C.3       3 GLC5        0.0000 
     47 CA         41.5490   -6.3860   36.6440 C.3       9 GLL5        0.0000 
     48 CA         39.3130   -4.5630   33.7380 C.3       6 GLP5        0.0000 
     49 CA         42.5840   -4.8435   35.7270 C.3       3 GLC5        0.0000 
     50 CA         42.5520   -5.6525   38.1930 C.3       3 GLC5        0.0000 
     51 CA         40.4915   -6.7500   38.3420 C.3       3 GLC5        0.0000 
     52 CA         39.4340   -7.1140   40.0400 C.3       6 GLP5        0.0000 
     53 CA         39.5475   -6.7390   36.0915 C.3       3 GLC5        0.0000 
     54 CA         37.5460   -7.0920   35.5390 C.3       6 GLP5        0.0000 
     55 CA         41.6725   -6.8230   34.9770 C.3       3 GLC5        0.0000 
     56 CA         41.7960   -7.2600   33.3100 C.3       6 GLP5        0.0000 
     57 CA         43.6975   -5.1765   35.8345 C.3       3 GLC5        0.0000 
     58 CA         43.7760   -7.0520   36.8590 C.3       9 GLL5        0.0000 
     59 CA         43.6655   -5.9855   38.3005 C.3       3 GLC5        0.0000 
     60 CA         48.8515   -4.6822   30.1970 C.3       3 GLC5        0.0000 
     61 CA         48.6480   -4.1150   32.3770 C.3       9 GLL5        0.0000 
     62 CA         48.7390   -5.7560   28.4170 C.3       6 GLP5        0.0000 
     63 CA         46.3245   -6.1140   33.3460 C.3       3 GLC5        0.0000 
     64 CA         44.7740   -6.6060   32.1200 C.3       6 GLP5        0.0000 
     65 CA         42.5216   -7.5266   35.1663 C.3       3 GLC5        0.0000 
@<TRIPOS>BOND
@<TRIPOS>SUBSTRUCTURE
     1 ALC1        1 GROUP        1 X    ALC  0     ROOT ALC X 1
     2 SEC2       15 GROUP        1 X    SEC  0     **** SEC X 2
     3 GLC5        6 GROUP        1 X    GLC  0     **** GLC X 6
     4 ALP1        3 GROUP        1 Y    ALP  0     ROOT ALP Y 8
     5 SEP2       17 GROUP        1 Y    SEP  0     **** SEP Y 9
     6 GLP5        8 GROUP        1 Y    GLP  0     **** GLP Y 13
     7 ALL1        2 GROUP        1 Z    ALL  0     ROOT ALL Z 15
     8 SEL2       16 GROUP        1 Z    SEL  0     **** SEL Z 16
     9 GLL5        7 GROUP        1 Z    GLL  0     **** GLL Z 20
@<TRIPOS>SET

