#    Name: 1jqd_SAH_3_ligand
#    Modification time : Tue Mar 25 09:15:54 2014

@<TRIPOS>MOLECULE
1jqd_SAH_3_ligand
   46    48     1     0     0
SMALL
NO_CHARGES


@<TRIPOS>ATOM
      1 N          47.1480   -1.8460   31.2020 N.4       1 SAH401      0.0000 
      2 CA         48.6270   -1.7360   31.6160 C.3       1 SAH401      0.0000 
      3 CB         49.2800   -3.1020   31.5770 C.3       1 SAH401      0.0000 
      4 CG         48.6480   -4.1150   32.3770 C.3       1 SAH401      0.0000 
      5 SD         49.6910   -5.0330   33.4680 S.3       1 SAH401      0.0000 
      6 C          49.4980   -0.9540   30.6260 C.2       1 SAH401      0.0000 
      7 O          49.1410   -1.0080   29.4160 O.co2     1 SAH401      0.0000 
      8 OXT        50.6830   -0.6040   30.9650 O.co2     1 SAH401      0.0000 
      9 C5'        48.2980   -5.9990   34.0800 C.3       1 SAH401      0.0000 
     10 C4'        47.4520   -5.2450   35.0640 C.3       1 SAH401      0.0000 
     11 O4'        46.3930   -6.1410   35.3070 O.3       1 SAH401      0.0000 
     12 C3'        48.2040   -4.9020   36.4420 C.3       1 SAH401      0.0000 
     13 O3'        48.1850   -3.4840   36.8710 O.3       1 SAH401      0.0000 
     14 C2'        47.4090   -5.8170   37.3450 C.3       1 SAH401      0.0000 
     15 O2'        47.4270   -5.4970   38.7420 O.3       1 SAH401      0.0000 
     16 C1'        46.0190   -5.8890   36.6290 C.3       1 SAH401      0.0000 
     17 N9         45.1570   -7.0310   36.9160 N.pl3     1 SAH401      0.0000 
     18 C8         45.5700   -8.3420   37.3080 C.2       1 SAH401      0.0000 
     19 N7         44.5760   -9.1280   37.4700 N.2       1 SAH401      0.0000 
     20 C5         43.4390   -8.3910   37.1980 C.ar      1 SAH401      0.0000 
     21 C6         41.9980   -8.6780   37.1740 C.ar      1 SAH401      0.0000 
     22 N6         41.5120   -9.9170   37.3910 N.pl3     1 SAH401      0.0000 
     23 N1         41.0800   -7.6670   36.9200 N.ar      1 SAH401      0.0000 
     24 C2         41.5490   -6.3860   36.6440 C.ar      1 SAH401      0.0000 
     25 N3         42.8800   -6.0180   36.5690 N.ar      1 SAH401      0.0000 
     26 C4         43.7760   -7.0520   36.8590 C.ar      1 SAH401      0.0000 
     27 H          48.7365   -1.3313   32.5774 H         1 SAH401      0.0000 
     28 H          50.3519   -2.9728   31.8797 H         1 SAH401      0.0000 
     29 H          49.3300   -3.4220   30.5035 H         1 SAH401      0.0000 
     30 H          48.1660   -4.9238   31.7937 H         1 SAH401      0.0000 
     31 H          47.8762   -3.7325   33.0732 H         1 SAH401      0.0000 
     32 H          48.7875   -6.8649   34.4966 H         1 SAH401      0.0000 
     33 H          47.7834   -6.2583   33.1685 H         1 SAH401      0.0000 
     34 H          47.1123   -4.3400   34.6319 H         1 SAH401      0.0000 
     35 H          49.1823   -5.3183   36.3443 H         1 SAH401      0.0000 
     36 H          47.8500   -6.8429   37.1628 H         1 SAH401      0.0000 
     37 H          45.5339   -4.9700   36.7102 H         1 SAH401      0.0000 
     38 H          46.5340   -8.5366   37.4193 H         1 SAH401      0.0000 
     39 H          40.5164  -10.0086   37.3728 H         1 SAH401      0.0000 
     40 H          42.1905  -10.6340   37.5509 H         1 SAH401      0.0000 
     41 H          40.8173   -5.6263   36.4767 H         1 SAH401      0.0000 
     42 H          46.9461   -1.2916   30.3947 H         1 SAH401      0.0000 
     43 H          46.8929   -2.7876   30.9822 H         1 SAH401      0.0000 
     44 H          46.5348   -1.5385   31.9296 H         1 SAH401      0.0000 
     45 H          47.2698   -3.1553   36.6376 H         1 SAH401      0.0000 
     46 H          47.3005   -4.5058   38.7820 H         1 SAH401      0.0000 
@<TRIPOS>BOND
     1    2    1 1    
     2   42    1 1    
     3   43    1 1    
     4   44    1 1    
     5    3    2 1    
     6    6    2 1    
     7   27    2 1    
     8    4    3 1    
     9   28    3 1    
    10   29    3 1    
    11    5    4 1    
    12   30    4 1    
    13   31    4 1    
    14    9    5 1    
    15    7    6 ar   
    16    8    6 ar   
    17   10    9 1    
    18   32    9 1    
    19   33    9 1    
    20   11   10 1    
    21   12   10 1    
    22   34   10 1    
    23   16   11 1    
    24   13   12 1    
    25   14   12 1    
    26   35   12 1    
    27   45   13 1    
    28   15   14 1    
    29   16   14 1    
    30   36   14 1    
    31   46   15 1    
    32   17   16 1    
    33   37   16 1    
    34   18   17 1    
    35   26   17 1    
    36   19   18 2    
    37   38   18 1    
    38   20   19 1    
    39   21   20 ar   
    40   26   20 ar   
    41   22   21 1    
    42   23   21 ar   
    43   39   22 1    
    44   40   22 1    
    45   24   23 ar   
    46   25   24 ar   
    47   41   24 1    
    48   26   25 ar   
@<TRIPOS>SUBSTRUCTURE
     1 SAH401      1 GROUP   
@<TRIPOS>SET

