#    Name: 8dfr_NDP_1_INTS_M
#    Modification time : Tue Mar 25 13:59:55 2014

@<TRIPOS>MOLECULE
8dfr_NDP_1_INTS_M
  107     0    12     0     0
SMALL
NO_CHARGES


@<TRIPOS>ATOM
      1 N          20.1555    3.9150   16.8880 N.am      2 SEC2        0.0000 
      2 N          21.0430    3.9280   18.1340 N.am     10 SEL2        0.0000 
      3 N          19.2680    3.9020   15.6420 N.am      6 SEP2        0.0000 
      4 N          21.2720    7.6625   16.8635 N.am      2 SEC2        0.0000 
      5 N          21.1600    6.3240   17.1590 N.am     10 SEL2        0.0000 
      6 N          21.3840    9.0010   16.5680 N.am      6 SEP2        0.0000 
      7 N          20.7365    6.6800   15.9500 N.am      2 SEC2        0.0000 
      8 N          20.3130    7.0360   14.7410 N.am      6 SEP2        0.0000 
      9 N          20.2140    5.1130   16.4005 N.am      2 SEC2        0.0000 
     10 N          22.1740    7.4355   19.2595 N.am      2 SEC2        0.0000 
     11 N          22.2150    5.9080   19.3610 N.am     10 SEL2        0.0000 
     12 N          22.1330    8.9630   19.1580 N.am      6 SEP2        0.0000 
     13 CA         23.4425    6.6435   19.2585 C.3       4 GLC5        0.0000 
     14 CA         22.6730    4.9470   20.3930 C.3      12 GLL5        0.0000 
     15 CA         24.2120    8.3400   18.1240 C.3       8 GLP5        0.0000 
     16 CA         21.6820    7.4280   21.9280 C.3       4 GLC5        0.0000 
     17 CA         22.2540    5.6060   21.7360 C.3      12 GLL5        0.0000 
     18 CA         21.1100    9.2500   22.1200 C.3       8 GLP5        0.0000 
     19 N          20.3965    6.8530   21.1375 N.am      2 SEC2        0.0000 
     20 N          21.0080    5.6460   21.7860 N.am     10 SEL2        0.0000 
     21 N          19.7850    8.0600   20.4890 N.am      6 SEP2        0.0000 
     22 CA         19.4035    5.7730   21.1685 C.3       4 GLC5        0.0000 
     23 CA         20.4060    5.1040   22.9720 C.3      12 GLL5        0.0000 
     24 CA         18.4010    6.4420   19.3650 C.3       8 GLP5        0.0000 
     25 CA         20.7580    7.1770   22.5460 C.3       4 GLC5        0.0000 
     26 CA         19.6430    0.8315   21.6005 C.3       4 GLC5        0.0000 
     27 CA         18.4810    2.1760   22.8870 C.3      12 GLL5        0.0000 
     28 CA         20.8050   -0.5130   20.3140 C.3       8 GLP5        0.0000 
     29 CA         17.9345    2.4850   20.8570 C.3       4 GLC5        0.0000 
     30 CA         17.3880    2.7940   18.8270 C.3       8 GLP5        0.0000 
     31 CA         16.6210    4.0965   24.0325 C.3       4 GLC5        0.0000 
     32 CA         17.6080    2.8900   25.2890 C.3      12 GLL5        0.0000 
     33 CA         15.6340    5.3030   22.7760 C.3       8 GLP5        0.0000 
     34 CA         18.0385    5.0675   25.6170 C.3       4 GLC5        0.0000 
     35 CA         18.4690    7.2450   25.9450 C.3       8 GLP5        0.0000 
     36 CA         18.6290    2.9705   27.0405 C.3       4 GLC5        0.0000 
     37 CA         19.6500    3.0510   28.7920 C.3       8 GLP5        0.0000 
     38 CA         15.7145    2.3120   25.9065 C.3       4 GLC5        0.0000 
     39 CA         13.8210    1.7340   26.5240 C.3       8 GLP5        0.0000 
     40 CA         17.2665    4.2760   23.1455 C.3       4 GLC5        0.0000 
     41 CA         18.8990    3.2490   23.5150 C.3      12 GLL5        0.0000 
     42 N          22.4895    1.8955   15.7235 N.am      2 SEC2        0.0000 
     43 N          23.6510    2.8340   16.1220 N.am     10 SEL2        0.0000 
     44 N          21.3280    0.9570   15.3250 N.am      6 SEP2        0.0000 
     45 CA         24.5615    7.4840   15.8725 C.3       4 GLC5        0.0000 
     46 CA         23.7300    6.3310   14.4990 C.3      12 GLL5        0.0000 
     47 CA         25.3930    8.6370   17.2460 C.3       8 GLP5        0.0000 
     48 CA         22.1685    7.8310   14.9000 C.3       4 GLC5        0.0000 
     49 CA         20.6070    9.3310   15.3010 C.3       8 GLP5        0.0000 
     50 CA         25.2035    4.0915   13.2520 C.3       4 GLC5        0.0000 
     51 CA         24.5290    6.1660   13.2020 C.3      12 GLL5        0.0000 
     52 CA         25.8780    2.0170   13.3020 C.3       8 GLP5        0.0000 
     53 CA         26.4795    8.7695   12.7045 C.3       4 GLC5        0.0000 
     54 CA         24.9360    7.4900   12.4790 C.3      12 GLL5        0.0000 
     55 CA         28.0230   10.0490   12.9300 C.3       8 GLP5        0.0000 
     56 O          27.3310    6.8195   12.2285 O.2       1 ALC1        0.0000 
     57 O          26.1080    7.2340   11.6580 O.2       9 ALL1        0.0000 
     58 O          28.5540    6.4050   12.7990 O.2       5 ALP1        0.0000 
     59 CA         23.3520    9.7795   12.3590 C.3       4 GLC5        0.0000 
     60 CA         23.6140    7.7090   11.6480 C.3      12 GLL5        0.0000 
     61 CA         23.0900   11.8500   13.0700 C.3       8 GLP5        0.0000 
     62 O          25.3965    8.2740    9.7665 O.2       1 ALC1        0.0000 
     63 O          23.9640    8.5380   10.5440 O.2       9 ALL1        0.0000 
     64 O          26.8290    8.0100    8.9890 O.2       5 ALP1        0.0000 
     65 CA         25.0445    5.6105   10.1465 C.3       4 GLC5        0.0000 
     66 CA         23.3670    6.3200   11.1160 C.3      12 GLL5        0.0000 
     67 CA         26.7220    4.9010    9.1770 C.3       8 GLP5        0.0000 
     68 N          18.8275    3.1525    6.3435 N.am      2 SEC2        0.0000 
     69 N          19.1730    4.0340    7.4080 N.am     10 SEL2        0.0000 
     70 N          18.4820    2.2710    5.2790 N.am      6 SEP2        0.0000 
     71 O          21.2620    3.0465    6.1395 O.2       1 ALC1        0.0000 
     72 O          21.3990    4.1890    6.9350 O.2       9 ALL1        0.0000 
     73 O          21.1250    1.9040    5.3440 O.2       5 ALP1        0.0000 
     74 O          22.8115    4.3615    7.5320 O.2       1 ALC1        0.0000 
     75 O          24.2240    4.5340    8.1290 O.2       5 ALP1        0.0000 
     76 CA         18.6080    4.6765   12.6165 C.3       4 GLC5        0.0000 
     77 CA         19.6590    5.8230   11.2770 C.3      12 GLL5        0.0000 
     78 CA         17.5570    3.5300   13.9560 C.3       8 GLP5        0.0000 
     79 NZ         23.2525    8.7425   25.6950 N.4       3 LYC4        0.0000 
     80 NZ         22.3600    7.9720   26.1340 N.4      11 LYL4        0.0000 
     81 NZ         24.1450    9.5130   25.2560 N.4       7 LYP4        0.0000 
     82 N          23.2525    8.7425   25.6950 N.am      2 SEC2        0.0000 
     83 N          22.3600    7.9720   26.1340 N.am     10 SEL2        0.0000 
     84 N          24.1450    9.5130   25.2560 N.am      6 SEP2        0.0000 
     85 N          21.1895    8.4370   26.4460 N.am      2 SEC2        0.0000 
     86 N          20.0190    8.9020   26.7580 N.am      6 SEP2        0.0000 
     87 N          20.5905    5.8145   27.2760 N.am      2 SEC2        0.0000 
     88 N          21.8560    5.4970   26.6850 N.am     10 SEL2        0.0000 
     89 N          19.3250    6.1320   27.8670 N.am      6 SEP2        0.0000 
     90 NZ         24.0610    7.8380   25.4355 N.4       3 LYC4        0.0000 
     91 NZ         23.9770    6.1630   25.6150 N.4      11 LYL4        0.0000 
     92 N          24.0610    7.8380   25.4355 N.am      2 SEC2        0.0000 
     93 N          23.9770    6.1630   25.6150 N.am     10 SEL2        0.0000 
     94 CA         19.7417    6.1495   24.6965 C.3       4 GLC5        0.0000 
     95 CA         21.6230    5.0040   23.9240 C.3      12 GLL5        0.0000 
     96 CA         16.2672    2.5223   22.5405 C.3       4 GLC5        0.0000 
     97 CA         14.5650    3.3040   21.8000 C.3       8 GLP5        0.0000 
     98 CA         26.0882    7.2750   14.5048 C.3       4 GLC5        0.0000 
     99 CA         27.4440    7.7220   16.1690 C.3       8 GLP5        0.0000 
    100 CA         22.1238    3.5015    9.0510 C.3       4 GLC5        0.0000 
    101 CA         21.7200    5.3800    9.3840 C.3      12 GLL5        0.0000 
    102 CA         23.1500    1.7940    8.8920 C.3       8 GLP5        0.0000 
    103 CA         21.9352    6.3825    8.0030 C.3       4 GLC5        0.0000 
    104 CA         22.7730    7.5560    6.7960 C.3       8 GLP5        0.0000 
    105 CA         19.4727    7.2805   12.6325 C.3       4 GLC5        0.0000 
    106 CA         20.9020    6.1610   11.5650 C.3      12 GLL5        0.0000 
    107 CA         18.6650    8.5690   13.8440 C.3       8 GLP5        0.0000 
@<TRIPOS>BOND
@<TRIPOS>SUBSTRUCTURE
     1 ALC1       56 GROUP        1 X    ALC  0     ROOT ALC X 1
     2 SEC2        1 GROUP        1 X    SEC  0     **** SEC X 2
     3 LYC4       79 GROUP        1 X    LYC  0     **** LYC X 4
     4 GLC5       13 GROUP        1 X    GLC  0     **** GLC X 6
     5 ALP1       58 GROUP        1 Y    ALP  0     ROOT ALP Y 8
     6 SEP2        3 GROUP        1 Y    SEP  0     **** SEP Y 9
     7 LYP4       81 GROUP        1 Y    LYP  0     **** LYP Y 11
     8 GLP5       15 GROUP        1 Y    GLP  0     **** GLP Y 13
     9 ALL1       57 GROUP        1 Z    ALL  0     ROOT ALL Z 15
    10 SEL2        2 GROUP        1 Z    SEL  0     **** SEL Z 16
    11 LYL4       80 GROUP        1 Z    LYL  0     **** LYL Z 18
    12 GLL5       14 GROUP        1 Z    GLL  0     **** GLL Z 20
@<TRIPOS>SET

