#    Name: 8dfr_NDP_1_ligand
#    Modification time : Tue Mar 25 13:59:55 2014

@<TRIPOS>MOLECULE
8dfr_NDP_1_ligand
   74    78     1     0     0
SMALL
NO_CHARGES


@<TRIPOS>ATOM
      1 PA         21.7800    5.1700   17.9110 P.3       1 NDP191      0.0000 
      2 O1A        21.0430    3.9280   18.1340 O.co2     1 NDP191      0.0000 
      3 O2A        21.1600    6.3240   17.1590 O.co2     1 NDP191      0.0000 
      4 O5B        22.2150    5.9080   19.3610 O.3       1 NDP191      0.0000 
      5 C5B        22.6730    4.9470   20.3930 C.3       1 NDP191      0.0000 
      6 C4B        22.2540    5.6060   21.7360 C.3       1 NDP191      0.0000 
      7 O4B        21.0080    5.6460   21.7860 O.3       1 NDP191      0.0000 
      8 C3B        22.6750    4.5380   22.8970 C.3       1 NDP191      0.0000 
      9 O3B        24.0580    5.0420   23.2000 O.3       1 NDP191      0.0000 
     10 C2B        21.6230    5.0040   23.9240 C.3       1 NDP191      0.0000 
     11 O2B        21.8220    6.2810   24.3930 O.3       1 NDP191      0.0000 
     12 C1B        20.4060    5.1040   22.9720 C.3       1 NDP191      0.0000 
     13 N9A        19.7650    3.8290   22.7410 N.pl3     1 NDP191      0.0000 
     14 C8A        19.8890    3.1100   21.6040 C.2       1 NDP191      0.0000 
     15 N7A        19.1020    2.0640   21.5820 N.2       1 NDP191      0.0000 
     16 C5A        18.4810    2.1760   22.8870 C.ar      1 NDP191      0.0000 
     17 C6A        17.4580    1.3050   23.6750 C.ar      1 NDP191      0.0000 
     18 N6A        16.9940    0.1740   23.1420 N.pl3     1 NDP191      0.0000 
     19 N1A        17.0530    1.7460   24.8700 N.ar      1 NDP191      0.0000 
     20 C2A        17.6080    2.8900   25.2890 C.ar      1 NDP191      0.0000 
     21 N3A        18.4980    3.6890   24.7340 N.ar      1 NDP191      0.0000 
     22 C4A        18.8990    3.2490   23.5150 C.ar      1 NDP191      0.0000 
     23 O3         23.2340    4.9990   17.3500 O.3       1 NDP191      0.0000 
     24 PN         23.9550    4.2050   16.1800 P.3       1 NDP191      0.0000 
     25 O1N        23.6510    2.8340   16.1220 O.co2     1 NDP191      0.0000 
     26 O2N        25.3790    4.4940   16.2920 O.co2     1 NDP191      0.0000 
     27 O5D        23.4340    4.9900   14.8600 O.3       1 NDP191      0.0000 
     28 C5D        23.7300    6.3310   14.4990 C.3       1 NDP191      0.0000 
     29 C4D        24.5290    6.1660   13.2020 C.3       1 NDP191      0.0000 
     30 O4D        23.6510    5.4430   12.2450 O.3       1 NDP191      0.0000 
     31 C3D        24.9360    7.4900   12.4790 C.3       1 NDP191      0.0000 
     32 O3D        26.1080    7.2340   11.6580 O.3       1 NDP191      0.0000 
     33 C2D        23.6140    7.7090   11.6480 C.3       1 NDP191      0.0000 
     34 O2D        23.9640    8.5380   10.5440 O.3       1 NDP191      0.0000 
     35 C1D        23.3670    6.3200   11.1160 C.3       1 NDP191      0.0000 
     36 N1N        21.9290    6.0400   10.6280 N.pl3     1 NDP191      0.0000 
     37 C2N        21.7200    5.3800    9.3840 C.2       1 NDP191      0.0000 
     38 C3N        20.4750    5.0380    9.0360 C.2       1 NDP191      0.0000 
     39 C7N        20.3000    4.4110    7.6920 C.2       1 NDP191      0.0000 
     40 O7N        19.1730    4.0340    7.4080 O.2       1 NDP191      0.0000 
     41 N7N        21.3990    4.1890    6.9350 N.am      1 NDP191      0.0000 
     42 C4N        19.2450    5.1830    9.9770 C.3       1 NDP191      0.0000 
     43 C5N        19.6590    5.8230   11.2770 C.2       1 NDP191      0.0000 
     44 C6N        20.9020    6.1610   11.5650 C.2       1 NDP191      0.0000 
     45 P2B        22.5540    6.5340   25.9240 P.3       1 NDP191      0.0000 
     46 O1X        22.3600    7.9720   26.1340 O.co2     1 NDP191      0.0000 
     47 O2X        21.8560    5.4970   26.6850 O.co2     1 NDP191      0.0000 
     48 O3X        23.9770    6.1630   25.6150 O.co2     1 NDP191      0.0000 
     49 H          23.7321    4.8449   20.3842 H         1 NDP191      0.0000 
     50 H          22.1690    4.0141   20.3042 H         1 NDP191      0.0000 
     51 H          22.8259    6.4488   21.9020 H         1 NDP191      0.0000 
     52 H          22.5638    3.6571   22.5508 H         1 NDP191      0.0000 
     53 H          21.4307    4.2548   24.5940 H         1 NDP191      0.0000 
     54 H          19.7423    5.8294   23.4054 H         1 NDP191      0.0000 
     55 H          20.5198    3.3674   20.8720 H         1 NDP191      0.0000 
     56 H          16.3597   -0.3517   23.7088 H         1 NDP191      0.0000 
     57 H          17.3221   -0.0466   22.2235 H         1 NDP191      0.0000 
     58 H          17.2428    3.2265   26.3038 H         1 NDP191      0.0000 
     59 H          24.3557    6.8225   15.2139 H         1 NDP191      0.0000 
     60 H          22.8531    6.9022   14.2781 H         1 NDP191      0.0000 
     61 H          25.4028    5.5829   13.3762 H         1 NDP191      0.0000 
     62 H          25.0131    8.2288   13.1853 H         1 NDP191      0.0000 
     63 H          22.8827    8.0245   12.2523 H         1 NDP191      0.0000 
     64 H          24.0597    6.1108   10.3251 H         1 NDP191      0.0000 
     65 H          22.5352    5.1882    8.7939 H         1 NDP191      0.0000 
     66 H          21.2446    3.7345    6.0578 H         1 NDP191      0.0000 
     67 H          22.2683    4.4991    7.3198 H         1 NDP191      0.0000 
     68 H          18.8355    4.1945   10.1582 H         1 NDP191      0.0000 
     69 H          18.5023    5.7956    9.4761 H         1 NDP191      0.0000 
     70 H          18.8589    5.9773   11.9406 H         1 NDP191      0.0000 
     71 H          21.1579    6.5336   12.5138 H         1 NDP191      0.0000 
     72 H          23.9815    5.4869   24.0923 H         1 NDP191      0.0000 
     73 H          26.8098    6.9230   12.2989 H         1 NDP191      0.0000 
     74 H          24.9553    8.6521   10.6102 H         1 NDP191      0.0000 
@<TRIPOS>BOND
     1    2    1 ar   
     2    3    1 ar   
     3    4    1 1    
     4   23    1 1    
     5    5    4 1    
     6    6    5 1    
     7   49    5 1    
     8   50    5 1    
     9    7    6 1    
    10    8    6 1    
    11   51    6 1    
    12   12    7 1    
    13    9    8 1    
    14   10    8 1    
    15   52    8 1    
    16   72    9 1    
    17   11   10 1    
    18   12   10 1    
    19   53   10 1    
    20   45   11 1    
    21   13   12 1    
    22   54   12 1    
    23   14   13 1    
    24   22   13 1    
    25   15   14 2    
    26   55   14 1    
    27   16   15 1    
    28   17   16 ar   
    29   22   16 ar   
    30   18   17 1    
    31   19   17 ar   
    32   56   18 1    
    33   57   18 1    
    34   20   19 ar   
    35   21   20 ar   
    36   58   20 1    
    37   22   21 ar   
    38   24   23 1    
    39   25   24 ar   
    40   26   24 ar   
    41   27   24 1    
    42   28   27 1    
    43   29   28 1    
    44   59   28 1    
    45   60   28 1    
    46   30   29 1    
    47   31   29 1    
    48   61   29 1    
    49   35   30 1    
    50   32   31 1    
    51   33   31 1    
    52   62   31 1    
    53   73   32 1    
    54   34   33 1    
    55   35   33 1    
    56   63   33 1    
    57   74   34 1    
    58   36   35 1    
    59   64   35 1    
    60   37   36 1    
    61   44   36 1    
    62   38   37 2    
    63   65   37 1    
    64   39   38 1    
    65   42   38 1    
    66   40   39 2    
    67   41   39 am   
    68   66   41 1    
    69   67   41 1    
    70   43   42 1    
    71   68   42 1    
    72   69   42 1    
    73   44   43 2    
    74   70   43 1    
    75   71   44 1    
    76   46   45 ar   
    77   47   45 ar   
    78   48   45 ar   
@<TRIPOS>SUBSTRUCTURE
     1 NDP191      1 GROUP   
@<TRIPOS>SET

