#    Name: 4BF6_1_CAVITY_N1_6.mol2
#    Modification time : Tue Mar 11 19:39:50 2014

@<TRIPOS>MOLECULE
4BF6_1_CAVITY_N1_6.mol2
   95     0     6     0     0
SMALL
NO_CHARGES


@<TRIPOS>ATOM
      1 CA         -1.1185    7.6498   14.5027 C.3       5 GLY6        0.0000 
      2 CZ         -2.4174    8.2912   14.1136 C.ar      4 PHE5        0.0000 
      3 CA          0.3076    6.4299   13.5137 C.3       5 GLY6        0.0000 
      4 CA         -0.9913    7.0713   13.1246 C.3       5 GLY6        0.0000 
      5 CZ         -2.2902    7.7127   12.7355 C.ar      4 PHE5        0.0000 
      6 N           1.7337    5.2100   12.5247 N.2       2 ALA2        0.0000 
      7 DU         -0.8642    6.4928   11.7465 H         6 CUB7        0.0000 
      8 CA         -3.2839    7.6433   15.9383 C.3       5 GLY6        0.0000 
      9 CA         -1.8578    6.4234   14.9493 C.3       5 GLY6        0.0000 
     10 CZ         -3.1568    7.0648   14.5602 C.ar      4 PHE5        0.0000 
     11 N          -0.4318    5.2035   13.9603 N.2       2 ALA2        0.0000 
     12 CA         -1.7307    5.8449   13.5712 C.3       5 GLY6        0.0000 
     13 DU         -3.0296    6.4863   13.1821 H         6 CUB7        0.0000 
     14 CZ         -4.3285    7.1278   12.7930 C.ar      4 PHE5        0.0000 
     15 CZ         -5.6274    7.7692   12.4039 C.ar      4 PHE5        0.0000 
     16 N          -0.3046    4.6250   12.5822 N.2       2 ALA2        0.0000 
     17 DU         -1.6035    5.2665   12.1931 H         6 CUB7        0.0000 
     18 DU         -4.2014    6.5493   11.4149 H         6 CUB7        0.0000 
     19 N           1.1215    3.4051   11.5931 N.2       2 ALA2        0.0000 
     20 N          -0.1774    4.0466   11.2040 N.2       2 ALA2        0.0000 
     21 DU         -1.4764    4.6880   10.8150 H         6 CUB7        0.0000 
     22 DU         -2.7753    5.3294   10.4259 H         6 CUB7        0.0000 
     23 DU         -4.0742    5.9708   10.0368 H         6 CUB7        0.0000 
     24 CA         -0.0503    3.4681    9.8259 C.3       5 GLY6        0.0000 
     25 O          -1.3492    4.1095    9.4368 O.2       2 ALA2        0.0000 
     26 O          -2.6481    4.7509    9.0477 O.2       2 ALA2        0.0000 
     27 O          -3.9470    5.3923    8.6587 O.2       2 ALA2        0.0000 
     28 O          -1.2220    3.5310    8.0587 O.2       2 ALA2        0.0000 
     29 CA         -2.5972    5.1971   15.3958 C.3       5 GLY6        0.0000 
     30 CA         -3.8961    5.8385   15.0068 C.3       5 GLY6        0.0000 
     31 CZ         -5.1950    6.4799   14.6177 C.ar      4 PHE5        0.0000 
     32 OG         -2.4700    4.6186   14.0177 O.2       1 SER1        0.0000 
     33 DU         -3.7689    5.2600   13.6286 H         6 CUB7        0.0000 
     34 CZ         -5.0679    5.9014   13.2395 C.ar      4 PHE5        0.0000 
     35 CZ         -6.3668    6.5428   12.8505 C.ar      4 PHE5        0.0000 
     36 CZ         -7.6657    7.1842   12.4614 C.ar      4 PHE5        0.0000 
     37 OG         -2.3429    4.0401   12.6396 O.2       1 SER1        0.0000 
     38 DU         -3.6418    4.6815   12.2505 H         6 CUB7        0.0000 
     39 O          -4.9407    5.3229   11.8614 O.2       2 ALA2        0.0000 
     40 O          -6.2396    5.9644   11.4723 O.2       2 ALA2        0.0000 
     41 CZ          0.3821    2.1788   12.0397 C.ar      4 PHE5        0.0000 
     42 OG         -0.9168    2.8202   11.6506 O.2       1 SER1        0.0000 
     43 DU         -2.2157    3.4616   11.2615 H         6 CUB7        0.0000 
     44 DU         -3.5146    4.1030   10.8724 H         6 CUB7        0.0000 
     45 O          -4.8135    4.7445   10.4833 O.2       2 ALA2        0.0000 
     46 CA         -0.7896    2.2417   10.2725 C.3       5 GLY6        0.0000 
     47 O          -2.0885    2.8831    9.8834 O.2       2 ALA2        0.0000 
     48 O          -3.3875    3.5246    9.4943 O.2       2 ALA2        0.0000 
     49 CA         -3.3365    3.9707   15.8424 C.3       5 GLY6        0.0000 
     50 CA         -4.6355    4.6121   15.4533 C.3       5 GLY6        0.0000 
     51 CA         -5.9344    5.2535   15.0642 C.3       5 GLY6        0.0000 
     52 CA         -7.2333    5.8949   14.6751 C.3       5 GLY6        0.0000 
     53 OG         -3.2094    3.3922   14.4643 O.2       1 SER1        0.0000 
     54 DU         -4.5083    4.0336   14.0752 H         6 CUB7        0.0000 
     55 O          -5.8072    4.6751   13.6861 O.2       2 ALA2        0.0000 
     56 O          -7.1061    5.3165   13.2970 O.2       2 ALA2        0.0000 
     57 OG         -3.0822    2.8137   13.0862 O.2       1 SER1        0.0000 
     58 O          -4.3811    3.4552   12.6971 O.2       2 ALA2        0.0000 
     59 OG         -1.6561    1.5939   12.0972 O.2       1 SER1        0.0000 
     60 OG         -2.9551    2.2353   11.7081 O.2       1 SER1        0.0000 
     61 O          -4.2540    2.8767   11.3190 O.2       2 ALA2        0.0000 
     62 CA         -1.5290    1.0154   10.7190 C.3       5 GLY6        0.0000 
     63 O          -2.8279    1.6568   10.3299 O.2       2 ALA2        0.0000 
     64 O          -4.1268    2.2982    9.9409 O.2       2 ALA2        0.0000 
     65 CA         -6.8009    4.6056   16.8889 C.3       5 GLY6        0.0000 
     66 CA         -4.0759    2.7443   16.2890 C.3       5 GLY6        0.0000 
     67 CA         -5.3748    3.3858   15.8999 C.3       5 GLY6        0.0000 
     68 CA         -6.6737    4.0272   15.5108 C.3       5 GLY6        0.0000 
     69 OG         -3.9487    2.1659   14.9108 O.2       1 SER1        0.0000 
     70 DU         -5.2476    2.8073   14.5217 H         6 CUB7        0.0000 
     71 O          -6.5466    3.4487   14.1327 O.2       2 ALA2        0.0000 
     72 OG         -3.8216    1.5874   13.5327 O.2       1 SER1        0.0000 
     73 O          -5.1205    2.2288   13.1436 O.2       2 ALA2        0.0000 
     74 CA         -2.3955    0.3675   12.5437 C.3       5 GLY6        0.0000 
     75 OG         -3.6944    1.0089   12.1546 O.2       1 SER1        0.0000 
     76 O          -4.9933    1.6503   11.7655 O.2       2 ALA2        0.0000 
     77 CA         -2.2683   -0.2110   11.1656 C.3       5 GLY6        0.0000 
     78 O          -3.5672    0.4304   10.7765 O.2       2 ALA2        0.0000 
     79 N          -4.8662    1.0719   10.3874 N.2       2 ALA2        0.0000 
     80 CA         -4.9424    2.0965   18.1136 C.3       5 GLY6        0.0000 
     81 CA         -6.2413    2.7379   17.7245 C.3       5 GLY6        0.0000 
     82 CA         -7.5402    3.3793   17.3354 C.3       5 GLY6        0.0000 
     83 O          -4.8152    1.5180   16.7355 O.2       2 ALA2        0.0000 
     84 CA         -6.1142    2.1594   16.3464 C.3       5 GLY6        0.0000 
     85 CA         -7.4131    2.8008   15.9573 C.3       5 GLY6        0.0000 
     86 OD1        -4.6881    0.9395   15.3574 O.3       3 ASP3        0.0000 
     87 N          -5.9870    1.5809   14.9683 N.2       2 ALA2        0.0000 
     88 N          -4.5609    0.3610   13.9793 N.2       2 ALA2        0.0000 
     89 N          -4.4338   -0.2174   12.6012 N.2       2 ALA2        0.0000 
     90 N          -5.7327    0.4240   12.2121 N.2       2 ALA2        0.0000 
     91 CA         -3.0077   -1.4373   11.6121 C.3       5 GLY6        0.0000 
     92 CA         -4.3066   -0.7959   11.2231 C.3       5 GLY6        0.0000 
     93 CA         -5.6055   -0.1545   10.8340 C.3       5 GLY6        0.0000 
     94 CZ         -6.9807    1.5115   18.1711 C.ar      4 PHE5        0.0000 
     95 OD1        -6.8535    0.9330   16.7930 O.3       3 ASP3        0.0000 
@<TRIPOS>BOND
@<TRIPOS>SUBSTRUCTURE
     1 SER1       32 GROUP   
     2 ALA2        6 GROUP   
     3 ASP3       86 GROUP   
     4 PHE5        2 GROUP   
     5 GLY6        1 GROUP   
     6 CUB7        7 GROUP   
@<TRIPOS>SET

