#    Name: 4bf6_X0Q_1_INTS_M
#    Modification time : Tue Mar 25 07:35:31 2014

@<TRIPOS>MOLECULE
4bf6_X0Q_1_INTS_M
   27     0    12     0     0
SMALL
NO_CHARGES


@<TRIPOS>ATOM
      1 N          -3.9925    0.6970   18.5915 N.am      2 SEC2        0.0000 
      2 N          -5.3670    1.0880   18.0810 N.am     10 SEL2        0.0000 
      3 N          -2.6180    0.3060   19.1020 N.am      6 SEP2        0.0000 
      4 O          -4.4580   -1.2585   16.8765 O.2       1 ALC1        0.0000 
      5 O          -5.3660   -0.4110   16.1120 O.2       9 ALL1        0.0000 
      6 O          -3.5500   -2.1060   17.6410 O.2       5 ALP1        0.0000 
      7 Zn         -6.0310   -1.0095   15.7020 Zn        3 ZIC7        0.0000 
      8 Zn         -5.3660   -0.4110   16.1120 Zn       11 ZIL7        0.0000 
      9 Zn         -6.6960   -1.6080   15.2920 Zn        7 ZIP7        0.0000 
     10 CA         -8.0130    3.3475   14.9795 C.3       4 GLC5        0.0000 
     11 CA         -6.1350    3.4490   15.0440 C.3      12 GLL5        0.0000 
     12 CA         -9.8910    3.2460   14.9150 C.3       8 GLP5        0.0000 
     13 CA         -1.9875    1.3475   15.0730 C.3       4 GLC5        0.0000 
     14 CA         -3.8310    2.4610   15.3720 C.3      12 GLL5        0.0000 
     15 CA         -0.1440    0.2340   14.7740 C.3       8 GLP5        0.0000 
     16 N          -7.1445    4.7870   12.3050 N.am      2 SEC2        0.0000 
     17 N          -6.3870    5.7590   13.1540 N.am     10 SEL2        0.0000 
     18 N          -7.9020    3.8150   11.4560 N.am      6 SEP2        0.0000 
     19 CA         -7.5000    9.8400   11.2840 C.3       4 GLC5        0.0000 
     20 CA         -5.3910    9.2980   11.2890 C.3      12 GLL5        0.0000 
     21 CA         -9.6090   10.3820   11.2790 C.3       8 GLP5        0.0000 
     22 CA         -7.6905   10.9145   10.8660 C.3       4 GLC5        0.0000 
     23 CA         -5.7720   11.4470   10.4530 C.3      12 GLL5        0.0000 
     24 CA         -5.6805   11.2945   12.3215 C.3       4 GLC5        0.0000 
     25 CA         -5.5890   11.1420   14.1900 C.3       8 GLP5        0.0000 
     26 CA         -4.4059    4.1251   16.5781 C.3       4 GLC5        0.0000 
     27 CA         -4.3330    4.9760   18.2760 C.3       8 GLP5        0.0000 
@<TRIPOS>BOND
@<TRIPOS>SUBSTRUCTURE
     1 ALC1        4 GROUP        1 X    ALC  0     ROOT ALC X 1
     2 SEC2        1 GROUP        1 X    SEC  0     **** SEC X 2
     3 ZIC7        7 GROUP        1 X    ZIC  0     **** ZIC X 5
     4 GLC5       10 GROUP        1 X    GLC  0     **** GLC X 6
     5 ALP1        6 GROUP        1 Y    ALP  0     ROOT ALP Y 8
     6 SEP2        3 GROUP        1 Y    SEP  0     **** SEP Y 9
     7 ZIP7        9 GROUP        1 Y    ZIP  0     **** ZIP Y 12
     8 GLP5       12 GROUP        1 Y    GLP  0     **** GLP Y 13
     9 ALL1        5 GROUP        1 Z    ALL  0     ROOT ALL Z 15
    10 SEL2        2 GROUP        1 Z    SEL  0     **** SEL Z 16
    11 ZIL7        8 GROUP        1 Z    ZIL  0     **** ZIL Z 19
    12 GLL5       11 GROUP        1 Z    GLL  0     **** GLL Z 20
@<TRIPOS>SET

