#    Name: 4bf6_X0Q_1_ligand
#    Modification time : Tue Mar 25 07:35:31 2014

@<TRIPOS>MOLECULE
4bf6_X0Q_1_ligand
   30    32     1     0     0
SMALL
NO_CHARGES


@<TRIPOS>ATOM
      1 O22        -7.2930    1.0830   16.6780 O.2       1 X0Q1263     0.0000 
      2 S21        -5.8240    0.9810   16.7140 S.o2      1 X0Q1263     0.0000 
      3 O23        -5.3670    1.0880   18.0810 O.2       1 X0Q1263     0.0000 
      4 N24        -5.3660   -0.4110   16.1120 N.pl3     1 X0Q1263     0.0000 
      5 C19        -5.1520    2.1870   15.6740 C.2       1 X0Q1263     0.0000 
      6 S20        -6.1350    3.4490   15.0440 S.3       1 X0Q1263     0.0000 
      7 C16        -4.8120    4.2460   14.2850 C.2       1 X0Q1263     0.0000 
      8 C17        -3.6290    3.5720   14.5050 C.2       1 X0Q1263     0.0000 
      9 C18        -3.8310    2.4610   15.3720 C.2       1 X0Q1263     0.0000 
     10 C14        -5.0730    5.4470   13.4290 C.2       1 X0Q1263     0.0000 
     11 C15        -4.1390    6.2530   12.8210 C.2       1 X0Q1263     0.0000 
     12 N11        -4.9810    7.1210   12.2010 N.pl3     1 X0Q1263     0.0000 
     13 N12        -6.3660    6.8580   12.3320 N.2       1 X0Q1263     0.0000 
     14 N13        -6.3870    5.7590   13.1540 N.2       1 X0Q1263     0.0000 
     15 C10        -4.5670    8.1700   11.4510 C.ar      1 X0Q1263     0.0000 
     16 C9         -3.3160    8.2230   10.7940 C.ar      1 X0Q1263     0.0000 
     17 C8         -2.9010    9.3520   10.0390 C.ar      1 X0Q1263     0.0000 
     18 C7         -3.7370   10.4470    9.8950 C.ar      1 X0Q1263     0.0000 
     19 C4         -4.9950   10.4150   10.5190 C.ar      1 X0Q1263     0.0000 
     20 C3         -5.3910    9.2980   11.2890 C.ar      1 X0Q1263     0.0000 
     21 C5         -5.7720   11.4470   10.4530 C.1       1 X0Q1263     0.0000 
     22 N22        -6.4590   12.3850   10.4280 N.1       1 X0Q1263     0.0000 
     23 H          -4.5111   -0.7856   16.4707 H         1 X0Q1263     0.0000 
     24 H          -2.7714    3.8020   14.1343 H         1 X0Q1263     0.0000 
     25 H          -3.0682    1.9364   15.7219 H         1 X0Q1263     0.0000 
     26 H          -3.2407    6.2091   12.8363 H         1 X0Q1263     0.0000 
     27 H          -2.6771    7.4100   10.8644 H         1 X0Q1263     0.0000 
     28 H          -1.9707    9.3416    9.6023 H         1 X0Q1263     0.0000 
     29 H          -3.4552   11.2586    9.3526 H         1 X0Q1263     0.0000 
     30 H          -6.3209    9.3136   11.7487 H         1 X0Q1263     0.0000 
@<TRIPOS>BOND
     1    2    1 2    
     2    3    2 2    
     3    4    2 1    
     4    5    2 1    
     5   23    4 1    
     6    6    5 1    
     7    9    5 2    
     8    7    6 1    
     9    8    7 2    
    10   10    7 1    
    11    9    8 1    
    12   24    8 1    
    13   25    9 1    
    14   11   10 2    
    15   14   10 1    
    16   12   11 1    
    17   26   11 1    
    18   13   12 1    
    19   15   12 1    
    20   14   13 2    
    21   16   15 ar   
    22   20   15 ar   
    23   17   16 ar   
    24   27   16 1    
    25   18   17 ar   
    26   28   17 1    
    27   19   18 ar   
    28   29   18 1    
    29   20   19 ar   
    30   21   19 1    
    31   30   20 1    
    32   22   21 3    
@<TRIPOS>SUBSTRUCTURE
     1 X0Q1263     1 GROUP   
@<TRIPOS>SET

