#    Name: 1hvl_A76_1_INTS_M
#    Modification time : Tue Mar 25 06:17:33 2014

@<TRIPOS>MOLECULE
1hvl_A76_1_INTS_M
  111     0     9     0     0
SMALL
NO_CHARGES


@<TRIPOS>ATOM
      1 N           2.3425    4.7945   12.6770 N.am      2 SEC2        0.0000 
      2 N           3.0890    3.9150   11.7510 N.am      8 SEL2        0.0000 
      3 N           1.5960    5.6740   13.6030 N.am      5 SEP2        0.0000 
      4 CA          2.6465    6.2035   10.7555 C.3       3 GLC5        0.0000 
      5 CA          4.2610    5.1730    9.7270 C.3       9 GLL5        0.0000 
      6 CA          1.0320    7.2340   11.7840 C.3       6 GLP5        0.0000 
      7 CA          9.6380    4.5940   10.8960 C.3       3 GLC5        0.0000 
      8 CA          8.3160    6.2230   10.3100 C.3       9 GLL5        0.0000 
      9 CA         10.9600    2.9650   11.4820 C.3       6 GLP5        0.0000 
     10 O           3.0935    1.0315    9.5895 O.2       1 ALC1        0.0000 
     11 O           3.1630    1.8950   10.8040 O.2       7 ALL1        0.0000 
     12 O           3.0240    0.1680    8.3750 O.2       4 ALP1        0.0000 
     13 CA         -1.2620    3.0655   11.4340 C.3       3 GLC5        0.0000 
     14 CA          0.2590    1.4370   11.3390 C.3       9 GLL5        0.0000 
     15 CA         -2.7830    4.6940   11.5290 C.3       6 GLP5        0.0000 
     16 CA         -1.5985    0.7240   11.7030 C.3       3 GLC5        0.0000 
     17 CA         -3.4560    0.0110   12.0670 C.3       6 GLP5        0.0000 
     18 CA         -0.6770    0.1065    9.8360 C.3       3 GLC5        0.0000 
     19 CA         -1.6130   -1.2240    8.3330 C.3       6 GLP5        0.0000 
     20 CA          1.0175    1.2785   14.2535 C.3       3 GLC5        0.0000 
     21 CA          0.8540   -0.3020   13.0350 C.3       9 GLL5        0.0000 
     22 CA          1.1810    2.8590   15.4720 C.3       6 GLP5        0.0000 
     23 CA         -1.3010   -0.1455   12.5510 C.3       3 GLC5        0.0000 
     24 CA         -0.1805    0.0295   14.9440 C.3       3 GLC5        0.0000 
     25 CA         -1.2150    0.3610   16.8530 C.3       6 GLP5        0.0000 
     26 CA          8.0000    2.5685   14.5780 C.3       3 GLC5        0.0000 
     27 CA          7.1800    0.6630   13.7410 C.3       9 GLL5        0.0000 
     28 CA          8.8200    4.4740   15.4150 C.3       6 GLP5        0.0000 
     29 O           6.0175    1.3280   17.4940 O.2       1 ALC1        0.0000 
     30 O           5.7570    1.1590   15.9770 O.2       7 ALL1        0.0000 
     31 O           6.2780    1.4970   19.0110 O.2       4 ALP1        0.0000 
     32 O           6.7770    0.9415   16.8080 O.2       1 ALC1        0.0000 
     33 O           7.7970    0.7240   17.6390 O.2       4 ALP1        0.0000 
     34 O           4.0880    0.4270   18.1180 O.2       1 ALC1        0.0000 
     35 O           4.6810   -0.7540   17.5020 O.2       7 ALL1        0.0000 
     36 O           3.4950    1.6080   18.7340 O.2       4 ALP1        0.0000 
     37 O           5.4795    0.3715   18.2565 O.2       1 ALC1        0.0000 
     38 CA          1.9180   -4.0460   12.8925 C.3       3 GLC5        0.0000 
     39 CA          2.4080   -4.7500   14.7120 C.3       9 GLL5        0.0000 
     40 CA          1.4280   -3.3420   11.0730 C.3       6 GLP5        0.0000 
     41 CA          2.3010   -5.8430   12.3990 C.3       3 GLC5        0.0000 
     42 CA          2.2440   -6.1210   14.4760 C.3       9 GLL5        0.0000 
     43 CA          2.3580   -5.5650   10.3220 C.3       6 GLP5        0.0000 
     44 O           7.0285   -6.8825   15.3240 O.2       1 ALC1        0.0000 
     45 O           6.9480   -5.9900   16.6460 O.2       7 ALL1        0.0000 
     46 O           7.1090   -7.7750   14.0020 O.2       4 ALP1        0.0000 
     47 CA          7.5690   -3.6575   18.2035 C.3       3 GLC5        0.0000 
     48 CA          7.3610   -4.6320   16.2660 C.3       9 GLL5        0.0000 
     49 CA          7.7770   -2.6830   20.1410 C.3       6 GLP5        0.0000 
     50 CA         11.6830   -4.8490   15.9970 C.3       3 GLC5        0.0000 
     51 CA          9.7690   -5.4340   16.2350 C.3       9 GLL5        0.0000 
     52 CA         13.5970   -4.2640   15.7590 C.3       6 GLP5        0.0000 
     53 CA         10.7940   -6.3235   14.7550 C.3       3 GLC5        0.0000 
     54 CA         11.8190   -7.2130   13.2750 C.3       6 GLP5        0.0000 
     55 CA          9.0690   -2.5700   17.3875 C.3       3 GLC5        0.0000 
     56 CA          9.2260   -3.1700   15.3470 C.3       9 GLL5        0.0000 
     57 CA          8.9120   -1.9700   19.4280 C.3       6 GLP5        0.0000 
     58 CA         10.1465   -1.7085   14.8230 C.3       3 GLC5        0.0000 
     59 CA         11.0670   -0.2470   14.2990 C.3       6 GLP5        0.0000 
     60 N           7.7160   -5.2145   20.0975 N.am      2 SEC2        0.0000 
     61 N           7.0870   -5.7120   18.8680 N.am      8 SEL2        0.0000 
     62 N           8.3450   -4.7170   21.3270 N.am      5 SEP2        0.0000 
     63 CA          7.4515   -7.5070   20.9365 C.3       3 GLC5        0.0000 
     64 CA          6.0950   -8.1580   19.4230 C.3       9 GLL5        0.0000 
     65 CA          8.8080   -6.8560   22.4500 C.3       6 GLP5        0.0000 
     66 CA          0.1830   -6.6680   20.3435 C.3       3 GLC5        0.0000 
     67 CA          2.1790   -7.2340   20.7650 C.3       9 GLL5        0.0000 
     68 CA         -1.8130   -6.1020   19.9220 C.3       6 GLP5        0.0000 
     69 CA          7.4372    7.7455   11.4855 C.3       3 GLC5        0.0000 
     70 CA          7.4610    5.9250   11.3580 C.3       9 GLL5        0.0000 
     71 CA          6.9860    9.4170   12.1370 C.3       6 GLP5        0.0000 
     72 CA          1.2657   -1.6318   11.7465 C.3       3 GLC5        0.0000 
     73 CA          1.3530    0.4590   11.8050 C.3       9 GLL5        0.0000 
     74 CA          1.1661    1.9911   13.5491 C.3       3 GLC5        0.0000 
     75 CA          2.7340    1.1600   12.0220 C.3       9 GLL5        0.0000 
     76 CA          9.3373    1.6160   11.7150 C.3       3 GLC5        0.0000 
     77 CA          7.4770    0.8150   12.3010 C.3       9 GLL5        0.0000 
     78 CA          8.6498   -2.0370   11.1608 C.3       3 GLC5        0.0000 
     79 CA          8.2170   -0.1470   10.2500 C.3       9 GLL5        0.0000 
     80 CA          9.2150   -3.8600   11.3990 C.3       6 GLP5        0.0000 
     81 CA          9.3536   -0.0090   13.3035 C.3       3 GLC5        0.0000 
     82 CA          7.9520   -0.2810   11.5950 C.3       9 GLL5        0.0000 
     83 CA          9.5297    0.6655    8.7632 C.3       3 GLC5        0.0000 
     84 CA         10.9510    0.8670    7.5980 C.3       6 GLP5        0.0000 
     85 CA          9.5343    1.7145   10.7052 C.3       3 GLC5        0.0000 
     86 CA          8.0000    1.0750    9.6070 C.3       9 GLL5        0.0000 
     87 CA          6.5126   -0.6507    9.5084 C.3       3 GLC5        0.0000 
     88 CA          4.9830   -1.7320    8.7520 C.3       6 GLP5        0.0000 
     89 CA          9.1850    2.5353   11.2420 C.3       3 GLC5        0.0000 
     90 CA          7.5430    2.1680   10.3260 C.3       9 GLL5        0.0000 
     91 CA          1.2552   -2.9925   16.8725 C.3       3 GLC5        0.0000 
     92 CA          3.0490   -2.8250   16.2110 C.3       9 GLL5        0.0000 
     93 CA         -0.4460   -2.4190   17.6590 C.3       6 GLP5        0.0000 
     94 CA          1.0200   -5.2082   16.5802 C.3       3 GLC5        0.0000 
     95 CA          2.8640   -4.3070   15.9610 C.3       9 GLL5        0.0000 
     96 CA         -0.5960   -5.8880   17.8240 C.3       6 GLP5        0.0000 
     97 CA          1.2880   -7.7943   14.2297 C.3       3 GLC5        0.0000 
     98 CA          0.1840   -9.0050   13.4810 C.3       6 GLP5        0.0000 
     99 CA          0.8980   -6.2358   16.4013 C.3       3 GLC5        0.0000 
    100 CA          2.5400   -7.0460   15.4810 C.3       9 GLL5        0.0000 
    101 CA          3.8875   -6.5394   13.6608 C.3       3 GLC5        0.0000 
    102 CA          5.3420   -6.8380   12.2840 C.3       6 GLP5        0.0000 
    103 CA          1.2392   -5.9075   17.3370 C.3       3 GLC5        0.0000 
    104 CA          2.9920   -6.6080   16.7270 C.3       9 GLL5        0.0000 
    105 CA          9.0918   -3.8745   13.4138 C.3       3 GLC5        0.0000 
    106 CA          8.7110   -4.6080   15.5100 C.3       9 GLL5        0.0000 
    107 CA          2.8961   -7.0506   22.4966 C.3       3 GLC5        0.0000 
    108 CA          3.2800   -6.3950   20.9820 C.3       9 GLL5        0.0000 
    109 CA          3.0130   -6.9850   24.2880 C.3       6 GLP5        0.0000 
    110 CA          2.0242   -4.9657   20.8332 C.3       3 GLC5        0.0000 
    111 CA          1.3190   -3.1170   20.7930 C.3       6 GLP5        0.0000 
@<TRIPOS>BOND
@<TRIPOS>SUBSTRUCTURE
     1 ALC1       10 GROUP        1 X    ALC  0     ROOT ALC X 1
     2 SEC2        1 GROUP        1 X    SEC  0     **** SEC X 2
     3 GLC5        4 GROUP        1 X    GLC  0     **** GLC X 6
     4 ALP1       12 GROUP        1 Y    ALP  0     ROOT ALP Y 8
     5 SEP2        3 GROUP        1 Y    SEP  0     **** SEP Y 9
     6 GLP5        6 GROUP        1 Y    GLP  0     **** GLP Y 13
     7 ALL1       11 GROUP        1 Z    ALL  0     ROOT ALL Z 15
     8 SEL2        2 GROUP        1 Z    SEL  0     **** SEL Z 16
     9 GLL5        5 GROUP        1 Z    GLL  0     **** GLL Z 20
@<TRIPOS>SET

