#    Name: 1hvl_A76_1_ligand
#    Modification time : Tue Mar 25 06:17:33 2014

@<TRIPOS>MOLECULE
1hvl_A76_1_ligand
  116   119     1     0     0
SMALL
NO_CHARGES


@<TRIPOS>ATOM
      1 C1          3.3750    3.2130   10.8020 C.2       1 A76800      0.0000 
      2 O2          3.0890    3.9150   11.7510 O.2       1 A76800      0.0000 
      3 N3          3.9220    3.7490    9.7000 N.am      1 A76800      0.0000 
      4 C4          4.2730    2.9460    8.5250 C.3       1 A76800      0.0000 
      5 C5          4.2610    5.1730    9.7270 C.3       1 A76800      0.0000 
      6 C6          5.7350    5.4640    9.9150 C.ar      1 A76800      0.0000 
      7 C7          6.5140    5.7190    8.7930 C.ar      1 A76800      0.0000 
      8 N8          6.2050    5.5480   11.1550 N.ar      1 A76800      0.0000 
      9 C9          7.8330    6.1030    9.0050 C.ar      1 A76800      0.0000 
     10 C10         7.4610    5.9250   11.3580 C.ar      1 A76800      0.0000 
     11 C11         8.3160    6.2230   10.3100 C.ar      1 A76800      0.0000 
     12 N21         3.1630    1.8950   10.8040 N.am      1 A76800      0.0000 
     13 C22         2.7340    1.1600   12.0220 C.3       1 A76800      0.0000 
     14 C23         3.8430    0.1720   12.4740 C.2       1 A76800      0.0000 
     15 O24         3.9350   -0.9490   12.0140 O.2       1 A76800      0.0000 
     16 C25         1.3530    0.4590   11.8050 C.3       1 A76800      0.0000 
     17 C26         0.2590    1.4370   11.3390 C.3       1 A76800      0.0000 
     18 C27         0.8540   -0.3020   13.0350 C.3       1 A76800      0.0000 
     19 N37         4.6950    0.6400   13.4020 N.am      1 A76800      0.0000 
     20 C38         5.8630   -0.0780   13.9970 C.3       1 A76800      0.0000 
     21 C39         7.1800    0.6630   13.7410 C.3       1 A76800      0.0000 
     22 C40         7.4770    0.8150   12.3010 C.ar      1 A76800      0.0000 
     23 C41         7.9520   -0.2810   11.5950 C.ar      1 A76800      0.0000 
     24 C42         8.2170   -0.1470   10.2500 C.ar      1 A76800      0.0000 
     25 C43         8.0000    1.0750    9.6070 C.ar      1 A76800      0.0000 
     26 C44         7.5430    2.1680   10.3260 C.ar      1 A76800      0.0000 
     27 C45         7.2770    2.0430   11.6780 C.ar      1 A76800      0.0000 
     28 C46         5.7690   -0.1850   15.5040 C.3       1 A76800      0.0000 
     29 O47         5.7570    1.1590   15.9770 O.3       1 A76800      0.0000 
     30 O48         4.6810   -0.7540   17.5020 O.3       1 A76800      0.0000 
     31 C49         4.5410   -0.8350   16.0810 C.3       1 A76800      0.0000 
     32 N50         5.4660   -3.1000   16.1950 N.am      1 A76800      0.0000 
     33 C51         4.3690   -2.2860   15.6750 C.3       1 A76800      0.0000 
     34 C52         3.0490   -2.8250   16.2110 C.3       1 A76800      0.0000 
     35 C53         2.8640   -4.3070   15.9610 C.ar      1 A76800      0.0000 
     36 C54         2.4080   -4.7500   14.7120 C.ar      1 A76800      0.0000 
     37 C55         2.2440   -6.1210   14.4760 C.ar      1 A76800      0.0000 
     38 C56         2.5400   -7.0460   15.4810 C.ar      1 A76800      0.0000 
     39 C57         2.9920   -6.6080   16.7270 C.ar      1 A76800      0.0000 
     40 C58         3.1570   -5.2460   16.9730 C.ar      1 A76800      0.0000 
     41 N81         6.9480   -5.9900   16.6460 N.am      1 A76800      0.0000 
     42 C82         7.3610   -4.6320   16.2660 C.3       1 A76800      0.0000 
     43 C83         6.2680   -3.8780   15.4650 C.2       1 A76800      0.0000 
     44 O84         6.1760   -3.9420   14.2590 O.2       1 A76800      0.0000 
     45 C85         8.7110   -4.6080   15.5100 C.3       1 A76800      0.0000 
     46 C86         9.7690   -5.4340   16.2350 C.3       1 A76800      0.0000 
     47 C87         9.2260   -3.1700   15.3470 C.3       1 A76800      0.0000 
     48 C97         6.7970   -6.4050   17.9020 C.2       1 A76800      0.0000 
     49 O98         7.0870   -5.7120   18.8680 O.2       1 A76800      0.0000 
     50 N99         6.3110   -7.6600   18.0560 N.am      1 A76800      0.0000 
     51 C2          5.8910   -8.5060   16.9340 C.3       1 A76800      0.0000 
     52 C3          6.0950   -8.1580   19.4230 C.3       1 A76800      0.0000 
     53 C8          4.7000   -7.8490   19.9180 C.ar      1 A76800      0.0000 
     54 C12         3.6630   -8.7550   19.6540 C.ar      1 A76800      0.0000 
     55 N10         4.5240   -6.6940   20.5770 N.ar      1 A76800      0.0000 
     56 C13         2.3780   -8.4410   20.0920 C.ar      1 A76800      0.0000 
     57 C14         3.2800   -6.3950   20.9820 C.ar      1 A76800      0.0000 
     58 C15         2.1790   -7.2340   20.7650 C.ar      1 A76800      0.0000 
     59 H           3.7003    5.6845   10.5416 H         1 A76800      0.0000 
     60 H           3.9286    5.6635    8.7844 H         1 A76800      0.0000 
     61 H           6.1370    5.6290    7.8602 H         1 A76800      0.0000 
     62 H           8.4500    6.2976    8.2103 H         1 A76800      0.0000 
     63 H           7.8430    6.0077   12.3366 H         1 A76800      0.0000 
     64 H           9.2726    6.5222   10.4808 H         1 A76800      0.0000 
     65 H           3.2851    1.3051    9.9553 H         1 A76800      0.0000 
     66 H           2.5986    1.8864   12.8395 H         1 A76800      0.0000 
     67 H           1.4854   -0.2809   10.9929 H         1 A76800      0.0000 
     68 H           4.5708    1.6302   13.7939 H         1 A76800      0.0000 
     69 H           5.9590   -1.0667   13.5907 H         1 A76800      0.0000 
     70 H           7.9891    0.1079   14.2419 H         1 A76800      0.0000 
     71 H           7.1178    1.6507   14.2251 H         1 A76800      0.0000 
     72 H           8.1020   -1.1754   12.0717 H         1 A76800      0.0000 
     73 H           8.5773   -0.9464    9.7070 H         1 A76800      0.0000 
     74 H           8.1815    1.1577    8.5977 H         1 A76800      0.0000 
     75 H           7.4018    3.0721    9.8535 H         1 A76800      0.0000 
     76 H           6.9362    2.8442   12.2180 H         1 A76800      0.0000 
     77 H           6.6524   -0.6795   15.8805 H         1 A76800      0.0000 
     78 H           3.6727   -0.2737   15.7663 H         1 A76800      0.0000 
     79 H           5.5964   -3.0329   17.2515 H         1 A76800      0.0000 
     80 H           4.3412   -2.3427   14.5965 H         1 A76800      0.0000 
     81 H           2.2210   -2.2716   15.7416 H         1 A76800      0.0000 
     82 H           2.9976   -2.6303   17.2934 H         1 A76800      0.0000 
     83 H           2.1954   -4.0731   13.9742 H         1 A76800      0.0000 
     84 H           1.9058   -6.4454   13.5630 H         1 A76800      0.0000 
     85 H           2.4244   -8.0511   15.3015 H         1 A76800      0.0000 
     86 H           3.2034   -7.2924   17.4644 H         1 A76800      0.0000 
     87 H           3.4900   -4.9193   17.8844 H         1 A76800      0.0000 
     88 H           6.7725   -6.6383   15.8291 H         1 A76800      0.0000 
     89 H           7.5216   -4.0342   17.1967 H         1 A76800      0.0000 
     90 H           8.5608   -5.0271   14.5245 H         1 A76800      0.0000 
     91 H           6.8217   -7.7034   20.1137 H         1 A76800      0.0000 
     92 H           6.2479   -9.2475   19.4606 H         1 A76800      0.0000 
     93 H           3.8483   -9.6194   19.1546 H         1 A76800      0.0000 
     94 H           1.6016   -9.0759   19.9258 H         1 A76800      0.0000 
     95 H           3.0962   -5.4871   21.4922 H         1 A76800      0.0000 
     96 H           1.2543   -6.9671   21.0921 H         1 A76800      0.0000 
     97 H           4.6710    3.5057    7.7981 H         1 A76800      0.0000 
     98 H           4.9407    2.2354    8.7468 H         1 A76800      0.0000 
     99 H           3.4740    2.4866    8.1370 H         1 A76800      0.0000 
    100 H           0.1056    2.1673   12.0047 H         1 A76800      0.0000 
    101 H           0.4975    1.8756   10.4725 H         1 A76800      0.0000 
    102 H          -0.6178    0.9759   11.2026 H         1 A76800      0.0000 
    103 H           1.4898   -1.0238   13.3083 H         1 A76800      0.0000 
    104 H           0.7392    0.3017   13.8239 H         1 A76800      0.0000 
    105 H          -0.0304   -0.7380   12.8684 H         1 A76800      0.0000 
    106 H          10.6450   -5.4209   15.7529 H         1 A76800      0.0000 
    107 H           9.9380   -5.0921   17.1594 H         1 A76800      0.0000 
    108 H           9.4967   -6.3922   16.3222 H         1 A76800      0.0000 
    109 H           9.3680   -2.7240   16.2307 H         1 A76800      0.0000 
    110 H          10.0992   -3.1411   14.8604 H         1 A76800      0.0000 
    111 H           8.5844   -2.6019   14.8317 H         1 A76800      0.0000 
    112 H           6.6418   -8.6762   16.2958 H         1 A76800      0.0000 
    113 H           5.5621   -9.3980   17.2442 H         1 A76800      0.0000 
    114 H           5.1500   -8.0865   16.4097 H         1 A76800      0.0000 
    115 H           6.5115    1.2097   16.6314 H         1 A76800      0.0000 
    116 H           4.5996    0.2197   17.7149 H         1 A76800      0.0000 
@<TRIPOS>BOND
     1    2    1 2    
     2    3    1 am   
     3   12    1 am   
     4    4    3 1    
     5    5    3 1    
     6   97    4 1    
     7   98    4 1    
     8   99    4 1    
     9    6    5 1    
    10   59    5 1    
    11   60    5 1    
    12    7    6 ar   
    13    8    6 ar   
    14    9    7 ar   
    15   61    7 1    
    16   10    8 ar   
    17   11    9 ar   
    18   62    9 1    
    19   11   10 ar   
    20   63   10 1    
    21   64   11 1    
    22   13   12 1    
    23   65   12 1    
    24   14   13 1    
    25   16   13 1    
    26   66   13 1    
    27   15   14 2    
    28   19   14 am   
    29   17   16 1    
    30   18   16 1    
    31   67   16 1    
    32  100   17 1    
    33  101   17 1    
    34  102   17 1    
    35  103   18 1    
    36  104   18 1    
    37  105   18 1    
    38   20   19 1    
    39   68   19 1    
    40   21   20 1    
    41   28   20 1    
    42   69   20 1    
    43   22   21 1    
    44   70   21 1    
    45   71   21 1    
    46   23   22 ar   
    47   27   22 ar   
    48   24   23 ar   
    49   72   23 1    
    50   25   24 ar   
    51   73   24 1    
    52   26   25 ar   
    53   74   25 1    
    54   27   26 ar   
    55   75   26 1    
    56   76   27 1    
    57   29   28 1    
    58   31   28 1    
    59   77   28 1    
    60  115   29 1    
    61   31   30 1    
    62  116   30 1    
    63   33   31 1    
    64   78   31 1    
    65   33   32 1    
    66   43   32 am   
    67   79   32 1    
    68   34   33 1    
    69   80   33 1    
    70   35   34 1    
    71   81   34 1    
    72   82   34 1    
    73   36   35 ar   
    74   40   35 ar   
    75   37   36 ar   
    76   83   36 1    
    77   38   37 ar   
    78   84   37 1    
    79   39   38 ar   
    80   85   38 1    
    81   40   39 ar   
    82   86   39 1    
    83   87   40 1    
    84   42   41 1    
    85   48   41 am   
    86   88   41 1    
    87   43   42 1    
    88   45   42 1    
    89   89   42 1    
    90   44   43 2    
    91   46   45 1    
    92   47   45 1    
    93   90   45 1    
    94  106   46 1    
    95  107   46 1    
    96  108   46 1    
    97  109   47 1    
    98  110   47 1    
    99  111   47 1    
   100   49   48 2    
   101   50   48 am   
   102   51   50 1    
   103   52   50 1    
   104  112   51 1    
   105  113   51 1    
   106  114   51 1    
   107   53   52 1    
   108   91   52 1    
   109   92   52 1    
   110   54   53 ar   
   111   55   53 ar   
   112   56   54 ar   
   113   93   54 1    
   114   57   55 ar   
   115   58   56 ar   
   116   94   56 1    
   117   58   57 ar   
   118   95   57 1    
   119   96   58 1    
@<TRIPOS>SUBSTRUCTURE
     1 A76800      1 GROUP   
@<TRIPOS>SET

