#    Name: 2z78_H86_1_INTS_M
#    Modification time : Tue Mar 25 10:20:11 2014

@<TRIPOS>MOLECULE
2z78_H86_1_INTS_M
  101     0     9     0     0
SMALL
NO_CHARGES


@<TRIPOS>ATOM
      1 CA         40.2820   52.7650   11.1040 C.3       3 GLC5        0.0000 
      2 CA         39.2900   53.7080   12.4160 C.3       9 GLL5        0.0000 
      3 CA         41.2740   51.8220    9.7920 C.3       6 GLP5        0.0000 
      4 CA         40.6775   54.2320   13.2805 C.3       3 GLC5        0.0000 
      5 CA         42.0650   54.7560   14.1450 C.3       6 GLP5        0.0000 
      6 CA         40.0410   55.3430   12.8210 C.3       3 GLC5        0.0000 
      7 CA         38.0870   54.6400   12.2560 C.3       9 GLL5        0.0000 
      8 CA         41.9950   56.0460   13.3860 C.3       6 GLP5        0.0000 
      9 CA         37.7980   55.3995   14.2880 C.3       3 GLC5        0.0000 
     10 CA         37.5090   56.1590   16.3200 C.3       6 GLP5        0.0000 
     11 CA         35.0975   55.0840   12.8970 C.3       3 GLC5        0.0000 
     12 CA         36.7800   53.8490   12.2090 C.3       9 GLL5        0.0000 
     13 CA         33.4150   56.3190   13.5850 C.3       6 GLP5        0.0000 
     14 CA         38.3235   52.1570   10.0750 C.3       3 GLC5        0.0000 
     15 CA         36.6960   53.0080   10.9350 C.3       9 GLL5        0.0000 
     16 CA         39.9510   51.3060    9.2150 C.3       6 GLP5        0.0000 
     17 CA         34.2210   52.0265   12.6215 C.3       3 GLC5        0.0000 
     18 CA         35.4070   52.1850   10.9000 C.3       9 GLL5        0.0000 
     19 CA         33.0350   51.8680   14.3430 C.3       6 GLP5        0.0000 
     20 CA         37.3135   50.7975    9.7580 C.3       3 GLC5        0.0000 
     21 CA         35.2350   51.5180    9.5340 C.3       9 GLL5        0.0000 
     22 CA         39.3920   50.0770    9.9820 C.3       6 GLP5        0.0000 
     23 CA         32.9145   51.6705   12.2115 C.3       3 GLC5        0.0000 
     24 CA         32.7940   51.4730   10.0800 C.3       9 GLL5        0.0000 
     25 CA         31.7230   45.8525    9.0090 C.3       3 GLC5        0.0000 
     26 CA         30.3330   47.3940    8.9630 C.3       9 GLL5        0.0000 
     27 CA         33.1130   44.3110    9.0550 C.3       6 GLP5        0.0000 
     28 CA         31.4630   44.8100    8.3670 C.3       3 GLC5        0.0000 
     29 CA         29.8130   45.3090    7.6790 C.3       9 GLL5        0.0000 
     30 CA         29.3240   43.5330    8.7995 C.3       3 GLC5        0.0000 
     31 CA         28.8350   41.7570    9.9200 C.3       6 GLP5        0.0000 
     32 N          29.4250   47.1465    3.3565 N.am      1 SEC2        0.0000 
     33 N          28.8970   45.7200    3.6980 N.am      7 SEL2        0.0000 
     34 N          29.9530   48.5730    3.0150 N.am      4 SEP2        0.0000 
     35 NZ         32.1910   44.3775    4.9735 N.4       2 LYC4        0.0000 
     36 NZ         31.2850   45.5290    4.6180 N.4       8 LYL4        0.0000 
     37 NZ         32.6850   42.1170    5.9330 N.4       5 LYP4        0.0000 
     38 N          32.1910   44.3775    4.9735 N.am      1 SEC2        0.0000 
     39 N          31.2850   45.5290    4.6180 N.am      7 SEL2        0.0000 
     40 N          33.0970   43.2260    5.3290 N.am      4 SEP2        0.0000 
     41 NZ         30.4955   42.8310    5.6980 N.4       2 LYC4        0.0000 
     42 NZ         29.5760   43.6430    5.0640 N.4       8 LYL4        0.0000 
     43 N          30.4955   42.8310    5.6980 N.am      1 SEC2        0.0000 
     44 N          29.5760   43.6430    5.0640 N.am      7 SEL2        0.0000 
     45 N          31.4150   42.0190    6.3320 N.am      4 SEP2        0.0000 
     46 NZ         25.7630   45.3680    5.2420 N.4       2 LYC4        0.0000 
     47 NZ         26.7940   44.5670    6.3060 N.4       8 LYL4        0.0000 
     48 NZ         24.7320   46.1690    4.1780 N.4       5 LYP4        0.0000 
     49 N          27.5705   43.5000    6.9775 N.am      1 SEC2        0.0000 
     50 N          26.7940   44.5670    6.3060 N.am      7 SEL2        0.0000 
     51 N          28.3470   42.4330    7.6490 N.am      4 SEP2        0.0000 
     52 NZ         25.8090   46.5850    4.8190 N.4       2 LYC4        0.0000 
     53 NZ         26.8860   47.0010    5.4600 N.4       8 LYL4        0.0000 
     54 N          26.6290   48.3135    4.9520 N.am      1 SEC2        0.0000 
     55 N          26.8860   47.0010    5.4600 N.am      7 SEL2        0.0000 
     56 N          26.3720   49.6260    4.4440 N.am      4 SEP2        0.0000 
     57 CA         31.0495   44.9870    9.5265 C.3       3 GLC5        0.0000 
     58 CA         28.9860   45.6630    9.9980 C.3       9 GLL5        0.0000 
     59 CA         28.9105   43.7100    9.9590 C.3       3 GLC5        0.0000 
     60 CA         30.0005   42.9345   14.0280 C.3       3 GLC5        0.0000 
     61 CA         27.9690   42.6360   13.8840 C.3       9 GLL5        0.0000 
     62 CA         32.0320   43.2330   14.1720 C.3       6 GLP5        0.0000 
     63 CA         28.6000   41.0710   14.3070 C.3       3 GLC5        0.0000 
     64 CA         29.2310   39.5060   14.7300 C.3       6 GLP5        0.0000 
     65 CA         28.0940   41.5710   12.2205 C.3       3 GLC5        0.0000 
     66 CA         28.2190   40.5060   10.5570 C.3       6 GLP5        0.0000 
     67 CA         28.0735   47.7620   15.5530 C.3       3 GLC5        0.0000 
     68 CA         27.3340   46.1680   14.4650 C.3       9 GLL5        0.0000 
     69 CA         28.8130   49.3560   16.6410 C.3       6 GLP5        0.0000 
     70 CA         27.1930   48.1490   16.4465 C.3       3 GLC5        0.0000 
     71 CA         26.8570   46.9660   15.4400 C.3       9 GLL5        0.0000 
     72 CA         27.5290   49.3320   17.4530 C.3       6 GLP5        0.0000 
     73 CA         25.4290   46.9765   16.8180 C.3       3 GLC5        0.0000 
     74 CA         24.0010   46.9870   18.1960 C.3       6 GLP5        0.0000 
     75 CA         28.2645   48.5075   14.3940 C.3       3 GLC5        0.0000 
     76 CA         27.8130   46.7210   13.2830 C.3       9 GLL5        0.0000 
     77 CA         28.7160   50.2940   15.5050 C.3       6 GLP5        0.0000 
     78 CA         26.4950   47.8760   12.3940 C.3       3 GLC5        0.0000 
     79 CA         25.1770   49.0310   11.5050 C.3       6 GLP5        0.0000 
     80 CA         38.5406   52.6977   13.4832 C.3       3 GLC5        0.0000 
     81 CA         39.3470   51.3840   14.6940 C.3       6 GLP5        0.0000 
     82 CA         33.9410   53.3813    9.7135 C.3       3 GLC5        0.0000 
     83 CA         32.5610   54.9110    9.2100 C.3       6 GLP5        0.0000 
     84 CA         32.5140   53.0655    9.3486 C.3       3 GLC5        0.0000 
     85 CA         31.5570   51.3660    9.1880 C.3       9 GLL5        0.0000 
     86 CA         31.4577   50.9595    7.4008 C.3       3 GLC5        0.0000 
     87 CA         31.5640   51.2810    5.7230 C.3       6 GLP5        0.0000 
     88 CA         30.2974   51.8104    9.0038 C.3       3 GLC5        0.0000 
     89 CA         31.1460   49.9100    8.9690 C.3       9 GLL5        0.0000 
     90 CA         28.9340   52.9560    8.7060 C.3       6 GLP5        0.0000 
     91 CA         30.2948   45.4510   12.8185 C.3       3 GLC5        0.0000 
     92 CA         28.9270   46.4170   11.1640 C.3       9 GLL5        0.0000 
     93 CA         31.9600   44.7510   13.9050 C.3       6 GLP5        0.0000 
     94 CA         30.0440   44.4940   13.4950 C.3       3 GLC5        0.0000 
     95 CA         28.3660   44.5090   12.4920 C.3       9 GLL5        0.0000 
     96 CA         28.4815   42.9970   11.5025 C.3       3 GLC5        0.0000 
     97 CA         25.7681   44.1689   13.8545 C.3       3 GLC5        0.0000 
     98 CA         27.8900   43.9650   13.6780 C.3       9 GLL5        0.0000 
     99 CA         23.8860   44.2910   13.4860 C.3       6 GLP5        0.0000 
    100 CA         25.5831   46.1760   14.0719 C.3       3 GLC5        0.0000 
    101 CA         23.7120   45.7080   14.0260 C.3       6 GLP5        0.0000 
@<TRIPOS>BOND
@<TRIPOS>SUBSTRUCTURE
     1 SEC2       32 GROUP        1 X    SEC  0     ROOT SEC X 2
     2 LYC4       35 GROUP        1 X    LYC  0     **** LYC X 4
     3 GLC5        1 GROUP        1 X    GLC  0     **** GLC X 6
     4 SEP2       34 GROUP        1 Y    SEP  0     ROOT SEP Y 9
     5 LYP4       37 GROUP        1 Y    LYP  0     **** LYP Y 11
     6 GLP5        3 GROUP        1 Y    GLP  0     **** GLP Y 13
     7 SEL2       33 GROUP        1 Z    SEL  0     ROOT SEL Z 16
     8 LYL4       36 GROUP        1 Z    LYL  0     **** LYL Z 18
     9 GLL5        2 GROUP        1 Z    GLL  0     **** GLL Z 20
@<TRIPOS>SET

