#    Name: 2z78_H86_1_ligand
#    Modification time : Tue Mar 25 10:20:11 2014

@<TRIPOS>MOLECULE
2z78_H86_1_ligand
   65    66     1     0     0
SMALL
NO_CHARGES


@<TRIPOS>ATOM
      1 CAA        39.2900   53.7080   12.4160 C.3       1 H861300     0.0000 
      2 CAP        38.0870   54.6400   12.2560 C.3       1 H861300     0.0000 
      3 CAQ        36.7800   53.8490   12.2090 C.3       1 H861300     0.0000 
      4 CAR        36.6960   53.0080   10.9350 C.3       1 H861300     0.0000 
      5 CAS        35.4070   52.1850   10.9000 C.3       1 H861300     0.0000 
      6 CAT        35.2350   51.5180    9.5340 C.3       1 H861300     0.0000 
      7 CAU        33.9600   50.6750    9.4930 C.3       1 H861300     0.0000 
      8 CAV        32.7940   51.4730   10.0800 C.3       1 H861300     0.0000 
      9 CAW        31.5570   51.3660    9.1880 C.3       1 H861300     0.0000 
     10 CAX        31.1460   49.9100    8.9690 C.3       1 H861300     0.0000 
     11 OAZ        30.9080   49.3290   10.2570 O.3       1 H861300     0.0000 
     12 CBC        30.2540   48.1430   10.1330 C.ar      1 H861300     0.0000 
     13 CAM        29.5500   47.6580   11.2270 C.ar      1 H861300     0.0000 
     14 CAN        30.3330   47.3940    8.9630 C.ar      1 H861300     0.0000 
     15 NBG        29.6930   46.1500    8.8920 N.pl3     1 H861300     0.0000 
     16 CAY        29.8130   45.3090    7.6790 C.3       1 H861300     0.0000 
     17 CBF        29.2230   45.9790    6.4350 C.3       1 H861300     0.0000 
     18 PBI        29.7630   45.1030    4.9110 P.3       1 H861300     0.0000 
     19 OAF        28.8970   45.7200    3.6980 O.co2     1 H861300     0.0000 
     20 OAG        31.2850   45.5290    4.6180 O.co2     1 H861300     0.0000 
     21 OAC        29.5760   43.6430    5.0640 O.co2     1 H861300     0.0000 
     22 PBH        27.3870   46.0550    6.4820 P.3       1 H861300     0.0000 
     23 OAD        26.7940   44.5670    6.3060 O.co2     1 H861300     0.0000 
     24 OAE        26.9470   46.4730    7.9720 O.co2     1 H861300     0.0000 
     25 OAB        26.8860   47.0010    5.4600 O.co2     1 H861300     0.0000 
     26 CAO        28.9860   45.6630    9.9980 C.ar      1 H861300     0.0000 
     27 CBE        28.9270   46.4170   11.1640 C.ar      1 H861300     0.0000 
     28 CBD        28.3320   45.8850   12.3000 C.ar      1 H861300     0.0000 
     29 CAK        28.3660   44.5090   12.4920 C.ar      1 H861300     0.0000 
     30 CBA        27.8900   43.9650   13.6780 C.ar      1 H861300     0.0000 
     31 FAH        27.9690   42.6360   13.8840 F         1 H861300     0.0000 
     32 CAJ        27.3710   44.7930   14.6650 C.ar      1 H861300     0.0000 
     33 CBB        27.3340   46.1680   14.4650 C.ar      1 H861300     0.0000 
     34 FAI        26.8570   46.9660   15.4400 F         1 H861300     0.0000 
     35 CAL        27.8130   46.7210   13.2830 C.ar      1 H861300     0.0000 
     36 H          38.1956   55.2098   11.3335 H         1 H861300     0.0000 
     37 H          38.0572   55.3337   13.0958 H         1 H861300     0.0000 
     38 H          35.9400   54.5414   12.2379 H         1 H861300     0.0000 
     39 H          36.7260   53.1927   13.0764 H         1 H861300     0.0000 
     40 H          37.5522   52.3350   10.8920 H         1 H861300     0.0000 
     41 H          36.7242   53.6669   10.0673 H         1 H861300     0.0000 
     42 H          34.5591   52.8378   11.0899 H         1 H861300     0.0000 
     43 H          35.4488   51.4195   11.6704 H         1 H861300     0.0000 
     44 H          36.0944   50.8790    9.3363 H         1 H861300     0.0000 
     45 H          35.1823   52.2863    8.7640 H         1 H861300     0.0000 
     46 H          34.1066   49.7729   10.0754 H         1 H861300     0.0000 
     47 H          33.7347   50.4136    8.4657 H         1 H861300     0.0000 
     48 H          33.0838   52.5186   10.1684 H         1 H861300     0.0000 
     49 H          32.5576   51.0866   11.0699 H         1 H861300     0.0000 
     50 H          31.7705   51.8276    8.2220 H         1 H861300     0.0000 
     51 H          30.7306   51.9057    9.6546 H         1 H861300     0.0000 
     52 H          31.9527   49.4088    8.4410 H         1 H861300     0.0000 
     53 H          30.2533   49.9023    8.3495 H         1 H861300     0.0000 
     54 H          29.4887   48.2193   12.0888 H         1 H861300     0.0000 
     55 H          30.8552   47.7466    8.1558 H         1 H861300     0.0000 
     56 H          29.2971   44.3473    7.8298 H         1 H861300     0.0000 
     57 H          30.8717   45.0799    7.4776 H         1 H861300     0.0000 
     58 H          29.5281   46.9721    6.2832 H         1 H861300     0.0000 
     59 H          28.5157   44.7542    9.9434 H         1 H861300     0.0000 
     60 H          28.7423   43.8960   11.7583 H         1 H861300     0.0000 
     61 H          27.0152   44.3906   15.5409 H         1 H861300     0.0000 
     62 H          27.7842   47.7340   13.1371 H         1 H861300     0.0000 
     63 H          40.1510   54.2155   12.4503 H         1 H861300     0.0000 
     64 H          39.2335   53.1696   13.2568 H         1 H861300     0.0000 
     65 H          39.3615   53.0603   11.6575 H         1 H861300     0.0000 
@<TRIPOS>BOND
     1    2    1 1    
     2   63    1 1    
     3   64    1 1    
     4   65    1 1    
     5    3    2 1    
     6   36    2 1    
     7   37    2 1    
     8    4    3 1    
     9   38    3 1    
    10   39    3 1    
    11    5    4 1    
    12   40    4 1    
    13   41    4 1    
    14    6    5 1    
    15   42    5 1    
    16   43    5 1    
    17    7    6 1    
    18   44    6 1    
    19   45    6 1    
    20    8    7 1    
    21   46    7 1    
    22   47    7 1    
    23    9    8 1    
    24   48    8 1    
    25   49    8 1    
    26   10    9 1    
    27   50    9 1    
    28   51    9 1    
    29   11   10 1    
    30   52   10 1    
    31   53   10 1    
    32   12   11 1    
    33   13   12 ar   
    34   14   12 ar   
    35   27   13 ar   
    36   54   13 1    
    37   15   14 ar   
    38   55   14 1    
    39   16   15 1    
    40   26   15 ar   
    41   17   16 1    
    42   56   16 1    
    43   57   16 1    
    44   18   17 1    
    45   22   17 1    
    46   58   17 1    
    47   19   18 ar   
    48   20   18 ar   
    49   21   18 ar   
    50   23   22 ar   
    51   24   22 ar   
    52   25   22 ar   
    53   27   26 ar   
    54   59   26 1    
    55   28   27 1    
    56   29   28 ar   
    57   35   28 ar   
    58   30   29 ar   
    59   60   29 1    
    60   31   30 1    
    61   32   30 ar   
    62   33   32 ar   
    63   61   32 1    
    64   34   33 1    
    65   35   33 ar   
    66   62   35 1    
@<TRIPOS>SUBSTRUCTURE
     1 H861300     1 GROUP   
@<TRIPOS>SET

