#    Name: 3o5a_MGD_2_INTS_M
#    Modification time : Tue Mar 25 03:16:49 2014

@<TRIPOS>MOLECULE
3o5a_MGD_2_INTS_M
  125     0    12     0     0
SMALL
NO_CHARGES


@<TRIPOS>ATOM
      1 NZ         15.8060  -16.1065   23.8990 N.4       3 LYC4        0.0000 
      2 NZ         14.4940  -16.3070   24.4440 N.4      11 LYL4        0.0000 
      3 NZ         18.2830  -15.7200   23.9620 N.4       7 LYP4        0.0000 
      4 NZ         13.8510  -16.1475   23.2155 N.4       3 LYC4        0.0000 
      5 NZ         13.2080  -15.9880   21.9870 N.4       7 LYP4        0.0000 
      6 N          15.8060  -16.1065   23.8990 N.am      2 SEC2        0.0000 
      7 N          14.4940  -16.3070   24.4440 N.am     10 SEL2        0.0000 
      8 N          17.1180  -15.9060   23.3540 N.am      6 SEP2        0.0000 
      9 N          13.8510  -16.1475   23.2155 N.am      2 SEC2        0.0000 
     10 N          13.2080  -15.9880   21.9870 N.am      6 SEP2        0.0000 
     11 N          14.7395  -19.4455   25.0315 N.am      2 SEC2        0.0000 
     12 N          13.8150  -18.5430   25.6540 N.am     10 SEL2        0.0000 
     13 N          15.6640  -20.3480   24.4090 N.am      6 SEP2        0.0000 
     14 N          11.9755  -15.3870   29.6000 N.am      2 SEC2        0.0000 
     15 N          13.0820  -14.9830   28.7810 N.am     10 SEL2        0.0000 
     16 N          10.8690  -15.7910   30.4190 N.am      6 SEP2        0.0000 
     17 N          12.8835  -12.5930   25.9825 N.am      2 SEC2        0.0000 
     18 N          13.2040  -13.9430   26.4410 N.am     10 SEL2        0.0000 
     19 N          12.5630  -11.2430   25.5240 N.am      6 SEP2        0.0000 
     20 CA         10.0265  -19.4005   25.4180 C.3       4 GLC5        0.0000 
     21 CA         11.0010  -17.5510   25.3350 C.3      12 GLL5        0.0000 
     22 CA          9.0520  -21.2500   25.5010 C.3       8 GLP5        0.0000 
     23 CA          8.2310  -18.8250   27.8220 C.3       4 GLC5        0.0000 
     24 CA          8.6790  -17.5910   26.1050 C.3      12 GLL5        0.0000 
     25 CA          7.7830  -20.0590   29.5390 C.3       8 GLP5        0.0000 
     26 O           8.6195  -16.1280   27.7770 O.2       1 ALC1        0.0000 
     27 O           8.5410  -17.4790   27.5550 O.2       9 ALL1        0.0000 
     28 O           8.6980  -14.7770   27.9990 O.2       5 ALP1        0.0000 
     29 N           4.8945  -17.2855   25.8535 N.am      2 SEC2        0.0000 
     30 N           6.2670  -16.8330   26.1960 N.am     10 SEL2        0.0000 
     31 N           3.5220  -17.7380   25.5110 N.am      6 SEP2        0.0000 
     32 O           5.7395  -17.7180   26.9945 O.2       1 ALC1        0.0000 
     33 O           6.2670  -16.8330   26.1960 O.2       9 ALL1        0.0000 
     34 O           5.2120  -18.6030   27.7930 O.2       5 ALP1        0.0000 
     35 CA          8.3670  -13.8675   24.3845 C.3       4 GLC5        0.0000 
     36 CA          7.9320  -15.7440   24.8680 C.3      12 GLL5        0.0000 
     37 CA          8.8020  -11.9910   23.9010 C.3       8 GLP5        0.0000 
     38 CA          7.3835  -14.5990   20.9050 C.3       4 GLC5        0.0000 
     39 CA          5.7640  -14.2390   22.4040 C.3      12 GLL5        0.0000 
     40 CA          9.0030  -14.9590   19.4060 C.3       8 GLP5        0.0000 
     41 N           2.9745  -12.9120   20.2875 N.am      2 SEC2        0.0000 
     42 N           4.2300  -13.0770   21.0830 N.am     10 SEL2        0.0000 
     43 N           1.7190  -12.7470   19.4920 N.am      6 SEP2        0.0000 
     44 O           4.1035  -11.0440   23.2035 O.2       1 ALC1        0.0000 
     45 O           4.6580  -12.2480   23.1450 O.2       9 ALL1        0.0000 
     46 O           3.5490   -9.8400   23.2620 O.2       5 ALP1        0.0000 
     47 O           5.7695  -11.1075   26.5530 O.2       1 ALC1        0.0000 
     48 O           5.0760  -11.3440   25.1640 O.2       9 ALL1        0.0000 
     49 O           6.4630  -10.8710   27.9420 O.2       5 ALP1        0.0000 
     50 O           4.3125  -10.5920   24.2130 O.2       1 ALC1        0.0000 
     51 CA          6.5100  -13.9340   25.8830 C.3       4 GLC5        0.0000 
     52 CA          6.4270  -14.1610   23.6590 C.3      12 GLL5        0.0000 
     53 CA          6.5930  -13.7070   28.1070 C.3       8 GLP5        0.0000 
     54 CA         15.5200  -13.1645   25.2720 C.3       4 GLC5        0.0000 
     55 CA         16.2060  -14.3100   26.6880 C.3      12 GLL5        0.0000 
     56 CA         14.8340  -12.0190   23.8560 C.3       8 GLP5        0.0000 
     57 CA         18.2400  -10.5010   24.6305 C.3       4 GLC5        0.0000 
     58 CA         17.9270  -11.9360   25.2250 C.3      12 GLL5        0.0000 
     59 CA         18.5530   -9.0660   24.0360 C.3       8 GLP5        0.0000 
     60 CA         16.2265  -11.5875   26.6560 C.3       4 GLC5        0.0000 
     61 CA         14.5260  -11.2390   28.0870 C.3       8 GLP5        0.0000 
     62 CA         16.3805  -11.9775   24.5405 C.3       4 GLC5        0.0000 
     63 CA         18.8045  -11.2350   26.6455 C.3       4 GLC5        0.0000 
     64 CA         19.6820  -10.5340   28.0660 C.3       8 GLP5        0.0000 
     65 CA         19.7310  -10.7410   24.8055 C.3       4 GLC5        0.0000 
     66 CA         20.9090  -12.4160   25.5750 C.3      12 GLL5        0.0000 
     67 CA         22.5240  -11.5495   25.3580 C.3       4 GLC5        0.0000 
     68 CA         24.1390  -10.6830   25.1410 C.3       8 GLP5        0.0000 
     69 CA         22.5450  -13.2915   26.7770 C.3       4 GLC5        0.0000 
     70 CA         24.1810  -14.1670   27.9790 C.3       8 GLP5        0.0000 
     71 CA         21.5025  -14.3130   24.7875 C.3       4 GLC5        0.0000 
     72 CA         22.0960  -16.2100   24.0000 C.3       8 GLP5        0.0000 
     73 CA         21.2380  -15.2155   25.8235 C.3       4 GLC5        0.0000 
     74 CA         20.3800  -14.2210   27.6470 C.3      12 GLL5        0.0000 
     75 O          21.3570  -15.2125   25.7520 O.2       1 ALC1        0.0000 
     76 O          20.6600  -15.5160   27.0420 O.2       9 ALL1        0.0000 
     77 O          22.0540  -14.9090   24.4620 O.2       5 ALP1        0.0000 
     78 CA         21.2900  -16.4215   25.9330 C.3       4 GLC5        0.0000 
     79 CA         20.4840  -16.6330   27.8660 C.3      12 GLL5        0.0000 
     80 N          19.9370  -17.2125   25.6950 N.am      2 SEC2        0.0000 
     81 N          21.2980  -18.0910   26.3010 N.am     10 SEL2        0.0000 
     82 N          18.5760  -16.3340   25.0890 N.am      6 SEP2        0.0000 
     83 N          22.2395  -18.6925   25.4620 N.am      2 SEC2        0.0000 
     84 N          23.1810  -19.2940   24.6230 N.am      6 SEP2        0.0000 
     85 O          21.2210  -20.2110   27.9595 O.2       1 ALC1        0.0000 
     86 O          20.6240  -19.0150   28.3160 O.2       9 ALL1        0.0000 
     87 O          21.8180  -21.4070   27.6030 O.2       5 ALP1        0.0000 
     88 O          18.8425  -19.7005   31.3680 O.2       1 ALC1        0.0000 
     89 O          19.8690  -19.8280   30.3160 O.2       9 ALL1        0.0000 
     90 O          17.8160  -19.5730   32.4200 O.2       5 ALP1        0.0000 
     91 O          19.4780  -21.0560   29.5760 O.2       1 ALC1        0.0000 
     92 O          19.0870  -22.2840   28.8360 O.2       5 ALP1        0.0000 
     93 CA         20.9355  -15.3005   30.5030 C.3       4 GLC5        0.0000 
     94 CA         19.9700  -16.4740   29.2120 C.3      12 GLL5        0.0000 
     95 CA         21.9010  -14.1270   31.7940 C.3       8 GLP5        0.0000 
     96 O          18.8800  -15.1750   30.8915 O.2       1 ALC1        0.0000 
     97 O          19.6020  -15.2570   29.7060 O.2       9 ALL1        0.0000 
     98 O          18.1580  -15.0930   32.0770 O.2       5 ALP1        0.0000 
     99 CA         17.8895  -15.7540   28.8985 C.3       4 GLC5        0.0000 
    100 CA         19.2790  -14.2360   28.7280 C.3      12 GLL5        0.0000 
    101 CA         16.5000  -17.2720   29.0690 C.3       8 GLP5        0.0000 
    102 CA         11.1550  -16.1350   23.7933 C.3       4 GLC5        0.0000 
    103 CA         11.9010  -15.1770   22.0600 C.3       8 GLP5        0.0000 
    104 CA          8.1062  -19.0260   25.1333 C.3       4 GLC5        0.0000 
    105 CA          8.1620  -20.7160   24.5330 C.3       8 GLP5        0.0000 
    106 CA          7.1350  -15.0598   26.6110 C.3       4 GLC5        0.0000 
    107 CA          7.4220  -17.0810   25.3620 C.3      12 GLL5        0.0000 
    108 CA          4.6242  -15.3810   22.9267 C.3       4 GLC5        0.0000 
    109 CA          3.1530  -16.5620   22.8220 C.3       8 GLP5        0.0000 
    110 CA          7.4487  -13.0955   23.4663 C.3       4 GLC5        0.0000 
    111 CA         16.6487  -15.6258   28.0545 C.3       4 GLC5        0.0000 
    112 CA         15.6617  -12.6092   27.5635 C.3       4 GLC5        0.0000 
    113 CA         18.7920  -11.9437   27.4947 C.3       4 GLC5        0.0000 
    114 CA         17.3890  -13.6490   27.3920 C.3      12 GLL5        0.0000 
    115 CA         17.6826  -15.4484   26.2312 C.3       4 GLC5        0.0000 
    116 CA         18.4150  -13.0580   26.4550 C.3      12 GLL5        0.0000 
    117 CA         17.7590  -17.3780   25.7150 C.3       8 GLP5        0.0000 
    118 CA         20.0127  -11.7000   27.0682 C.3       4 GLC5        0.0000 
    119 CA         19.7780  -13.3160   26.5660 C.3      12 GLL5        0.0000 
    120 CA         20.8652  -14.1777   29.9908 C.3       4 GLC5        0.0000 
    121 CA         19.7557  -12.3813   28.1267 C.3       4 GLC5        0.0000 
    122 CA         21.7118  -14.7752   28.4032 C.3       4 GLC5        0.0000 
    123 CA         23.5940  -15.3220   28.6190 C.3       8 GLP5        0.0000 
    124 CA         18.3635  -16.9127   28.8040 C.3       4 GLC5        0.0000 
    125 CA         18.9930  -16.9657   27.1270 C.3       4 GLC5        0.0000 
@<TRIPOS>BOND
@<TRIPOS>SUBSTRUCTURE
     1 ALC1       26 GROUP        1 X    ALC  0     ROOT ALC X 1
     2 SEC2        6 GROUP        1 X    SEC  0     **** SEC X 2
     3 LYC4        1 GROUP        1 X    LYC  0     **** LYC X 4
     4 GLC5       20 GROUP        1 X    GLC  0     **** GLC X 6
     5 ALP1       28 GROUP        1 Y    ALP  0     ROOT ALP Y 8
     6 SEP2        8 GROUP        1 Y    SEP  0     **** SEP Y 9
     7 LYP4        3 GROUP        1 Y    LYP  0     **** LYP Y 11
     8 GLP5       22 GROUP        1 Y    GLP  0     **** GLP Y 13
     9 ALL1       27 GROUP        1 Z    ALL  0     ROOT ALL Z 15
    10 SEL2        7 GROUP        1 Z    SEL  0     **** SEL Z 16
    11 LYL4        2 GROUP        1 Z    LYL  0     **** LYL Z 18
    12 GLL5       21 GROUP        1 Z    GLL  0     **** GLL Z 20
@<TRIPOS>SET

