#    Name: 3o5a_MGD_2_ligand
#    Modification time : Tue Mar 25 03:16:49 2014

@<TRIPOS>MOLECULE
3o5a_MGD_2_ligand
   69    74     1     0     0
SMALL
NO_CHARGES


@<TRIPOS>ATOM
      1 PB         13.6410  -17.0680   25.3870 P.3       1 MGD1804     0.0000 
      2 O1B        14.4940  -16.3070   24.4440 O.co2     1 MGD1804     0.0000 
      3 O2B        13.8150  -18.5430   25.6540 O.co2     1 MGD1804     0.0000 
      4 O3B        13.8080  -16.3830   26.8360 O.3       1 MGD1804     0.0000 
      5 O3A        15.2770  -14.5390   27.8000 O.3       1 MGD1804     0.0000 
      6 PA         13.7540  -14.8830   27.4410 P.3       1 MGD1804     0.0000 
      7 O1A        13.0820  -14.9830   28.7810 O.co2     1 MGD1804     0.0000 
      8 O2A        13.2040  -13.9430   26.4410 O.co2     1 MGD1804     0.0000 
      9 O5'        12.1120  -16.6940   24.9140 O.3       1 MGD1804     0.0000 
     10 C5'        11.0010  -17.5510   25.3350 C.3       1 MGD1804     0.0000 
     11 C4'         9.8170  -16.6350   25.7180 C.3       1 MGD1804     0.0000 
     12 O4'         9.3120  -15.9910   24.5630 O.3       1 MGD1804     0.0000 
     13 C3'         8.6790  -17.5910   26.1050 C.3       1 MGD1804     0.0000 
     14 O3'         8.5410  -17.4790   27.5550 O.3       1 MGD1804     0.0000 
     15 C2'         7.4220  -17.0810   25.3620 C.3       1 MGD1804     0.0000 
     16 O2'         6.2670  -16.8330   26.1960 O.3       1 MGD1804     0.0000 
     17 C1'         7.9320  -15.7440   24.8680 C.3       1 MGD1804     0.0000 
     18 N9          7.1650  -15.3020   23.7080 N.pl3     1 MGD1804     0.0000 
     19 C8          7.1520  -16.0050   22.4490 C.2       1 MGD1804     0.0000 
     20 N7          6.2630  -15.3040   21.6850 N.2       1 MGD1804     0.0000 
     21 C5          5.7640  -14.2390   22.4040 C.2       1 MGD1804     0.0000 
     22 C6          4.8380  -13.1210   22.1610 C.2       1 MGD1804     0.0000 
     23 O6          4.2300  -13.0770   21.0830 O.2       1 MGD1804     0.0000 
     24 N1          4.6580  -12.2480   23.1450 N.am      1 MGD1804     0.0000 
     25 C2          5.3250  -12.3010   24.3190 C.2       1 MGD1804     0.0000 
     26 N2          5.0760  -11.3440   25.1640 N.pl3     1 MGD1804     0.0000 
     27 N3          6.1550  -13.2950   24.6540 N.2       1 MGD1804     0.0000 
     28 C4          6.4270  -14.1610   23.6590 C.2       1 MGD1804     0.0000 
     29 C10        16.2060  -14.3100   26.6880 C.3       1 MGD1804     0.0000 
     30 C11        17.3890  -13.6490   27.3920 C.3       1 MGD1804     0.0000 
     31 O11        18.0590  -14.6520   28.1450 O.3       1 MGD1804     0.0000 
     32 C12        18.4150  -13.0580   26.4550 C.2       1 MGD1804     0.0000 
     33 S12        17.9270  -11.9360   25.2250 S.3       1 MGD1804     0.0000 
     34 C13        19.7780  -13.3160   26.5660 C.2       1 MGD1804     0.0000 
     35 S13        20.9090  -12.4160   25.5750 S.3       1 MGD1804     0.0000 
     36 C14        20.3800  -14.2210   27.6470 C.3       1 MGD1804     0.0000 
     37 N15        20.6600  -15.5160   27.0420 N.pl3     1 MGD1804     0.0000 
     38 C16        20.4840  -16.6330   27.8660 C.2       1 MGD1804     0.0000 
     39 C17        20.8730  -17.9590   27.4690 C.2       1 MGD1804     0.0000 
     40 O17        21.2980  -18.0910   26.3010 O.2       1 MGD1804     0.0000 
     41 N18        20.6240  -19.0150   28.3160 N.am      1 MGD1804     0.0000 
     42 C19        20.1060  -18.7880   29.5740 C.2       1 MGD1804     0.0000 
     43 N19        19.8690  -19.8280   30.3160 N.pl3     1 MGD1804     0.0000 
     44 N20        19.7560  -17.5640   29.9880 N.2       1 MGD1804     0.0000 
     45 C21        19.9700  -16.4740   29.2120 C.2       1 MGD1804     0.0000 
     46 N22        19.6020  -15.2570   29.7060 N.pl3     1 MGD1804     0.0000 
     47 C23        19.2790  -14.2360   28.7280 C.3       1 MGD1804     0.0000 
     48 H          11.2648  -18.1401   26.2031 H         1 MGD1804     0.0000 
     49 H          10.6779  -18.2000   24.5322 H         1 MGD1804     0.0000 
     50 H          10.0465  -16.0313   26.4999 H         1 MGD1804     0.0000 
     51 H           8.9220  -18.5527   25.7871 H         1 MGD1804     0.0000 
     52 H           7.2464  -17.6894   24.5306 H         1 MGD1804     0.0000 
     53 H           7.8472  -15.0491   25.6829 H         1 MGD1804     0.0000 
     54 H           7.6473  -16.7514   22.2522 H         1 MGD1804     0.0000 
     55 H           3.9505  -11.4581   23.0111 H         1 MGD1804     0.0000 
     56 H           4.3909  -10.6733   24.8798 H         1 MGD1804     0.0000 
     57 H           5.5925  -11.3673   26.0199 H         1 MGD1804     0.0000 
     58 H          15.8031  -13.6313   25.9789 H         1 MGD1804     0.0000 
     59 H          16.5280  -15.2242   26.2565 H         1 MGD1804     0.0000 
     60 H          17.0205  -12.8780   28.0448 H         1 MGD1804     0.0000 
     61 H          21.2342  -13.7368   28.0299 H         1 MGD1804     0.0000 
     62 H          20.9562  -15.5733   26.1003 H         1 MGD1804     0.0000 
     63 H          20.8254  -19.9816   28.0096 H         1 MGD1804     0.0000 
     64 H          20.0985  -20.7154   29.9161 H         1 MGD1804     0.0000 
     65 H          19.4790  -19.6450   31.2185 H         1 MGD1804     0.0000 
     66 H          19.5453  -15.0397   30.6784 H         1 MGD1804     0.0000 
     67 H          19.2153  -13.2874   29.1716 H         1 MGD1804     0.0000 
     68 H           9.0316  -16.6420   27.7976 H         1 MGD1804     0.0000 
     69 H           6.1184  -17.6879   26.6930 H         1 MGD1804     0.0000 
@<TRIPOS>BOND
     1    2    1 ar   
     2    3    1 ar   
     3    4    1 1    
     4    9    1 1    
     5    6    4 1    
     6    6    5 1    
     7   29    5 1    
     8    7    6 ar   
     9    8    6 ar   
    10   10    9 1    
    11   11   10 1    
    12   48   10 1    
    13   49   10 1    
    14   12   11 1    
    15   13   11 1    
    16   50   11 1    
    17   17   12 1    
    18   14   13 1    
    19   15   13 1    
    20   51   13 1    
    21   68   14 1    
    22   16   15 1    
    23   17   15 1    
    24   52   15 1    
    25   69   16 1    
    26   18   17 1    
    27   53   17 1    
    28   19   18 1    
    29   28   18 1    
    30   20   19 2    
    31   54   19 1    
    32   21   20 1    
    33   22   21 1    
    34   28   21 2    
    35   23   22 2    
    36   24   22 am   
    37   25   24 1    
    38   55   24 1    
    39   26   25 1    
    40   27   25 2    
    41   56   26 1    
    42   57   26 1    
    43   28   27 1    
    44   30   29 1    
    45   58   29 1    
    46   59   29 1    
    47   31   30 1    
    48   32   30 1    
    49   60   30 1    
    50   47   31 1    
    51   33   32 1    
    52   34   32 2    
    53   35   34 1    
    54   36   34 1    
    55   37   36 1    
    56   47   36 1    
    57   61   36 1    
    58   38   37 1    
    59   62   37 1    
    60   39   38 1    
    61   45   38 2    
    62   40   39 2    
    63   41   39 am   
    64   42   41 1    
    65   63   41 1    
    66   43   42 1    
    67   44   42 2    
    68   64   43 1    
    69   65   43 1    
    70   45   44 1    
    71   46   45 1    
    72   47   46 1    
    73   66   46 1    
    74   67   47 1    
@<TRIPOS>SUBSTRUCTURE
     1 MGD1804     1 GROUP   
@<TRIPOS>SET

