#    Name: 2fde_385_1_INTS_M
#    Modification time : Tue Mar 25 12:27:52 2014

@<TRIPOS>MOLECULE
2fde_385_1_INTS_M
   98     0     9     0     0
SMALL
NO_CHARGES


@<TRIPOS>ATOM
      1 CA        -18.5000   38.5985    7.8405 C.3       3 GLC5        0.0000 
      2 CA        -20.1510   39.6720    7.1090 C.3       9 GLL5        0.0000 
      3 CA        -16.8490   37.5250    8.5720 C.3       6 GLP5        0.0000 
      4 N         -20.2860   37.2970    8.2085 N.am      2 SEC2        0.0000 
      5 N         -21.0110   38.6200    7.5850 N.am      8 SEL2        0.0000 
      6 N         -19.5610   35.9740    8.8320 N.am      5 SEP2        0.0000 
      7 N         -18.3470   37.6580    6.7680 N.am      2 SEC2        0.0000 
      8 N         -18.8470   39.1580    6.7230 N.am      8 SEL2        0.0000 
      9 N         -17.8470   36.1580    6.8130 N.am      5 SEP2        0.0000 
     10 CA        -21.6200   37.5120    8.4645 C.3       3 GLC5        0.0000 
     11 CA        -21.9740   38.2550    6.5500 C.3       9 GLL5        0.0000 
     12 CA        -21.2660   36.7690   10.3790 C.3       6 GLP5        0.0000 
     13 CA        -23.6005   37.4755    7.1175 C.3       3 GLC5        0.0000 
     14 CA        -25.2270   36.6960    7.6850 C.3       6 GLP5        0.0000 
     15 CA        -18.6380   37.3760    5.1010 C.3       3 GLC5        0.0000 
     16 CA        -18.5140   39.5930    5.3800 C.3       9 GLL5        0.0000 
     17 CA        -18.7620   35.1590    4.8220 C.3       6 GLP5        0.0000 
     18 CA        -17.6815   38.5590    6.9760 C.3       3 GLC5        0.0000 
     19 O         -19.4010   37.2295    2.2465 O.2       1 ALC1        0.0000 
     20 O         -20.8440   38.0530    1.9970 O.2       7 ALL1        0.0000 
     21 O         -17.9580   36.4060    2.4960 O.2       4 ALP1        0.0000 
     22 CA        -21.6435   34.2325   -1.6350 C.3       3 GLC5        0.0000 
     23 CA        -21.5830   36.4570   -1.4360 C.3       9 GLL5        0.0000 
     24 CA        -21.7040   32.0080   -1.8340 C.3       6 GLP5        0.0000 
     25 CA        -20.7235   35.7510   -3.2280 C.3       3 GLC5        0.0000 
     26 CA        -19.8640   35.0450   -5.0200 C.3       6 GLP5        0.0000 
     27 N         -19.8645   34.7040    0.9565 N.am      2 SEC2        0.0000 
     28 N         -20.0300   35.7900    0.2220 N.am      8 SEL2        0.0000 
     29 N         -19.6990   33.6180    1.6910 N.am      5 SEP2        0.0000 
     30 O         -19.3745   35.8505   -0.9815 O.2       1 ALC1        0.0000 
     31 O         -20.0300   35.7900    0.2220 O.2       7 ALL1        0.0000 
     32 O         -18.7190   35.9110   -2.1850 O.2       4 ALP1        0.0000 
     33 CA        -16.2330   38.6330    1.1835 C.3       3 GLC5        0.0000 
     34 CA        -17.8790   39.9290    1.4110 C.3       9 GLL5        0.0000 
     35 CA        -14.5870   37.3370    0.9560 C.3       6 GLP5        0.0000 
     36 CA        -16.1665   40.6140    0.2250 C.3       3 GLC5        0.0000 
     37 CA        -14.4540   41.2990   -0.9610 C.3       6 GLP5        0.0000 
     38 CA        -19.7935   39.0630   -4.1705 C.3       3 GLC5        0.0000 
     39 CA        -21.6760   38.2120   -5.0320 C.3       9 GLL5        0.0000 
     40 CA        -17.9110   39.9140   -3.3090 C.3       6 GLP5        0.0000 
     41 CA        -28.2020   37.3860   -0.5475 C.3       3 GLC5        0.0000 
     42 CA        -26.4150   36.2240   -1.0620 C.3       9 GLL5        0.0000 
     43 CA        -29.9890   38.5480   -0.0330 C.3       6 GLP5        0.0000 
     44 CA        -28.1715   35.1495   -0.9200 C.3       3 GLC5        0.0000 
     45 CA        -29.9280   34.0750   -0.7780 C.3       6 GLP5        0.0000 
     46 CA        -25.5030   38.6030    1.8140 C.3       3 GLC5        0.0000 
     47 CA        -24.6880   37.3260    0.5160 C.3       9 GLL5        0.0000 
     48 CA        -26.3180   39.8800    3.1120 C.3       6 GLP5        0.0000 
     49 CA        -18.0010   44.5095    1.9225 C.3       3 GLC5        0.0000 
     50 CA        -17.7520   43.7330    3.9560 C.3       9 GLL5        0.0000 
     51 CA        -18.2500   45.2860   -0.1110 C.3       6 GLP5        0.0000 
     52 CA        -22.0225   35.8465   -5.9755 C.3       3 GLC5        0.0000 
     53 CA        -22.9680   37.5820   -7.0180 C.3       9 GLL5        0.0000 
     54 CA        -21.0770   34.1110   -4.9330 C.3       6 GLP5        0.0000 
     55 CA        -24.2860   35.0990   -8.5580 C.3       3 GLC5        0.0000 
     56 CA        -24.7000   37.0640   -8.3470 C.3       9 GLL5        0.0000 
     57 CA        -23.8720   33.1340   -8.7690 C.3       6 GLP5        0.0000 
     58 CA        -22.9625   36.9020   -9.4470 C.3       3 GLC5        0.0000 
     59 CA        -21.2250   36.7400  -10.5470 C.3       6 GLP5        0.0000 
     60 CA        -17.9100   46.9850    2.0940 C.3       3 GLC5        0.0000 
     61 CA        -18.6310   47.6820    3.9590 C.3       9 GLL5        0.0000 
     62 CA        -17.1890   46.2880    0.2290 C.3       6 GLP5        0.0000 
     63 CA        -19.4150   48.6315    6.4140 C.3       3 GLC5        0.0000 
     64 CA        -17.7910   47.9560    6.7010 C.3       9 GLL5        0.0000 
     65 CA        -21.0390   49.3070    6.1270 C.3       6 GLP5        0.0000 
     66 CA        -23.7548   39.1193    5.1950 C.3       3 GLC5        0.0000 
     67 CA        -21.7770   39.1960    5.3520 C.3       9 GLL5        0.0000 
     68 CA        -25.6340   39.5130    4.4390 C.3       6 GLP5        0.0000 
     69 CA        -23.1706   39.8470    6.8135 C.3       3 GLC5        0.0000 
     70 CA        -24.7140   40.6950    7.5440 C.3       6 GLP5        0.0000 
     71 CA        -21.2617   42.5307    1.5017 C.3       3 GLC5        0.0000 
     72 CA        -19.7960   41.2140    0.5080 C.3       9 GLL5        0.0000 
     73 CA        -22.9620   43.2600    2.1720 C.3       6 GLP5        0.0000 
     74 CA        -20.9117   42.8937   -0.3128 C.3       3 GLC5        0.0000 
     75 CA        -19.3270   42.3890    1.1550 C.3       9 GLL5        0.0000 
     76 CA        -22.2620   43.9860   -1.4570 C.3       6 GLP5        0.0000 
     77 CA        -18.7396   40.1020   -1.4529 C.3       3 GLC5        0.0000 
     78 CA        -16.1155   42.4655    1.3350 C.3       3 GLC5        0.0000 
     79 CA        -17.3960   41.1190    2.0700 C.3       9 GLL5        0.0000 
     80 CA        -14.4680   43.2010    0.6640 C.3       6 GLP5        0.0000 
     81 CA        -18.5479   43.6786    0.6379 C.3       3 GLC5        0.0000 
     82 CA        -18.1300   42.3410    1.9420 C.3       9 GLL5        0.0000 
     83 CA        -21.7620   40.2662   -4.7230 C.3       3 GLC5        0.0000 
     84 CA        -21.2500   42.3030   -4.7950 C.3       6 GLP5        0.0000 
     85 CA        -20.5530   39.1620   -6.9962 C.3       3 GLC5        0.0000 
     86 CA        -19.4060   40.2740   -8.2700 C.3       6 GLP5        0.0000 
     87 CA        -25.4440   36.1706    1.5881 C.3       3 GLC5        0.0000 
     88 CA        -24.9530   36.2370   -0.5690 C.3       9 GLL5        0.0000 
     89 CA        -25.7020   35.5630    3.3260 C.3       6 GLP5        0.0000 
     90 CA        -20.9315   36.5519   -5.2760 C.3       3 GLC5        0.0000 
     91 CA        -21.7855   37.2375   -8.6313 C.3       3 GLC5        0.0000 
     92 CA        -21.7240   37.8880   -6.4130 C.3       9 GLL5        0.0000 
     93 CA        -22.5685   39.7120   -7.3193 C.3       3 GLC5        0.0000 
     94 CA        -22.7910   41.6890   -7.9230 C.3       6 GLP5        0.0000 
     95 CA        -20.2848   45.4165    4.5515 C.3       3 GLC5        0.0000 
     96 CA        -18.5050   46.0920    3.2790 C.3       9 GLL5        0.0000 
     97 CA        -22.3180   45.1720    5.3470 C.3       6 GLP5        0.0000 
     98 CA        -17.7203   45.9745    1.9925 C.3       3 GLC5        0.0000 
@<TRIPOS>BOND
@<TRIPOS>SUBSTRUCTURE
     1 ALC1       19 GROUP        1 X    ALC  0     ROOT ALC X 1
     2 SEC2        4 GROUP        1 X    SEC  0     **** SEC X 2
     3 GLC5        1 GROUP        1 X    GLC  0     **** GLC X 6
     4 ALP1       21 GROUP        1 Y    ALP  0     ROOT ALP Y 8
     5 SEP2        6 GROUP        1 Y    SEP  0     **** SEP Y 9
     6 GLP5        3 GROUP        1 Y    GLP  0     **** GLP Y 13
     7 ALL1       20 GROUP        1 Z    ALL  0     ROOT ALL Z 15
     8 SEL2        5 GROUP        1 Z    SEL  0     **** SEL Z 16
     9 GLL5        2 GROUP        1 Z    GLL  0     **** GLL Z 20
@<TRIPOS>SET

