#    Name: 2fde_385_1_ligand
#    Modification time : Tue Mar 25 12:27:52 2014

@<TRIPOS>MOLECULE
2fde_385_1_ligand
   89    94     1     0     0
SMALL
NO_CHARGES


@<TRIPOS>ATOM
      1 C1        -20.7840   40.2900    5.8800 C.3       1 385101      0.0000 
      2 C2        -20.1510   39.6720    7.1090 C.3       1 385101      0.0000 
      3 C3        -21.7770   39.1960    5.3520 C.3       1 385101      0.0000 
      4 C4        -19.5520   40.7060    5.0210 C.3       1 385101      0.0000 
      5 O5        -21.0110   38.6200    7.5850 O.3       1 385101      0.0000 
      6 O6        -18.8470   39.1580    6.7230 O.3       1 385101      0.0000 
      7 C7        -21.9740   38.2550    6.5500 C.3       1 385101      0.0000 
      8 O8        -21.2950   38.4640    4.2510 O.3       1 385101      0.0000 
      9 C9        -18.5140   39.5930    5.3800 C.3       1 385101      0.0000 
     10 C10       -21.6070   38.6590    2.9340 C.2       1 385101      0.0000 
     11 N11       -20.8440   38.0530    1.9970 N.am      1 385101      0.0000 
     12 O12       -22.5510   39.3590    2.6200 O.2       1 385101      0.0000 
     13 C13       -20.8970   38.0380    0.5340 C.3       1 385101      0.0000 
     14 C14       -19.6030   38.7570   -0.0320 C.3       1 385101      0.0000 
     15 C15       -21.1750   36.5690    0.0260 C.3       1 385101      0.0000 
     16 C16       -19.0780   39.9750    0.6290 C.ar      1 385101      0.0000 
     17 C17       -21.5830   36.4570   -1.4360 C.3       1 385101      0.0000 
     18 O18       -20.0300   35.7900    0.2220 O.3       1 385101      0.0000 
     19 C19       -17.8790   39.9290    1.4110 C.ar      1 385101      0.0000 
     20 C20       -19.7960   41.2140    0.5080 C.ar      1 385101      0.0000 
     21 N21       -22.8240   37.1370   -1.6670 N.pl3     1 385101      0.0000 
     22 C22       -17.3960   41.1190    2.0700 C.ar      1 385101      0.0000 
     23 C23       -19.3270   42.3890    1.1550 C.ar      1 385101      0.0000 
     24 S24       -22.8180   38.6260   -2.6040 S.o2      1 385101      0.0000 
     25 C25       -23.9850   36.2690   -1.7690 C.3       1 385101      0.0000 
     26 C26       -18.1300   42.3410    1.9420 C.ar      1 385101      0.0000 
     27 C27       -22.8720   38.2470   -4.2700 C.ar      1 385101      0.0000 
     28 O28       -21.6600   39.4290   -2.3310 O.2       1 385101      0.0000 
     29 O29       -23.9400   39.4760   -2.2830 O.2       1 385101      0.0000 
     30 C30       -24.9530   36.2370   -0.5690 C.3       1 385101      0.0000 
     31 O31       -17.6930   43.4480    2.5720 O.3       1 385101      0.0000 
     32 C32       -24.1070   37.9510   -4.8760 C.ar      1 385101      0.0000 
     33 C33       -21.6760   38.2120   -5.0320 C.ar      1 385101      0.0000 
     34 C34       -26.4150   36.2240   -1.0620 C.3       1 385101      0.0000 
     35 C35       -24.6880   37.3260    0.5160 C.3       1 385101      0.0000 
     36 C36       -17.7520   43.7330    3.9560 C.3       1 385101      0.0000 
     37 C37       -24.1620   37.6280   -6.2420 C.ar      1 385101      0.0000 
     38 C38       -21.7240   37.8880   -6.4130 C.ar      1 385101      0.0000 
     39 C39       -17.9980   45.2300    4.2330 C.2       1 385101      0.0000 
     40 C40       -22.9680   37.5820   -7.0180 C.ar      1 385101      0.0000 
     41 O41       -25.2150   37.3120   -7.0200 O.3       1 385101      0.0000 
     42 N42       -17.7320   45.8070    5.4370 N.2       1 385101      0.0000 
     43 C43       -18.5050   46.0920    3.2790 C.2       1 385101      0.0000 
     44 O44       -23.2720   37.2520   -8.2990 O.3       1 385101      0.0000 
     45 C45       -24.7000   37.0640   -8.3470 C.3       1 385101      0.0000 
     46 C46       -18.0010   47.0830    5.4780 C.2       1 385101      0.0000 
     47 S47       -18.6310   47.6820    3.9590 S.3       1 385101      0.0000 
     48 C48       -17.7910   47.9560    6.7010 C.3       1 385101      0.0000 
     49 H         -21.3165   41.1494    6.1986 H         1 385101      0.0000 
     50 H         -20.0445   40.4473    7.8459 H         1 385101      0.0000 
     51 H         -22.7169   39.6813    5.1781 H         1 385101      0.0000 
     52 H         -19.1939   41.6337    5.3457 H         1 385101      0.0000 
     53 H         -19.7936   40.6420    4.0052 H         1 385101      0.0000 
     54 H         -21.8193   37.2358    6.2097 H         1 385101      0.0000 
     55 H         -22.9941   38.3660    6.9043 H         1 385101      0.0000 
     56 H         -17.5355   40.0332    5.3274 H         1 385101      0.0000 
     57 H         -18.6229   38.8037    4.6595 H         1 385101      0.0000 
     58 H         -19.9976   37.4338    2.3772 H         1 385101      0.0000 
     59 H         -21.7610   38.6550    0.2176 H         1 385101      0.0000 
     60 H         -19.8150   38.9698   -1.1221 H         1 385101      0.0000 
     61 H         -18.7984   37.9638   -0.0758 H         1 385101      0.0000 
     62 H         -22.0020   36.1814    0.6371 H         1 385101      0.0000 
     63 H         -21.6575   35.3887   -1.6852 H         1 385101      0.0000 
     64 H         -20.7727   36.8808   -2.0465 H         1 385101      0.0000 
     65 H         -17.3644   39.0605    1.5050 H         1 385101      0.0000 
     66 H         -20.6499   41.2430   -0.0493 H         1 385101      0.0000 
     67 H         -16.5479   41.0840    2.6148 H         1 385101      0.0000 
     68 H         -19.8347   43.2632    1.0634 H         1 385101      0.0000 
     69 H         -23.6652   35.2078   -1.9603 H         1 385101      0.0000 
     70 H         -24.5954   36.5359   -2.6751 H         1 385101      0.0000 
     71 H         -24.7944   35.2429   -0.0654 H         1 385101      0.0000 
     72 H         -24.9662   37.9714   -4.3196 H         1 385101      0.0000 
     73 H         -20.7827   38.4193   -4.5884 H         1 385101      0.0000 
     74 H         -16.8145   43.4587    4.4767 H         1 385101      0.0000 
     75 H         -18.5634   43.1743    4.4607 H         1 385101      0.0000 
     76 H         -20.8699   37.8759   -6.9640 H         1 385101      0.0000 
     77 H         -18.7767   46.0304    2.4187 H         1 385101      0.0000 
     78 H         -25.1516   37.7565   -9.0636 H         1 385101      0.0000 
     79 H         -24.9397   36.0438   -8.6613 H         1 385101      0.0000 
     80 H         -26.6299   37.0334   -1.6085 H         1 385101      0.0000 
     81 H         -26.6075   35.4256   -1.6325 H         1 385101      0.0000 
     82 H         -27.0634   36.2036   -0.3010 H         1 385101      0.0000 
     83 H         -23.7721   37.2437    0.9089 H         1 385101      0.0000 
     84 H         -24.7642   38.2500    0.1412 H         1 385101      0.0000 
     85 H         -25.3384   37.2622    1.2729 H         1 385101      0.0000 
     86 H         -16.8334   47.9677    6.9890 H         1 385101      0.0000 
     87 H         -18.0573   48.9046    6.5303 H         1 385101      0.0000 
     88 H         -18.3280   47.6368    7.4818 H         1 385101      0.0000 
     89 H         -19.5523   35.8067   -0.6563 H         1 385101      0.0000 
@<TRIPOS>BOND
     1    2    1 1    
     2    3    1 1    
     3    4    1 1    
     4   49    1 1    
     5    5    2 1    
     6    6    2 1    
     7   50    2 1    
     8    7    3 1    
     9    8    3 1    
    10   51    3 1    
    11    9    4 1    
    12   52    4 1    
    13   53    4 1    
    14    7    5 1    
    15    9    6 1    
    16   54    7 1    
    17   55    7 1    
    18   10    8 1    
    19   56    9 1    
    20   57    9 1    
    21   11   10 am   
    22   12   10 2    
    23   13   11 1    
    24   58   11 1    
    25   14   13 1    
    26   15   13 1    
    27   59   13 1    
    28   16   14 1    
    29   60   14 1    
    30   61   14 1    
    31   17   15 1    
    32   18   15 1    
    33   62   15 1    
    34   19   16 ar   
    35   20   16 ar   
    36   21   17 1    
    37   63   17 1    
    38   64   17 1    
    39   89   18 1    
    40   22   19 ar   
    41   65   19 1    
    42   23   20 ar   
    43   66   20 1    
    44   24   21 1    
    45   25   21 1    
    46   26   22 ar   
    47   67   22 1    
    48   26   23 ar   
    49   68   23 1    
    50   27   24 1    
    51   28   24 2    
    52   29   24 2    
    53   30   25 1    
    54   69   25 1    
    55   70   25 1    
    56   31   26 1    
    57   32   27 ar   
    58   33   27 ar   
    59   34   30 1    
    60   35   30 1    
    61   71   30 1    
    62   36   31 1    
    63   37   32 ar   
    64   72   32 1    
    65   38   33 ar   
    66   73   33 1    
    67   80   34 1    
    68   81   34 1    
    69   82   34 1    
    70   83   35 1    
    71   84   35 1    
    72   85   35 1    
    73   39   36 1    
    74   74   36 1    
    75   75   36 1    
    76   40   37 ar   
    77   41   37 1    
    78   40   38 ar   
    79   76   38 1    
    80   42   39 1    
    81   43   39 2    
    82   44   40 1    
    83   45   41 1    
    84   46   42 2    
    85   47   43 1    
    86   77   43 1    
    87   45   44 1    
    88   78   45 1    
    89   79   45 1    
    90   47   46 1    
    91   48   46 1    
    92   86   48 1    
    93   87   48 1    
    94   88   48 1    
@<TRIPOS>SUBSTRUCTURE
     1 385101      1 GROUP   
@<TRIPOS>SET

