#    Name: 1lqa_NDP_2_INTS_M
#    Modification time : Tue Mar 25 11:14:48 2014

@<TRIPOS>MOLECULE
1lqa_NDP_2_INTS_M
  121     0    12     0     0
SMALL
NO_CHARGES


@<TRIPOS>ATOM
      1 N          23.9060   40.4145   26.5525 N.am      2 SEC2        0.0000 
      2 N          24.0150   41.9670   25.9460 N.am     10 SEL2        0.0000 
      3 N          23.7970   38.8620   27.1590 N.am      6 SEP2        0.0000 
      4 N          22.7635   39.9260   26.7695 N.am      2 SEC2        0.0000 
      5 N          21.7300   40.9900   26.3800 N.am     10 SEL2        0.0000 
      6 N          20.7040   40.9285   27.3200 N.am      2 SEC2        0.0000 
      7 N          19.6780   40.8670   28.2600 N.am      6 SEP2        0.0000 
      8 CA         23.9095   45.2515   24.9975 C.3       4 GLC5        0.0000 
      9 CA         22.8750   44.6610   26.6240 C.3      12 GLL5        0.0000 
     10 CA         24.9440   45.8420   23.3710 C.3       8 GLP5        0.0000 
     11 CA         22.2390   44.3005   29.3955 C.3       4 GLC5        0.0000 
     12 CA         22.5180   45.6880   27.7070 C.3      12 GLL5        0.0000 
     13 CA         21.9600   42.9130   31.0840 C.3       8 GLP5        0.0000 
     14 N          21.0250   47.1525   26.0680 N.am      2 SEC2        0.0000 
     15 N          22.3820   47.8230   26.5800 N.am     10 SEL2        0.0000 
     16 N          19.6680   46.4820   25.5560 N.am      6 SEP2        0.0000 
     17 CA         22.8260   44.6505   30.3685 C.3       4 GLC5        0.0000 
     18 CA         23.6920   46.3880   29.6530 C.3      12 GLL5        0.0000 
     19 CA         23.3860   46.4135   31.8740 C.3       4 GLC5        0.0000 
     20 CA         23.0800   46.4390   34.0950 C.3       8 GLP5        0.0000 
     21 N          28.0420   45.1815   27.9575 N.am      2 SEC2        0.0000 
     22 N          27.1900   45.5240   29.0400 N.am     10 SEL2        0.0000 
     23 N          28.8940   44.8390   26.8750 N.am      6 SEP2        0.0000 
     24 CA         28.7465   43.5580   31.4745 C.3       4 GLC5        0.0000 
     25 CA         28.2350   45.6080   31.3150 C.3      12 GLL5        0.0000 
     26 CA         29.2580   41.5080   31.6340 C.3       8 GLP5        0.0000 
     27 O          29.8265   44.4915   29.7015 O.2       1 ALC1        0.0000 
     28 O          29.4230   45.0610   31.0040 O.2       9 ALL1        0.0000 
     29 O          30.2300   43.9220   28.3990 O.2       5 ALP1        0.0000 
     30 CA         26.2200   44.5550   32.9715 C.3       4 GLC5        0.0000 
     31 CA         26.6740   46.2640   32.9850 C.3      12 GLL5        0.0000 
     32 CA         25.7660   42.8460   32.9580 C.3       8 GLP5        0.0000 
     33 CA         24.8770   46.3515   33.5400 C.3       4 GLC5        0.0000 
     34 CA         27.3655   47.7035   31.6570 C.3       4 GLC5        0.0000 
     35 CA         28.0570   49.1430   30.3290 C.3       8 GLP5        0.0000 
     36 N          24.5275   47.1115   32.8005 N.am      2 SEC2        0.0000 
     37 N          25.6040   46.3830   32.1180 N.am     10 SEL2        0.0000 
     38 N          23.4510   47.8400   33.4830 N.am      6 SEP2        0.0000 
     39 CA         24.5030   46.2745   32.4490 C.3       4 GLC5        0.0000 
     40 CA         25.9260   46.1100   30.8030 C.3      12 GLL5        0.0000 
     41 NZ         20.3875   45.6585   24.7460 N.4       3 LYC4        0.0000 
     42 NZ         21.1070   44.8350   23.9360 N.4      11 LYL4        0.0000 
     43 NZ         18.6030   46.0320   26.2310 N.4       7 LYP4        0.0000 
     44 N          20.3875   45.6585   24.7460 N.am      2 SEC2        0.0000 
     45 N          21.1070   44.8350   23.9360 N.am     10 SEL2        0.0000 
     46 NZ         18.8970   43.7715   25.1210 N.4       3 LYC4        0.0000 
     47 NZ         19.6580   42.7470   24.2390 N.4      11 LYL4        0.0000 
     48 N          19.2420   41.5085   23.8975 N.am      2 SEC2        0.0000 
     49 N          19.6580   42.7470   24.2390 N.am     10 SEL2        0.0000 
     50 N          18.8260   40.2700   23.5560 N.am      6 SEP2        0.0000 
     51 N          18.8970   43.7715   25.1210 N.am      2 SEC2        0.0000 
     52 N          18.1360   44.7960   26.0030 N.am      6 SEP2        0.0000 
     53 CA         23.6435   44.5520   22.4905 C.3       4 GLC5        0.0000 
     54 CA         22.3430   43.2620   21.6100 C.3      12 GLL5        0.0000 
     55 CA         23.4945   42.3080   19.1675 C.3       4 GLC5        0.0000 
     56 CA         22.0840   43.4870   20.1160 C.3      12 GLL5        0.0000 
     57 CA         24.9050   41.1290   18.2190 C.3       8 GLP5        0.0000 
     58 CA         19.8380   45.7995   20.3040 C.3       4 GLC5        0.0000 
     59 CA         21.0530   44.5570   19.7690 C.3      12 GLL5        0.0000 
     60 CA         18.6230   47.0420   20.8390 C.3       8 GLP5        0.0000 
     61 N          21.1130   47.3010   19.4210 N.am      2 SEC2        0.0000 
     62 N          21.6070   45.8520   19.7510 N.am     10 SEL2        0.0000 
     63 N          20.6190   48.7500   19.0910 N.am      6 SEP2        0.0000 
     64 CA         19.0780   44.8410   19.5860 C.3       4 GLC5        0.0000 
     65 CA         20.5850   44.1220   18.3980 C.3      12 GLL5        0.0000 
     66 CA         17.5710   45.5600   20.7740 C.3       8 GLP5        0.0000 
     67 CA         19.4855   45.3465   17.1895 C.3       4 GLC5        0.0000 
     68 CA         18.3860   46.5710   15.9810 C.3       8 GLP5        0.0000 
     69 O          21.4250   44.0395   16.1805 O.2       1 ALC1        0.0000 
     70 O          21.5700   44.5010   17.4230 O.2       9 ALL1        0.0000 
     71 O          21.2800   43.5780   14.9380 O.2       5 ALP1        0.0000 
     72 CA         20.7250   40.7625   19.0475 C.3       4 GLC5        0.0000 
     73 CA         20.6000   42.6230   18.5730 C.3      12 GLL5        0.0000 
     74 CA         20.8500   38.9020   19.5220 C.3       8 GLP5        0.0000 
     75 CA         22.0465   41.6130   17.4020 C.3       4 GLC5        0.0000 
     76 CA         23.4930   40.6030   16.2310 C.3       8 GLP5        0.0000 
     77 N          14.8170   41.3055   16.2335 N.am      2 SEC2        0.0000 
     78 N          15.2170   40.1040   17.3590 N.am     10 SEL2        0.0000 
     79 N          14.4170   42.5070   15.1080 N.am      6 SEP2        0.0000 
     80 N          14.5910   38.9515   16.6760 N.am      2 SEC2        0.0000 
     81 N          13.9650   37.7990   15.9930 N.am      6 SEP2        0.0000 
     82 O          16.8550   38.9040   15.0575 O.2       1 ALC1        0.0000 
     83 O          17.0990   39.9260   15.9930 O.2       9 ALL1        0.0000 
     84 O          16.6110   37.8820   14.1220 O.2       5 ALP1        0.0000 
     85 O          18.5805   40.1805   15.7990 O.2       1 ALC1        0.0000 
     86 O          20.0620   40.4350   15.6050 O.2       5 ALP1        0.0000 
     87 N          19.7470   50.9090   29.5060 N.am      2 SEC2        0.0000 
     88 N          20.4590   49.7200   29.9830 N.am     10 SEL2        0.0000 
     89 N          19.0350   52.0980   29.0290 N.am      6 SEP2        0.0000 
     90 N          19.3385   49.6185   30.7890 N.am      2 SEC2        0.0000 
     91 N          18.2180   49.5170   31.5950 N.am      6 SEP2        0.0000 
     92 NZ         22.5370   48.0380   32.5650 N.4       3 LYC4        0.0000 
     93 NZ         21.6230   48.2360   31.6470 N.4      11 LYL4        0.0000 
     94 NZ         23.4510   47.8400   33.4830 N.4       7 LYP4        0.0000 
     95 N          22.5370   48.0380   32.5650 N.am      2 SEC2        0.0000 
     96 N          21.6230   48.2360   31.6470 N.am     10 SEL2        0.0000 
     97 NZ         23.2025   48.9310   32.0040 N.4       3 LYC4        0.0000 
     98 NZ         22.9540   50.0220   30.5250 N.4      11 LYL4        0.0000 
     99 N          23.4205   51.0245   29.7555 N.am      2 SEC2        0.0000 
    100 N          22.9540   50.0220   30.5250 N.am     10 SEL2        0.0000 
    101 N          23.8870   52.0270   28.9860 N.am      6 SEP2        0.0000 
    102 N          24.3885   49.8300   30.7985 N.am      2 SEC2        0.0000 
    103 N          25.8230   49.6380   31.0720 N.am      6 SEP2        0.0000 
    104 CA         24.6923   48.0343   26.8220 C.3       4 GLC5        0.0000 
    105 CA         23.3480   47.6290   28.8320 C.3      12 GLL5        0.0000 
    106 CA         26.1190   48.7370   25.5040 C.3       8 GLP5        0.0000 
    107 CA         22.8272   49.3788   27.6650 C.3       4 GLC5        0.0000 
    108 CA         23.1830   47.0340   27.4480 C.3      12 GLL5        0.0000 
    109 CA         22.3890   51.4260   27.1900 C.3       8 GLP5        0.0000 
    110 CA         26.3725   44.0715   29.7003 C.3       4 GLC5        0.0000 
    111 CA         26.1820   42.2260   28.8030 C.3       8 GLP5        0.0000 
    112 CA         26.2939   44.3670   31.8931 C.3       4 GLC5        0.0000 
    113 CA         27.2000   45.7240   30.3920 C.3      12 GLL5        0.0000 
    114 CA         27.4394   47.5155   30.5786 C.3       4 GLC5        0.0000 
    115 CA         22.7709   45.0165   18.6531 C.3       4 GLC5        0.0000 
    116 CA         24.4650   45.9610   18.1360 C.3       8 GLP5        0.0000 
    117 CA         19.3800   40.0747   18.8147 C.3       4 GLC5        0.0000 
    118 CA         18.5330   41.5180   17.9790 C.3      12 GLL5        0.0000 
    119 CA         17.8670   43.7400   20.6060 C.3       4 GLC5        0.0000 
    120 CA         18.7920   42.1790   20.2600 C.3      12 GLL5        0.0000 
    121 CA         19.5065   40.4110   19.9800 C.3       4 GLC5        0.0000 
@<TRIPOS>BOND
@<TRIPOS>SUBSTRUCTURE
     1 ALC1       27 GROUP        1 X    ALC  0     ROOT ALC X 1
     2 SEC2        1 GROUP        1 X    SEC  0     **** SEC X 2
     3 LYC4       41 GROUP        1 X    LYC  0     **** LYC X 4
     4 GLC5        8 GROUP        1 X    GLC  0     **** GLC X 6
     5 ALP1       29 GROUP        1 Y    ALP  0     ROOT ALP Y 8
     6 SEP2        3 GROUP        1 Y    SEP  0     **** SEP Y 9
     7 LYP4       43 GROUP        1 Y    LYP  0     **** LYP Y 11
     8 GLP5       10 GROUP        1 Y    GLP  0     **** GLP Y 13
     9 ALL1       28 GROUP        1 Z    ALL  0     ROOT ALL Z 15
    10 SEL2        2 GROUP        1 Z    SEL  0     **** SEL Z 16
    11 LYL4       42 GROUP        1 Z    LYL  0     **** LYL Z 18
    12 GLL5        9 GROUP        1 Z    GLL  0     **** GLL Z 20
@<TRIPOS>SET

