#    Name: 1lqa_NDP_2_ligand
#    Modification time : Tue Mar 25 11:14:48 2014

@<TRIPOS>MOLECULE
1lqa_NDP_2_ligand
   74    78     1     0     0
SMALL
NO_CHARGES


@<TRIPOS>ATOM
      1 PA         22.5660   42.1510   25.9360 P.3       1 NDP1401     0.0000 
      2 O1A        24.0150   41.9670   25.9460 O.co2     1 NDP1401     0.0000 
      3 O2A        21.7300   40.9900   26.3800 O.co2     1 NDP1401     0.0000 
      4 O5B        22.1950   43.4200   26.8670 O.3       1 NDP1401     0.0000 
      5 C5B        22.8750   44.6610   26.6240 C.3       1 NDP1401     0.0000 
      6 C4B        22.5180   45.6880   27.7070 C.3       1 NDP1401     0.0000 
      7 O4B        23.1020   45.2720   28.9460 O.3       1 NDP1401     0.0000 
      8 C3B        23.1830   47.0340   27.4480 C.3       1 NDP1401     0.0000 
      9 O3B        22.3820   47.8230   26.5800 O.3       1 NDP1401     0.0000 
     10 C2B        23.3480   47.6290   28.8320 C.3       1 NDP1401     0.0000 
     11 O2B        22.0450   48.0720   29.1780 O.3       1 NDP1401     0.0000 
     12 C1B        23.6920   46.3880   29.6530 C.3       1 NDP1401     0.0000 
     13 N9A        25.1340   46.1130   29.6920 N.pl3     1 NDP1401     0.0000 
     14 C8A        25.9440   45.7640   28.6100 C.2       1 NDP1401     0.0000 
     15 N7A        27.1900   45.5240   29.0400 N.2       1 NDP1401     0.0000 
     16 C5A        27.2000   45.7240   30.3920 C.ar      1 NDP1401     0.0000 
     17 C6A        28.2350   45.6080   31.3150 C.ar      1 NDP1401     0.0000 
     18 N6A        29.4230   45.0610   31.0040 N.pl3     1 NDP1401     0.0000 
     19 N1A        27.9410   45.8850   32.6080 N.ar      1 NDP1401     0.0000 
     20 C2A        26.6740   46.2640   32.9850 C.ar      1 NDP1401     0.0000 
     21 N3A        25.6040   46.3830   32.1180 N.ar      1 NDP1401     0.0000 
     22 C4A        25.9260   46.1100   30.8030 C.ar      1 NDP1401     0.0000 
     23 O3         22.1770   42.6410   24.4290 O.3       1 NDP1401     0.0000 
     24 PN         20.9310   43.3790   23.7910 P.3       1 NDP1401     0.0000 
     25 O1N        21.1070   44.8350   23.9360 O.co2     1 NDP1401     0.0000 
     26 O2N        19.6580   42.7470   24.2390 O.co2     1 NDP1401     0.0000 
     27 O5D        21.1400   42.9290   22.2690 O.3       1 NDP1401     0.0000 
     28 C5D        22.3430   43.2620   21.6100 C.3       1 NDP1401     0.0000 
     29 C4D        22.0840   43.4870   20.1160 C.3       1 NDP1401     0.0000 
     30 O4D        21.4880   42.2930   19.5990 O.3       1 NDP1401     0.0000 
     31 C3D        21.0530   44.5570   19.7690 C.3       1 NDP1401     0.0000 
     32 O3D        21.6070   45.8520   19.7510 O.3       1 NDP1401     0.0000 
     33 C2D        20.5850   44.1220   18.3980 C.3       1 NDP1401     0.0000 
     34 O2D        21.5700   44.5010   17.4230 O.3       1 NDP1401     0.0000 
     35 C1D        20.6000   42.6230   18.5730 C.3       1 NDP1401     0.0000 
     36 N1N        19.2620   42.1150   18.9530 N.pl3     1 NDP1401     0.0000 
     37 C2N        18.5330   41.5180   17.9790 C.2       1 NDP1401     0.0000 
     38 C3N        17.2870   40.9770   18.2360 C.2       1 NDP1401     0.0000 
     39 C7N        16.5240   40.3220   17.1190 C.2       1 NDP1401     0.0000 
     40 O7N        15.2170   40.1040   17.3590 O.2       1 NDP1401     0.0000 
     41 N7N        17.0990   39.9260   15.9930 N.am      1 NDP1401     0.0000 
     42 C4N        16.6580   41.0000   19.6060 C.3       1 NDP1401     0.0000 
     43 C5N        17.5340   41.6610   20.6160 C.2       1 NDP1401     0.0000 
     44 C6N        18.7920   42.1790   20.2600 C.2       1 NDP1401     0.0000 
     45 P2B        21.7470   49.1070   30.3830 P.3       1 NDP1401     0.0000 
     46 O1X        20.4590   49.7200   29.9830 O.co2     1 NDP1401     0.0000 
     47 O2X        21.6230   48.2360   31.6470 O.co2     1 NDP1401     0.0000 
     48 O3X        22.9540   50.0220   30.5250 O.co2     1 NDP1401     0.0000 
     49 H          22.5973   45.0909   25.6534 H         1 NDP1401     0.0000 
     50 H          23.9648   44.5334   26.6328 H         1 NDP1401     0.0000 
     51 H          21.4842   45.8115   27.7814 H         1 NDP1401     0.0000 
     52 H          24.1618   46.8307   27.0532 H         1 NDP1401     0.0000 
     53 H          24.0838   48.3070   28.8475 H         1 NDP1401     0.0000 
     54 H          23.2827   46.4727   30.6185 H         1 NDP1401     0.0000 
     55 H          25.6240   45.7122   27.6994 H         1 NDP1401     0.0000 
     56 H          29.5153   44.7098   30.0723 H         1 NDP1401     0.0000 
     57 H          30.1084   45.0541   31.7321 H         1 NDP1401     0.0000 
     58 H          26.5030   46.4807   34.0117 H         1 NDP1401     0.0000 
     59 H          23.0975   42.4664   21.6952 H         1 NDP1401     0.0000 
     60 H          22.7927   44.1839   22.0067 H         1 NDP1401     0.0000 
     61 H          22.9921   43.6923   19.6073 H         1 NDP1401     0.0000 
     62 H          20.2317   44.4410   20.4449 H         1 NDP1401     0.0000 
     63 H          19.6328   44.4536   18.2262 H         1 NDP1401     0.0000 
     64 H          20.8964   42.1721   17.6389 H         1 NDP1401     0.0000 
     65 H          18.9119   41.4591   17.0053 H         1 NDP1401     0.0000 
     66 H          16.4991   39.4895   15.3224 H         1 NDP1401     0.0000 
     67 H          18.0808   40.0994   15.9156 H         1 NDP1401     0.0000 
     68 H          16.4450   39.9669   19.9201 H         1 NDP1401     0.0000 
     69 H          15.6942   41.5285   19.5492 H         1 NDP1401     0.0000 
     70 H          17.1825   41.7201   21.5695 H         1 NDP1401     0.0000 
     71 H          19.3777   42.6176   20.9944 H         1 NDP1401     0.0000 
     72 H          21.8823   48.4448   27.1830 H         1 NDP1401     0.0000 
     73 H          22.2152   45.8622   18.9573 H         1 NDP1401     0.0000 
     74 H          21.2637   44.0807   16.5689 H         1 NDP1401     0.0000 
@<TRIPOS>BOND
     1    2    1 ar   
     2    3    1 ar   
     3    4    1 1    
     4   23    1 1    
     5    5    4 1    
     6    6    5 1    
     7   49    5 1    
     8   50    5 1    
     9    7    6 1    
    10    8    6 1    
    11   51    6 1    
    12   12    7 1    
    13    9    8 1    
    14   10    8 1    
    15   52    8 1    
    16   72    9 1    
    17   11   10 1    
    18   12   10 1    
    19   53   10 1    
    20   45   11 1    
    21   13   12 1    
    22   54   12 1    
    23   14   13 1    
    24   22   13 1    
    25   15   14 2    
    26   55   14 1    
    27   16   15 1    
    28   17   16 ar   
    29   22   16 ar   
    30   18   17 1    
    31   19   17 ar   
    32   56   18 1    
    33   57   18 1    
    34   20   19 ar   
    35   21   20 ar   
    36   58   20 1    
    37   22   21 ar   
    38   24   23 1    
    39   25   24 ar   
    40   26   24 ar   
    41   27   24 1    
    42   28   27 1    
    43   29   28 1    
    44   59   28 1    
    45   60   28 1    
    46   30   29 1    
    47   31   29 1    
    48   61   29 1    
    49   35   30 1    
    50   32   31 1    
    51   33   31 1    
    52   62   31 1    
    53   73   32 1    
    54   34   33 1    
    55   35   33 1    
    56   63   33 1    
    57   74   34 1    
    58   36   35 1    
    59   64   35 1    
    60   37   36 1    
    61   44   36 1    
    62   38   37 2    
    63   65   37 1    
    64   39   38 1    
    65   42   38 1    
    66   40   39 2    
    67   41   39 am   
    68   66   41 1    
    69   67   41 1    
    70   43   42 1    
    71   68   42 1    
    72   69   42 1    
    73   44   43 2    
    74   70   43 1    
    75   71   44 1    
    76   46   45 ar   
    77   47   45 ar   
    78   48   45 ar   
@<TRIPOS>SUBSTRUCTURE
     1 NDP1401     1 GROUP   
@<TRIPOS>SET

