#    Name: 2wey_EV1_1_INTS_M
#    Modification time : Tue Mar 25 04:15:00 2014

@<TRIPOS>MOLECULE
2wey_EV1_1_INTS_M
   42     0     3     0     0
SMALL
NO_CHARGES


@<TRIPOS>ATOM
      1 CA        -10.9245  -28.5755   33.5870 C.3       1 GLC5        0.0000 
      2 CA        -10.8550  -28.8440   35.4010 C.3       3 GLL5        0.0000 
      3 CA        -10.9940  -28.3070   31.7730 C.3       2 GLP5        0.0000 
      4 CA        -11.4525  -30.1575   33.7070 C.3       1 GLC5        0.0000 
      5 CA        -12.0500  -31.4710   32.0130 C.3       2 GLP5        0.0000 
      6 CA        -10.1100  -28.4265   36.9685 C.3       1 GLC5        0.0000 
      7 CA         -9.3650  -28.0090   38.5360 C.3       2 GLP5        0.0000 
      8 CA        -10.5135  -32.2895   39.3870 C.3       1 GLC5        0.0000 
      9 CA         -9.1380  -31.8070   37.8950 C.3       3 GLL5        0.0000 
     10 CA        -11.8890  -32.7720   40.8790 C.3       2 GLP5        0.0000 
     11 CA         -9.2515  -29.9080   38.2155 C.3       1 GLC5        0.0000 
     12 CA         -5.4135  -26.6125   32.8185 C.3       1 GLC5        0.0000 
     13 CA         -4.3500  -28.4280   33.3700 C.3       3 GLL5        0.0000 
     14 CA         -6.4770  -24.7970   32.2670 C.3       2 GLP5        0.0000 
     15 CA         -3.9025  -32.2295   37.1765 C.3       1 GLC5        0.0000 
     16 CA         -3.7490  -30.6510   38.2070 C.3       3 GLL5        0.0000 
     17 CA         -4.0560  -33.8080   36.1460 C.3       2 GLP5        0.0000 
     18 CA         -2.2595  -30.4845   37.0915 C.3       1 GLC5        0.0000 
     19 CA         -0.7700  -30.3180   35.9760 C.3       2 GLP5        0.0000 
     20 CA         -3.6475  -26.1725   40.0595 C.3       1 GLC5        0.0000 
     21 CA         -2.1940  -25.4990   38.9180 C.3       3 GLL5        0.0000 
     22 CA         -5.1010  -26.8460   41.2010 C.3       2 GLP5        0.0000 
     23 CA         -0.7995  -24.1800   39.8665 C.3       1 GLC5        0.0000 
     24 CA          0.5950  -22.8610   40.8150 C.3       2 GLP5        0.0000 
     25 CA         -0.5970  -24.2265   37.9815 C.3       1 GLC5        0.0000 
     26 CA          1.0000  -22.9540   37.0450 C.3       2 GLP5        0.0000 
     27 CA         -0.6225  -26.3515   38.0815 C.3       1 GLC5        0.0000 
     28 CA          0.9490  -27.2040   37.2450 C.3       2 GLP5        0.0000 
     29 CA         -7.9952  -27.2385   34.7627 C.3       1 GLC5        0.0000 
     30 CA         -7.4120  -29.0700   34.1770 C.3       3 GLL5        0.0000 
     31 CA         -8.0610  -25.2530   34.9030 C.3       2 GLP5        0.0000 
     32 CA         -5.4195  -32.5602   35.6720 C.3       1 GLC5        0.0000 
     33 CA         -6.2830  -31.1370   34.7440 C.3       3 GLL5        0.0000 
     34 CA         -3.6218  -30.4545   32.5063 C.3       1 GLC5        0.0000 
     35 CA         -5.2030  -29.6460   33.0510 C.3       3 GLL5        0.0000 
     36 CA         -2.4670  -31.8720   31.8020 C.3       2 GLP5        0.0000 
     37 CA         -1.6690  -26.5033   31.5883 C.3       1 GLC5        0.0000 
     38 CA         -3.2490  -26.5100   32.4930 C.3       3 GLL5        0.0000 
     39 CA         -0.3440  -26.6980   30.0650 C.3       2 GLP5        0.0000 
     40 CA         -4.7355  -25.5527   32.6893 C.3       1 GLC5        0.0000 
     41 CA         -0.8480  -27.0237   36.9630 C.3       1 GLC5        0.0000 
     42 CA         -2.5060  -26.4630   36.1120 C.3       3 GLL5        0.0000 
@<TRIPOS>BOND
@<TRIPOS>SUBSTRUCTURE
     1 GLC5        1 GROUP        1 X    GLC  0     ROOT GLC X 6
     2 GLP5        3 GROUP        1 Y    GLP  0     ROOT GLP Y 13
     3 GLL5        2 GROUP        1 Z    GLL  0     ROOT GLL Z 20
@<TRIPOS>SET

