#    Name: 2wey_EV1_1_ligand
#    Modification time : Tue Mar 25 04:15:00 2014

@<TRIPOS>MOLECULE
2wey_EV1_1_ligand
   46    48     1     0     0
SMALL
NO_CHARGES


@<TRIPOS>ATOM
      1 C25       -10.8550  -28.8440   35.4010 C.3       1 EV11771     0.0000 
      2 O24        -9.4850  -28.4850   35.2120 O.3       1 EV11771     0.0000 
      3 C16        -8.4470  -29.3780   35.0680 C.ar      1 EV11771     0.0000 
      4 C15        -8.3790  -30.6490   35.8540 C.ar      1 EV11771     0.0000 
      5 O22        -9.3750  -30.9920   36.7430 O.3       1 EV11771     0.0000 
      6 C23        -9.1380  -31.8070   37.8950 C.3       1 EV11771     0.0000 
      7 C14        -7.2830  -31.4880   35.6520 C.ar      1 EV11771     0.0000 
      8 C13        -6.2830  -31.1370   34.7440 C.ar      1 EV11771     0.0000 
      9 C17        -7.4120  -29.0700   34.1770 C.ar      1 EV11771     0.0000 
     10 C12        -6.3330  -29.9430   34.0200 C.ar      1 EV11771     0.0000 
     11 C11        -5.2030  -29.6460   33.0510 C.3       1 EV11771     0.0000 
     12 C10        -4.3500  -28.4280   33.3700 C.ar      1 EV11771     0.0000 
     13 N9         -4.0100  -27.6120   32.3380 N.ar      1 EV11771     0.0000 
     14 C8         -3.2490  -26.5100   32.4930 C.ar      1 EV11771     0.0000 
     15 C7         -2.7390  -26.1070   33.7300 C.ar      1 EV11771     0.0000 
     16 C2         -3.0040  -26.8550   34.8720 C.ar      1 EV11771     0.0000 
     17 C3         -3.8380  -28.0840   34.7390 C.ar      1 EV11771     0.0000 
     18 C4         -4.1120  -28.8400   35.8720 C.ar      1 EV11771     0.0000 
     19 C5         -3.6140  -28.4630   37.1170 C.ar      1 EV11771     0.0000 
     20 O20        -3.9060  -29.2310   38.2190 O.3       1 EV11771     0.0000 
     21 C21        -3.7490  -30.6510   38.2070 C.3       1 EV11771     0.0000 
     22 C6         -2.7840  -27.2240   37.2500 C.ar      1 EV11771     0.0000 
     23 C1         -2.5060  -26.4630   36.1120 C.ar      1 EV11771     0.0000 
     24 O18        -2.2870  -26.8590   38.4860 O.3       1 EV11771     0.0000 
     25 C19        -2.1940  -25.4990   38.9180 C.3       1 EV11771     0.0000 
     26 H          -7.2111  -32.3714   36.1757 H         1 EV11771     0.0000 
     27 H          -5.4797  -31.7801   34.6021 H         1 EV11771     0.0000 
     28 H          -7.4476  -28.1964   33.6361 H         1 EV11771     0.0000 
     29 H          -5.6299  -29.5240   32.0294 H         1 EV11771     0.0000 
     30 H          -4.5399  -30.5389   32.9895 H         1 EV11771     0.0000 
     31 H          -3.0167  -25.9117   31.6559 H         1 EV11771     0.0000 
     32 H          -2.1668  -25.2550   33.7929 H         1 EV11771     0.0000 
     33 H          -4.6915  -29.6917   35.7918 H         1 EV11771     0.0000 
     34 H          -1.9335  -25.6138   36.1920 H         1 EV11771     0.0000 
     35 H         -11.2058  -29.3855   34.6370 H         1 EV11771     0.0000 
     36 H         -10.9855  -29.3878   36.2300 H         1 EV11771     0.0000 
     37 H         -11.4420  -28.0386   35.4834 H         1 EV11771     0.0000 
     38 H          -8.7885  -32.7101   37.6455 H         1 EV11771     0.0000 
     39 H          -8.4678  -31.3933   38.5111 H         1 EV11771     0.0000 
     40 H          -9.9732  -31.9523   38.4254 H         1 EV11771     0.0000 
     41 H          -2.8039  -30.9186   38.0195 H         1 EV11771     0.0000 
     42 H          -4.0009  -31.0599   39.0841 H         1 EV11771     0.0000 
     43 H          -4.3197  -31.0819   37.5080 H         1 EV11771     0.0000 
     44 H          -1.8090  -25.4271   39.8381 H         1 EV11771     0.0000 
     45 H          -1.6112  -24.9562   38.3132 H         1 EV11771     0.0000 
     46 H          -3.0893  -25.0540   38.9392 H         1 EV11771     0.0000 
@<TRIPOS>BOND
     1    2    1 1    
     2   35    1 1    
     3   36    1 1    
     4   37    1 1    
     5    3    2 1    
     6    4    3 ar   
     7    9    3 ar   
     8    5    4 1    
     9    7    4 ar   
    10    6    5 1    
    11   38    6 1    
    12   39    6 1    
    13   40    6 1    
    14    8    7 ar   
    15   26    7 1    
    16   10    8 ar   
    17   27    8 1    
    18   10    9 ar   
    19   28    9 1    
    20   11   10 1    
    21   12   11 1    
    22   29   11 1    
    23   30   11 1    
    24   13   12 ar   
    25   17   12 ar   
    26   14   13 ar   
    27   15   14 ar   
    28   31   14 1    
    29   16   15 ar   
    30   32   15 1    
    31   17   16 ar   
    32   23   16 ar   
    33   18   17 ar   
    34   19   18 ar   
    35   33   18 1    
    36   20   19 1    
    37   22   19 ar   
    38   21   20 1    
    39   41   21 1    
    40   42   21 1    
    41   43   21 1    
    42   23   22 ar   
    43   24   22 1    
    44   34   23 1    
    45   25   24 1    
    46   44   25 1    
    47   45   25 1    
    48   46   25 1    
@<TRIPOS>SUBSTRUCTURE
     1 EV11771     1 GROUP   
@<TRIPOS>SET

