#    Name: 3shc_B01_1_INTS_M
#    Modification time : Tue Mar 25 12:37:47 2014

@<TRIPOS>MOLECULE
3shc_B01_1_INTS_M
   65     0     9     0     0
SMALL
NO_CHARGES


@<TRIPOS>ATOM
      1 O          15.3695  -15.2810   23.9010 O.2       1 ALC1        0.0000 
      2 O          16.4670  -16.0470   23.1480 O.2       7 ALL1        0.0000 
      3 O          14.2720  -14.5150   24.6540 O.2       4 ALP1        0.0000 
      4 N          15.4305  -12.5805   24.1235 N.am      2 SEC2        0.0000 
      5 N          16.2960  -13.2280   23.1540 N.am      8 SEL2        0.0000 
      6 N          14.5650  -11.9330   25.0930 N.am      5 SEP2        0.0000 
      7 CA         17.5435  -13.7240   26.1990 C.3       3 GLC5        0.0000 
      8 CA         18.0200  -15.0840   24.7410 C.3       9 GLL5        0.0000 
      9 CA         17.0670  -12.3640   27.6570 C.3       6 GLP5        0.0000 
     10 CA         20.8875  -11.5325   24.3810 C.3       3 GLC5        0.0000 
     11 CA         21.0380  -13.0840   25.8760 C.3       9 GLL5        0.0000 
     12 CA         20.7370   -9.9810   22.8860 C.3       6 GLP5        0.0000 
     13 CA         22.6325  -12.0370   23.9675 C.3       3 GLC5        0.0000 
     14 CA         22.0460  -13.6240   25.0770 C.3       9 GLL5        0.0000 
     15 CA         23.2190  -10.4500   22.8580 C.3       6 GLP5        0.0000 
     16 CA         17.5740  -11.3850   22.9925 C.3       3 GLC5        0.0000 
     17 CA         17.7740  -11.9880   21.2330 C.3       9 GLL5        0.0000 
     18 CA         17.3740  -10.7820   24.7520 C.3       6 GLP5        0.0000 
     19 CA         21.2400  -13.8400   19.2540 C.3       3 GLC5        0.0000 
     20 CA         19.5060  -13.1370   19.9370 C.3       9 GLL5        0.0000 
     21 CA         22.9740  -14.5430   18.5710 C.3       6 GLP5        0.0000 
     22 CA         21.3260  -14.0310   20.5245 C.3       3 GLC5        0.0000 
     23 CA         19.2710  -13.9260   21.2160 C.3       9 GLL5        0.0000 
     24 CA         23.3810  -14.1360   19.8330 C.3       6 GLP5        0.0000 
     25 CA         14.7800   -9.0745   19.1495 C.3       3 GLC5        0.0000 
     26 CA         14.2330  -10.7040   20.4400 C.3       9 GLL5        0.0000 
     27 CA         15.3270   -7.4450   17.8590 C.3       6 GLP5        0.0000 
     28 CA         10.2160  -11.4055   21.3115 C.3       3 GLC5        0.0000 
     29 CA         11.5220  -11.5700   22.8360 C.3       9 GLL5        0.0000 
     30 CA          8.9100  -11.2410   19.7870 C.3       6 GLP5        0.0000 
     31 CA         10.1155  -12.9525   21.9505 C.3       3 GLC5        0.0000 
     32 CA          8.7090  -14.3350   21.0650 C.3       6 GLP5        0.0000 
     33 O          16.3270   -9.7925   21.6265 O.2       1 ALC1        0.0000 
     34 O          15.6070  -10.9010   20.9080 O.2       7 ALL1        0.0000 
     35 O          17.0470   -8.6840   22.3450 O.2       4 ALP1        0.0000 
     36 CA         10.7525   -7.7710   23.3815 C.3       3 GLC5        0.0000 
     37 CA         12.3300   -7.9990   24.6400 C.3       9 GLL5        0.0000 
     38 CA          9.1750   -7.5430   22.1230 C.3       6 GLP5        0.0000 
     39 CA         14.1735   -9.0765   24.5155 C.3       3 GLC5        0.0000 
     40 CA         16.0170  -10.1540   24.3910 C.3       6 GLP5        0.0000 
     41 CA         11.7395   -8.5045   26.3145 C.3       3 GLC5        0.0000 
     42 CA         11.1490   -9.0100   27.9890 C.3       6 GLP5        0.0000 
     43 CA         13.4250   -7.6805   26.5520 C.3       3 GLC5        0.0000 
     44 CA         14.5200   -7.3620   28.4640 C.3       6 GLP5        0.0000 
     45 CA         11.3545   -6.3640   25.4655 C.3       3 GLC5        0.0000 
     46 CA         10.3790   -4.7290   26.2910 C.3       6 GLP5        0.0000 
     47 CA         22.8085  -12.4725   26.6172 C.3       3 GLC5        0.0000 
     48 CA         24.0750  -11.5910   27.7580 C.3       6 GLP5        0.0000 
     49 CA         18.8432  -12.1777   25.1724 C.3       3 GLC5        0.0000 
     50 CA         19.0934  -10.7888   19.3070 C.3       3 GLC5        0.0000 
     51 CA         19.2880   -9.0620   18.3050 C.3       6 GLP5        0.0000 
     52 CA         19.0368  -14.5572   19.0412 C.3       3 GLC5        0.0000 
     53 CA         18.6850  -15.5830   17.5060 C.3       6 GLP5        0.0000 
     54 CA         19.8179  -11.2483   21.5975 C.3       3 GLC5        0.0000 
     55 CA         14.8827  -10.4040   22.7060 C.3       3 GLC5        0.0000 
     56 CA         12.8857   -8.1105   21.8145 C.3       3 GLC5        0.0000 
     57 CA         13.2590   -9.4960   22.4520 C.3       9 GLL5        0.0000 
     58 CA         12.5100   -6.1710   21.6020 C.3       6 GLP5        0.0000 
     59 CA         10.5475   -8.7477   22.8682 C.3       3 GLC5        0.0000 
     60 CA         11.4780  -10.4810   23.7070 C.3       9 GLL5        0.0000 
     61 CA         12.4280   -7.4413   22.8410 C.3       3 GLC5        0.0000 
     62 CA         12.3620   -9.4240   23.5200 C.3       9 GLL5        0.0000 
     63 CA         14.4138   -9.8070   23.6885 C.3       3 GLC5        0.0000 
     64 CA         12.7765  -11.4189   24.6734 C.3       3 GLC5        0.0000 
     65 CA         13.6220  -12.6130   25.9510 C.3       6 GLP5        0.0000 
@<TRIPOS>BOND
@<TRIPOS>SUBSTRUCTURE
     1 ALC1        1 GROUP        1 X    ALC  0     ROOT ALC X 1
     2 SEC2        4 GROUP        1 X    SEC  0     **** SEC X 2
     3 GLC5        7 GROUP        1 X    GLC  0     **** GLC X 6
     4 ALP1        3 GROUP        1 Y    ALP  0     ROOT ALP Y 8
     5 SEP2        6 GROUP        1 Y    SEP  0     **** SEP Y 9
     6 GLP5        9 GROUP        1 Y    GLP  0     **** GLP Y 13
     7 ALL1        2 GROUP        1 Z    ALL  0     ROOT ALL Z 15
     8 SEL2        5 GROUP        1 Z    SEL  0     **** SEL Z 16
     9 GLL5        8 GROUP        1 Z    GLL  0     **** GLL Z 20
@<TRIPOS>SET

