#    Name: 3shc_B01_1_ligand
#    Modification time : Tue Mar 25 12:37:47 2014

@<TRIPOS>MOLECULE
3shc_B01_1_ligand
   51    53     1     0     0
SMALL
NO_CHARGES


@<TRIPOS>ATOM
      1 N21        16.4670  -16.0470   23.1480 N.4       1 B013        0.0000 
      2 C8         17.6300  -15.1850   23.2700 C.3       1 B013        0.0000 
      3 C9         17.2830  -13.8210   22.7350 C.2       1 B013        0.0000 
      4 O25        16.2960  -13.2280   23.1540 O.2       1 B013        0.0000 
      5 C7         18.0200  -15.0840   24.7410 C.3       1 B013        0.0000 
      6 C6         19.4380  -14.5680   24.8540 C.ar      1 B013        0.0000 
      7 C1         20.4480  -15.1110   24.0600 C.ar      1 B013        0.0000 
      8 C5         19.7360  -13.5580   25.7650 C.ar      1 B013        0.0000 
      9 C2         21.7540  -14.6370   24.1720 C.ar      1 B013        0.0000 
     10 C4         21.0380  -13.0840   25.8760 C.ar      1 B013        0.0000 
     11 C3         22.0460  -13.6240   25.0770 C.ar      1 B013        0.0000 
     12 N22        18.0770  -13.3080   21.7950 N.am      1 B013        0.0000 
     13 C10        17.7740  -11.9880   21.2330 C.3       1 B013        0.0000 
     14 C11        16.3830  -11.9630   20.6550 C.2       1 B013        0.0000 
     15 O26        15.9960  -12.9110   19.9890 O.2       1 B013        0.0000 
     16 C14        18.8090  -11.8000   20.1290 C.3       1 B013        0.0000 
     17 C15        19.5060  -13.1370   19.9370 C.3       1 B013        0.0000 
     18 C16        19.2710  -13.9260   21.2160 C.3       1 B013        0.0000 
     19 C12        14.2330  -10.7040   20.4400 C.3       1 B013        0.0000 
     20 C13        13.2640  -10.6040   21.6020 C.ar      1 B013        0.0000 
     21 C17        11.5220  -11.5700   22.8360 C.ar      1 B013        0.0000 
     22 C18        11.4780  -10.4810   23.7070 C.ar      1 B013        0.0000 
     23 C19        12.3620   -9.4240   23.5200 C.ar      1 B013        0.0000 
     24 C20        13.2590   -9.4960   22.4520 C.ar      1 B013        0.0000 
     25 N23        15.6070  -10.9010   20.9080 N.am      1 B013        0.0000 
     26 N24        12.3970  -11.6160   21.8180 N.ar      1 B013        0.0000 
     27 CL27       12.3300   -7.9990   24.6400 Cl        1 B013        0.0000 
     28 H          18.4571  -15.5819   22.7208 H         1 B013        0.0000 
     29 H          17.9507  -16.0662   25.1972 H         1 B013        0.0000 
     30 H          17.3417  -14.4028   25.2445 H         1 B013        0.0000 
     31 H          20.2289  -15.8605   23.3926 H         1 B013        0.0000 
     32 H          18.9923  -13.1635   26.3551 H         1 B013        0.0000 
     33 H          22.4967  -15.0366   23.5866 H         1 B013        0.0000 
     34 H          21.2600  -12.3369   26.5451 H         1 B013        0.0000 
     35 H          23.0086  -13.2690   25.1601 H         1 B013        0.0000 
     36 H          17.9029  -11.2318   21.9554 H         1 B013        0.0000 
     37 H          19.5249  -11.0574   20.4302 H         1 B013        0.0000 
     38 H          18.3153  -11.5140   19.2184 H         1 B013        0.0000 
     39 H          20.5566  -12.9807   19.7969 H         1 B013        0.0000 
     40 H          19.0707  -13.6563   19.1071 H         1 B013        0.0000 
     41 H          19.0962  -14.9503   20.9655 H         1 B013        0.0000 
     42 H          20.1186  -13.8100   21.8568 H         1 B013        0.0000 
     43 H          14.1572   -9.7840   19.8432 H         1 B013        0.0000 
     44 H          13.9211  -11.5396   19.7974 H         1 B013        0.0000 
     45 H          10.8510  -12.3547   22.9980 H         1 B013        0.0000 
     46 H          10.8021  -10.4623   24.4741 H         1 B013        0.0000 
     47 H          13.9228   -8.7249   22.2898 H         1 B013        0.0000 
     48 H          15.9819  -10.0952   21.5034 H         1 B013        0.0000 
     49 H          16.6487  -16.9672   23.4947 H         1 B013        0.0000 
     50 H          15.6850  -15.6903   23.6592 H         1 B013        0.0000 
     51 H          16.1753  -16.1446   22.1965 H         1 B013        0.0000 
@<TRIPOS>BOND
     1    2    1 1    
     2   49    1 1    
     3   50    1 1    
     4   51    1 1    
     5    3    2 1    
     6    5    2 1    
     7   28    2 1    
     8    4    3 2    
     9   12    3 am   
    10    6    5 1    
    11   29    5 1    
    12   30    5 1    
    13    7    6 ar   
    14    8    6 ar   
    15    9    7 ar   
    16   31    7 1    
    17   10    8 ar   
    18   32    8 1    
    19   11    9 ar   
    20   33    9 1    
    21   11   10 ar   
    22   34   10 1    
    23   35   11 1    
    24   13   12 1    
    25   18   12 1    
    26   14   13 1    
    27   16   13 1    
    28   36   13 1    
    29   15   14 2    
    30   25   14 am   
    31   17   16 1    
    32   37   16 1    
    33   38   16 1    
    34   18   17 1    
    35   39   17 1    
    36   40   17 1    
    37   41   18 1    
    38   42   18 1    
    39   20   19 1    
    40   25   19 1    
    41   43   19 1    
    42   44   19 1    
    43   24   20 ar   
    44   26   20 ar   
    45   22   21 ar   
    46   26   21 ar   
    47   45   21 1    
    48   23   22 ar   
    49   46   22 1    
    50   24   23 ar   
    51   27   23 1    
    52   47   24 1    
    53   48   25 1    
@<TRIPOS>SUBSTRUCTURE
     1 B013        1 GROUP   
@<TRIPOS>SET

