#    Name: 4c4f_7CE_1_INTS_M
#    Modification time : Tue Mar 25 08:56:31 2014

@<TRIPOS>MOLECULE
4c4f_7CE_1_INTS_M
   66     0     6     0     0
SMALL
NO_CHARGES


@<TRIPOS>ATOM
      1 CA         -0.4585   -5.5090  -14.5190 C.3       2 GLC5        0.0000 
      2 CA         -1.6310   -6.8240  -15.5610 C.3       6 GLL5        0.0000 
      3 CA          0.7140   -4.1940  -13.4770 C.3       4 GLP5        0.0000 
      4 CA          0.3850   -7.6380  -15.3460 C.3       2 GLC5        0.0000 
      5 CA          2.4010   -8.4520  -15.1310 C.3       4 GLP5        0.0000 
      6 CA         -0.8785   -7.0975  -17.5080 C.3       2 GLC5        0.0000 
      7 CA         -0.1260   -7.3710  -19.4550 C.3       4 GLP5        0.0000 
      8 CA         -2.9230  -13.3390  -13.1975 C.3       2 GLC5        0.0000 
      9 CA         -1.7980  -11.4380  -13.3120 C.3       6 GLL5        0.0000 
     10 CA         -4.0480  -15.2400  -13.0830 C.3       4 GLP5        0.0000 
     11 CA          0.9385  -10.2185  -17.1545 C.3       2 GLC5        0.0000 
     12 CA         -0.2870  -11.5830  -17.6590 C.3       6 GLL5        0.0000 
     13 CA          2.1640   -8.8540  -16.6500 C.3       4 GLP5        0.0000 
     14 CA          1.2595  -10.9900  -19.1675 C.3       2 GLC5        0.0000 
     15 CA          2.8060  -10.3970  -20.6760 C.3       4 GLP5        0.0000 
     16 CA         -2.0335  -10.9330  -18.6510 C.3       2 GLC5        0.0000 
     17 CA         -3.7800  -10.2830  -19.6430 C.3       4 GLP5        0.0000 
     18 N          -1.3585  -10.7720  -19.6300 N.am      1 SEC2        0.0000 
     19 N          -0.2650  -11.4870  -19.0660 N.am      5 SEL2        0.0000 
     20 N          -2.4520  -10.0570  -20.1940 N.am      3 SEP2        0.0000 
     21 CA         -0.1815  -10.7215  -20.7005 C.3       2 GLC5        0.0000 
     22 CA          0.4230  -12.4200  -19.7830 C.3       6 GLL5        0.0000 
     23 CA         -0.7860   -9.0230  -21.6180 C.3       4 GLP5        0.0000 
     24 CA          1.0195  -11.5835  -15.4860 C.3       2 GLC5        0.0000 
     25 CA          0.4070  -12.5920  -16.9550 C.3       6 GLL5        0.0000 
     26 CA          1.6320  -10.5750  -14.0170 C.3       4 GLP5        0.0000 
     27 N           5.5370  -19.0460  -18.2660 N.am      1 SEC2        0.0000 
     28 N           4.1750  -18.4090  -18.1550 N.am      5 SEL2        0.0000 
     29 N           6.8990  -19.6830  -18.3770 N.am      3 SEP2        0.0000 
     30 CA          0.0090   -9.8435  -14.1807 C.3       2 GLC5        0.0000 
     31 CA         -1.4910   -9.2140  -15.0380 C.3       6 GLL5        0.0000 
     32 CA         -3.5580   -9.9090  -14.3242 C.3       2 GLC5        0.0000 
     33 CA         -5.5020  -10.7060  -14.3040 C.3       4 GLP5        0.0000 
     34 CA         -0.1048  -10.6777  -13.5347 C.3       2 GLC5        0.0000 
     35 CA         -1.8850  -10.1230  -12.7930 C.3       6 GLL5        0.0000 
     36 CA         -3.6717  -10.7432  -13.6783 C.3       2 GLC5        0.0000 
     37 CA          0.0647  -10.8407  -14.5732 C.3       2 GLC5        0.0000 
     38 CA         -1.5810  -11.6590  -14.6840 C.3       6 GLL5        0.0000 
     39 CA         -3.5023  -10.9062  -14.7167 C.3       2 GLC5        0.0000 
     40 CA         -1.4240  -10.5540  -15.5750 C.3       6 GLL5        0.0000 
     41 CA         -2.4372  -12.3057  -16.1777 C.3       2 GLC5        0.0000 
     42 CA         -3.3720  -13.5050  -17.2260 C.3       4 GLP5        0.0000 
     43 CA         -1.6560  -12.7963  -17.2665 C.3       2 GLC5        0.0000 
     44 CA          0.2773  -14.0960  -20.7995 C.3       2 GLC5        0.0000 
     45 CA         -0.2090  -15.2440  -22.1160 C.3       4 GLP5        0.0000 
     46 CA         -0.9179  -13.5290  -19.1163 C.3       2 GLC5        0.0000 
     47 CA          1.0850  -13.5540  -17.7480 C.3       6 GLL5        0.0000 
     48 CA         -2.7600  -13.8070  -19.6170 C.3       4 GLP5        0.0000 
     49 CA          3.3747  -13.5312  -18.1860 C.3       2 GLC5        0.0000 
     50 CA          1.8240  -14.5800  -19.6610 C.3       6 GLL5        0.0000 
     51 CA          4.7250  -12.1150  -17.2630 C.3       4 GLP5        0.0000 
     52 CA          0.9078  -15.0957  -20.6125 C.3       2 GLC5        0.0000 
     53 CA          2.2250  -15.3150  -18.5570 C.3       6 GLL5        0.0000 
     54 CA          2.0499  -12.0805  -20.1240 C.3       2 GLC5        0.0000 
     55 CA          2.8250  -12.6948  -17.7651 C.3       2 GLC5        0.0000 
     56 CA          1.1040  -13.4760  -19.1830 C.3       6 GLL5        0.0000 
     57 CA          4.5180  -15.5157  -17.1150 C.3       2 GLC5        0.0000 
     58 CA          2.9930  -16.5410  -18.5650 C.3       6 GLL5        0.0000 
     59 CA          5.6960  -14.1550  -16.1600 C.3       4 GLP5        0.0000 
     60 CA          5.3550  -17.1127  -18.5265 C.3       2 GLC5        0.0000 
     61 CA          3.6870  -17.2120  -17.5750 C.3       6 GLL5        0.0000 
     62 CA          7.3700  -17.3490  -18.9830 C.3       4 GLP5        0.0000 
     63 CA          3.6129  -15.3041  -20.3275 C.3       2 GLC5        0.0000 
     64 CA          4.7170  -14.8640  -21.8180 C.3       4 GLP5        0.0000 
     65 CA          1.5075  -17.3740  -17.4795 C.3       2 GLC5        0.0000 
     66 CA         -0.1330  -18.1780  -16.8910 C.3       4 GLP5        0.0000 
@<TRIPOS>BOND
@<TRIPOS>SUBSTRUCTURE
     1 SEC2       18 GROUP        1 X    SEC  0     ROOT SEC X 2
     2 GLC5        1 GROUP        1 X    GLC  0     **** GLC X 6
     3 SEP2       20 GROUP        1 Y    SEP  0     ROOT SEP Y 9
     4 GLP5        3 GROUP        1 Y    GLP  0     **** GLP Y 13
     5 SEL2       19 GROUP        1 Z    SEL  0     ROOT SEL Z 16
     6 GLL5        2 GROUP        1 Z    GLL  0     **** GLL Z 20
@<TRIPOS>SET

