#    Name: 4c4f_7CE_1_ligand
#    Modification time : Tue Mar 25 08:56:31 2014

@<TRIPOS>MOLECULE
4c4f_7CE_1_ligand
   37    40     1     0     0
SMALL
NO_CHARGES


@<TRIPOS>ATOM
      1 C16        -1.6310   -6.8240  -15.5610 C.3       1 7CE1799     0.0000 
      2 O1         -1.1800   -8.1410  -15.9100 O.3       1 7CE1799     0.0000 
      3 C11        -1.4910   -9.2140  -15.0380 C.ar      1 7CE1799     0.0000 
      4 C12        -1.7370   -9.0100  -13.6510 C.ar      1 7CE1799     0.0000 
      5 C13        -1.8850  -10.1230  -12.7930 C.ar      1 7CE1799     0.0000 
      6 C14        -1.7980  -11.4380  -13.3120 C.ar      1 7CE1799     0.0000 
      7 C15        -1.5810  -11.6590  -14.6840 C.ar      1 7CE1799     0.0000 
      8 C10        -1.4240  -10.5540  -15.5750 C.ar      1 7CE1799     0.0000 
      9 N3         -1.1510  -10.6960  -16.9650 N.pl3     1 7CE1799     0.0000 
     10 C2         -0.2870  -11.5830  -17.6590 C.ar      1 7CE1799     0.0000 
     11 N          -0.2650  -11.4870  -19.0660 N.ar      1 7CE1799     0.0000 
     12 C1          0.4230  -12.4200  -19.7830 C.ar      1 7CE1799     0.0000 
     13 C3          0.4070  -12.5920  -16.9550 C.ar      1 7CE1799     0.0000 
     14 C4          1.0850  -13.5540  -17.7480 C.ar      1 7CE1799     0.0000 
     15 N1          1.7720  -14.6960  -17.3650 N.pl3     1 7CE1799     0.0000 
     16 C5          2.2250  -15.3150  -18.5570 C.2       1 7CE1799     0.0000 
     17 C6          1.8240  -14.5800  -19.6610 C.2       1 7CE1799     0.0000 
     18 C           1.1040  -13.4760  -19.1830 C.ar      1 7CE1799     0.0000 
     19 C7          2.9930  -16.5410  -18.5650 C.2       1 7CE1799     0.0000 
     20 C9          3.6870  -17.2120  -17.5750 C.2       1 7CE1799     0.0000 
     21 N2          4.1750  -18.4090  -18.1550 N.2       1 7CE1799     0.0000 
     22 C8          3.7840  -18.4050  -19.4340 C.2       1 7CE1799     0.0000 
     23 O           3.0590  -17.2880  -19.7470 O.3       1 7CE1799     0.0000 
     24 H          -1.8053   -8.0638  -13.2828 H         1 7CE1799     0.0000 
     25 H          -2.0551   -9.9804  -11.7961 H         1 7CE1799     0.0000 
     26 H          -1.8952  -12.2379  -12.6746 H         1 7CE1799     0.0000 
     27 H          -1.5340  -12.6098  -15.0538 H         1 7CE1799     0.0000 
     28 H          -1.7045   -9.9991  -17.6098 H         1 7CE1799     0.0000 
     29 H           0.4479  -12.3504  -20.8314 H         1 7CE1799     0.0000 
     30 H           0.4216  -12.6288  -15.9633 H         1 7CE1799     0.0000 
     31 H           1.9176  -15.0108  -16.4985 H         1 7CE1799     0.0000 
     32 H           1.9971  -14.7763  -20.5639 H         1 7CE1799     0.0000 
     33 H           3.8200  -16.9445  -16.6881 H         1 7CE1799     0.0000 
     34 H           3.9865  -19.1170  -20.0888 H         1 7CE1799     0.0000 
     35 H          -1.2573   -6.5239  -14.6833 H         1 7CE1799     0.0000 
     36 H          -1.3586   -6.1453  -16.2430 H         1 7CE1799     0.0000 
     37 H          -2.6272   -6.7804  -15.4857 H         1 7CE1799     0.0000 
@<TRIPOS>BOND
     1    2    1 1    
     2   35    1 1    
     3   36    1 1    
     4   37    1 1    
     5    3    2 1    
     6    4    3 ar   
     7    8    3 ar   
     8    5    4 ar   
     9   24    4 1    
    10    6    5 ar   
    11   25    5 1    
    12    7    6 ar   
    13   26    6 1    
    14    8    7 ar   
    15   27    7 1    
    16    9    8 1    
    17   10    9 1    
    18   28    9 1    
    19   11   10 ar   
    20   13   10 ar   
    21   12   11 ar   
    22   18   12 ar   
    23   29   12 1    
    24   14   13 ar   
    25   30   13 1    
    26   15   14 1    
    27   18   14 ar   
    28   16   15 1    
    29   31   15 1    
    30   17   16 2    
    31   19   16 1    
    32   18   17 1    
    33   32   17 1    
    34   20   19 2    
    35   23   19 1    
    36   21   20 1    
    37   33   20 1    
    38   22   21 2    
    39   23   22 1    
    40   34   22 1    
@<TRIPOS>SUBSTRUCTURE
     1 7CE1799     1 GROUP   
@<TRIPOS>SET

