#    Name: 2pks_G44_1_INTS_M
#    Modification time : Mon Mar 24 19:12:16 2014

@<TRIPOS>MOLECULE
2pks_G44_1_INTS_M
   49     0     6     0     0
SMALL
NO_CHARGES


@<TRIPOS>ATOM
      1 CA         10.5180  -12.9850   21.8310 C.3       2 GLC5        0.0000 
      2 CA         12.2680  -11.9940   22.4790 C.3       6 GLL5        0.0000 
      3 CA          8.7680  -13.9760   21.1830 C.3       4 GLP5        0.0000 
      4 CA         11.1680   -9.7280   25.9160 C.3       2 GLC5        0.0000 
      5 CA         11.1130  -10.7450   24.1410 C.3       6 GLL5        0.0000 
      6 CA         11.2230   -8.7110   27.6910 C.3       4 GLP5        0.0000 
      7 O           9.4515  -11.6855   25.0270 O.2       1 ALC1        0.0000 
      8 O          10.6740  -11.8900   24.5390 O.2       5 ALL1        0.0000 
      9 O           8.2290  -11.4810   25.5150 O.2       3 ALP1        0.0000 
     10 O           9.4880  -10.5475   25.1845 O.2       1 ALC1        0.0000 
     11 O          10.7470   -9.6140   24.8540 O.2       5 ALL1        0.0000 
     12 O           9.6010   -9.4860   25.2800 O.2       1 ALC1        0.0000 
     13 O           8.4550   -9.3580   25.7060 O.2       3 ALP1        0.0000 
     14 CA         20.2050  -14.8268   27.0865 C.3       2 GLC5        0.0000 
     15 CA         21.2030  -14.5120   25.7950 C.3       6 GLL5        0.0000 
     16 CA         19.6610  -15.6630   28.4370 C.3       4 GLP5        0.0000 
     17 CA         18.6028  -11.9245   24.8140 C.3       2 GLC5        0.0000 
     18 CA         20.2950  -13.4690   25.6770 C.3       6 GLL5        0.0000 
     19 CA         17.4800  -10.3000   24.3240 C.3       4 GLP5        0.0000 
     20 CA         19.3455  -14.9478   26.5235 C.3       2 GLC5        0.0000 
     21 CA         19.1560  -13.6290   24.9310 C.3       6 GLL5        0.0000 
     22 CA         20.1665  -15.8740   26.6358 C.3       2 GLC5        0.0000 
     23 CA         20.9810  -15.7310   25.1810 C.3       6 GLL5        0.0000 
     24 CA         20.1140  -11.8057   21.7918 C.3       2 GLC5        0.0000 
     25 CA         19.0200  -13.8330   21.5050 C.3       6 GLL5        0.0000 
     26 CA         21.1340  -10.2260   22.6050 C.3       4 GLP5        0.0000 
     27 CA         17.2735  -11.5843   22.8044 C.3       2 GLC5        0.0000 
     28 CA         17.7900  -13.9210   22.2090 C.3       6 GLL5        0.0000 
     29 CA         12.7790  -11.5280   18.5607 C.3       2 GLC5        0.0000 
     30 CA         14.4800  -11.3670   19.5900 C.3       6 GLL5        0.0000 
     31 CA         11.5460  -11.8620   16.9630 C.3       4 GLP5        0.0000 
     32 CA         11.3153  -11.2327   20.4997 C.3       2 GLC5        0.0000 
     33 CA         13.5440  -11.0210   20.7270 C.3       6 GLL5        0.0000 
     34 CA          9.3320  -10.9020   19.9510 C.3       4 GLP5        0.0000 
     35 CA         14.7323  -10.0542   22.4783 C.3       2 GLC5        0.0000 
     36 CA         16.0730   -9.7270   24.0060 C.3       4 GLP5        0.0000 
     37 CA         13.2243  -12.1685   23.7658 C.3       2 GLC5        0.0000 
     38 CA         13.0530  -12.1060   21.3700 C.3       6 GLL5        0.0000 
     39 CA         13.7880  -12.2870   25.6070 C.3       4 GLP5        0.0000 
     40 CA         10.7305  -11.1330   21.3372 C.3       2 GLC5        0.0000 
     41 CA         14.1457   -9.9417   23.3268 C.3       2 GLC5        0.0000 
     42 CA         12.4470   -9.5790   22.3270 C.3       6 GLL5        0.0000 
     43 CA         11.0875  -10.2812   20.8508 C.3       2 GLC5        0.0000 
     44 CA         12.5490   -7.5673   21.4578 C.3       2 GLC5        0.0000 
     45 CA         12.2550   -5.4740   21.1650 C.3       4 GLP5        0.0000 
     46 CA         10.5234   -8.7939   22.8296 C.3       2 GLC5        0.0000 
     47 CA         11.9900  -10.7340   22.9680 C.3       6 GLL5        0.0000 
     48 CA          9.3810   -7.1370   22.2650 C.3       4 GLP5        0.0000 
     49 CA         12.7269  -11.3689   24.5006 C.3       2 GLC5        0.0000 
@<TRIPOS>BOND
@<TRIPOS>SUBSTRUCTURE
     1 ALC1        7 GROUP        1 X    ALC  0     ROOT ALC X 1
     2 GLC5        1 GROUP        1 X    GLC  0     **** GLC X 6
     3 ALP1        9 GROUP        1 Y    ALP  0     ROOT ALP Y 8
     4 GLP5        3 GROUP        1 Y    GLP  0     **** GLP Y 13
     5 ALL1        8 GROUP        1 Z    ALL  0     ROOT ALL Z 15
     6 GLL5        2 GROUP        1 Z    GLL  0     **** GLL Z 20
@<TRIPOS>SET

