#    Name: 2pks_G44_1_ligand
#    Modification time : Mon Mar 24 19:12:16 2014

@<TRIPOS>MOLECULE
2pks_G44_1_ligand
   47    49     1     0     0
SMALL
NO_CHARGES


@<TRIPOS>ATOM
      1 C1         22.0150  -16.8170   25.3410 C.3       1 G44101      0.0000 
      2 C2         20.9810  -15.7310   25.1810 C.ar      1 G44101      0.0000 
      3 C3         21.2030  -14.5120   25.7950 C.ar      1 G44101      0.0000 
      4 C4         20.2950  -13.4690   25.6770 C.ar      1 G44101      0.0000 
      5 C5         19.1560  -13.6290   24.9310 C.ar      1 G44101      0.0000 
      6 C6         18.9040  -14.8360   24.2890 C.ar      1 G44101      0.0000 
      7 C7         19.8460  -15.8960   24.4080 C.ar      1 G44101      0.0000 
      8 C8         17.7730  -14.9360   23.3280 C.2       1 G44101      0.0000 
      9 O9         17.0110  -15.8760   23.2620 O.2       1 G44101      0.0000 
     10 C10        17.7900  -13.9210   22.2090 C.ar      1 G44101      0.0000 
     11 C11        19.0200  -13.8330   21.5050 C.ar      1 G44101      0.0000 
     12 C12        19.1680  -12.9380   20.4520 C.ar      1 G44101      0.0000 
     13 N13        18.1160  -12.1930   20.0650 N.ar      1 G44101      0.0000 
     14 C14        16.8820  -12.2300   20.5930 C.ar      1 G44101      0.0000 
     15 N15        15.9380  -11.3030   20.0160 N.pl3     1 G44101      0.0000 
     16 C16        14.4800  -11.3670   19.5900 C.3       1 G44101      0.0000 
     17 C17        13.5440  -11.0210   20.7270 C.ar      1 G44101      0.0000 
     18 C18        13.0530  -12.1060   21.3700 C.ar      1 G44101      0.0000 
     19 C19        12.2680  -11.9940   22.4790 C.ar      1 G44101      0.0000 
     20 C20        11.9900  -10.7340   22.9680 C.ar      1 G44101      0.0000 
     21 C21        12.4470   -9.5790   22.3270 C.ar      1 G44101      0.0000 
     22 C22        13.2390   -9.7420   21.1740 C.ar      1 G44101      0.0000 
     23 C23        11.1130  -10.7450   24.1410 C.2       1 G44101      0.0000 
     24 N24        10.6740  -11.8900   24.5390 N.pl3     1 G44101      0.0000 
     25 N25        10.7470   -9.6140   24.8540 N.pl3     1 G44101      0.0000 
     26 C26        16.7140  -13.0930   21.7440 C.ar      1 G44101      0.0000 
     27 H          22.0662  -14.3719   26.3564 H         1 G44101      0.0000 
     28 H          20.4847  -12.5732   26.1552 H         1 G44101      0.0000 
     29 H          18.4774  -12.8552   24.8403 H         1 G44101      0.0000 
     30 H          19.6671  -16.7756   23.9135 H         1 G44101      0.0000 
     31 H          19.7986  -14.4412   21.7863 H         1 G44101      0.0000 
     32 H          20.0845  -12.8601   19.9840 H         1 G44101      0.0000 
     33 H          16.3595  -10.2852   19.8284 H         1 G44101      0.0000 
     34 H          14.2561  -12.3772   19.2292 H         1 G44101      0.0000 
     35 H          14.3181  -10.6694   18.7605 H         1 G44101      0.0000 
     36 H          13.2816  -13.0669   21.0063 H         1 G44101      0.0000 
     37 H          11.8883  -12.8242   22.9456 H         1 G44101      0.0000 
     38 H          12.2206   -8.6605   22.6735 H         1 G44101      0.0000 
     39 H          13.5831   -8.9182   20.6752 H         1 G44101      0.0000 
     40 H          10.0416  -11.8738   25.3135 H         1 G44101      0.0000 
     41 H          11.0068  -12.6878   24.0362 H         1 G44101      0.0000 
     42 H          10.1125   -9.7587   25.6132 H         1 G44101      0.0000 
     43 H          11.1492   -8.7513   24.5474 H         1 G44101      0.0000 
     44 H          15.8174  -13.1083   22.2262 H         1 G44101      0.0000 
     45 H          22.9066  -16.5361   24.9859 H         1 G44101      0.0000 
     46 H          22.1468  -17.0659   26.3005 H         1 G44101      0.0000 
     47 H          21.7555  -17.6514   24.8548 H         1 G44101      0.0000 
@<TRIPOS>BOND
     1    2    1 1    
     2   45    1 1    
     3   46    1 1    
     4   47    1 1    
     5    3    2 ar   
     6    7    2 ar   
     7    4    3 ar   
     8   27    3 1    
     9    5    4 ar   
    10   28    4 1    
    11    6    5 ar   
    12   29    5 1    
    13    7    6 ar   
    14    8    6 1    
    15   30    7 1    
    16    9    8 2    
    17   10    8 1    
    18   11   10 ar   
    19   26   10 ar   
    20   12   11 ar   
    21   31   11 1    
    22   13   12 ar   
    23   32   12 1    
    24   14   13 ar   
    25   15   14 1    
    26   26   14 ar   
    27   16   15 1    
    28   33   15 1    
    29   17   16 1    
    30   34   16 1    
    31   35   16 1    
    32   18   17 ar   
    33   22   17 ar   
    34   19   18 ar   
    35   36   18 1    
    36   20   19 ar   
    37   37   19 1    
    38   21   20 ar   
    39   23   20 1    
    40   22   21 ar   
    41   38   21 1    
    42   39   22 1    
    43   24   23 2    
    44   25   23 1    
    45   40   24 1    
    46   41   24 1    
    47   42   25 1    
    48   43   25 1    
    49   44   26 1    
@<TRIPOS>SUBSTRUCTURE
     1 G44101      1 GROUP   
@<TRIPOS>SET

