#    Name: 2gtb_AZP_1_INTS_M
#    Modification time : Tue Mar 25 15:06:23 2014

@<TRIPOS>MOLECULE
2gtb_AZP_1_INTS_M
  105     0     9     0     0
SMALL
NO_CHARGES


@<TRIPOS>ATOM
      1 O          15.2965  -14.2300   11.6010 O.2       1 ALC1        0.0000 
      2 O          16.6830  -14.5140   12.2850 O.2       7 ALL1        0.0000 
      3 O          13.9100  -13.9460   10.9170 O.2       4 ALP1        0.0000 
      4 CA         16.5610  -13.9125   15.1180 C.3       3 GLC5        0.0000 
      5 CA         15.3840  -15.6530   15.3540 C.3       9 GLL5        0.0000 
      6 CA         17.7380  -12.1720   14.8820 C.3       6 GLP5        0.0000 
      7 CA         15.0745  -15.9245   17.5495 C.3       3 GLC5        0.0000 
      8 CA         14.7650  -16.1960   19.7450 C.3       6 GLP5        0.0000 
      9 CA         12.1440  -13.5885   15.0205 C.3       3 GLC5        0.0000 
     10 CA         13.0150  -15.0560   16.0830 C.3       9 GLL5        0.0000 
     11 CA         11.2730  -12.1210   13.9580 C.3       6 GLP5        0.0000 
     12 CA         12.6690  -17.9240   17.8845 C.3       3 GLC5        0.0000 
     13 CA         12.2630  -17.7970   16.1680 C.3       9 GLL5        0.0000 
     14 CA         13.0750  -18.0510   19.6010 C.3       6 GLP5        0.0000 
     15 CA         17.7470  -13.3145   13.0730 C.3       3 GLC5        0.0000 
     16 CA         17.7560  -14.4570   11.2640 C.3       9 GLL5        0.0000 
     17 CA         19.4370  -15.0100   12.4340 C.3       3 GLC5        0.0000 
     18 CA         21.1180  -15.5630   13.6040 C.3       6 GLP5        0.0000 
     19 N          15.8935  -11.6470   10.7970 N.am      2 SEC2        0.0000 
     20 N          17.1990  -12.1760   10.9500 N.am      8 SEL2        0.0000 
     21 N          14.5880  -11.1180   10.6440 N.am      5 SEP2        0.0000 
     22 O          20.3705  -13.7510   11.2895 O.2       1 ALC1        0.0000 
     23 O          19.3290  -12.6130   11.2410 O.2       7 ALL1        0.0000 
     24 O          21.4120  -14.8890   11.3380 O.2       4 ALP1        0.0000 
     25 CA         18.7775  -10.7850   12.9220 C.3       3 GLC5        0.0000 
     26 CA         19.7080  -11.2200   11.1110 C.3       9 GLL5        0.0000 
     27 CA         17.8470  -10.3500   14.7330 C.3       6 GLP5        0.0000 
     28 CA         22.0390   -9.1995   13.6755 C.3       3 GLC5        0.0000 
     29 CA         21.1500  -10.6560   13.7660 C.3       9 GLL5        0.0000 
     30 CA         22.9280   -7.7430   13.5850 C.3       6 GLP5        0.0000 
     31 CA         20.6240  -10.5085   16.6785 C.3       3 GLC5        0.0000 
     32 CA         21.6840  -10.8670   15.0490 C.3       9 GLL5        0.0000 
     33 CA         19.5640  -10.1500   18.3080 C.3       6 GLP5        0.0000 
     34 O          18.4330   -8.7015   10.6895 O.2       1 ALC1        0.0000 
     35 O          18.9280   -9.4630    9.7230 O.2       7 ALL1        0.0000 
     36 O          17.9380   -7.9400   11.6560 O.2       4 ALP1        0.0000 
     37 CA         16.1830   -7.2775    8.2850 C.3       3 GLC5        0.0000 
     38 CA         17.1910   -8.9970    8.0550 C.3       9 GLL5        0.0000 
     39 CA         15.1750   -5.5580    8.5150 C.3       6 GLP5        0.0000 
     40 CA         16.4355   -9.3110   10.1330 C.3       3 GLC5        0.0000 
     41 CA         15.6800   -9.6250   12.2110 C.3       6 GLP5        0.0000 
     42 CA         18.0615   -9.7810    4.9545 C.3       3 GLC5        0.0000 
     43 CA         17.0110   -9.7150    6.7120 C.3       9 GLL5        0.0000 
     44 CA         19.1120   -9.8470    3.1970 C.3       6 GLP5        0.0000 
     45 CA         15.3590  -10.9030    7.6295 C.3       3 GLC5        0.0000 
     46 CA         13.7070  -12.0910    8.5470 C.3       6 GLP5        0.0000 
     47 O          13.6340  -11.1625    5.6040 O.2       1 ALC1        0.0000 
     48 O          15.0040  -10.6810    5.5720 O.2       7 ALL1        0.0000 
     49 O          12.2640  -11.6440    5.6360 O.2       4 ALP1        0.0000 
     50 N          14.6680   -7.9430    7.8270 N.am      2 SEC2        0.0000 
     51 N          14.7380   -9.0870    7.0740 N.am      8 SEL2        0.0000 
     52 N          14.5980   -6.7990    8.5800 N.am      5 SEP2        0.0000 
     53 N          19.8430   -7.9030    5.2745 N.am      2 SEC2        0.0000 
     54 N          19.3720   -7.9480    6.5890 N.am      8 SEL2        0.0000 
     55 N          20.3140   -7.8580    3.9600 N.am      5 SEP2        0.0000 
     56 N          19.1170   -6.3990    6.8555 N.am      2 SEC2        0.0000 
     57 N          18.8620   -4.8500    7.1220 N.am      5 SEP2        0.0000 
     58 CA         21.9005   -8.0165   10.2225 C.3       3 GLC5        0.0000 
     59 CA         20.9900   -8.2640    8.2150 C.3       9 GLL5        0.0000 
     60 CA         22.8110   -7.7690   12.2300 C.3       6 GLP5        0.0000 
     61 O          21.5570  -10.8560    6.2120 O.2       1 ALC1        0.0000 
     62 O          21.6360  -10.4670    7.7650 O.2       7 ALL1        0.0000 
     63 O          21.4780  -11.2450    4.6590 O.2       4 ALP1        0.0000 
     64 CA         26.2420   -8.4650    9.0710 C.3       3 GLC5        0.0000 
     65 CA         24.9540   -9.4230    9.9460 C.3       9 GLL5        0.0000 
     66 CA         27.5300   -7.5070    8.1960 C.3       6 GLP5        0.0000 
     67 CA         26.5125  -10.7720   12.5045 C.3       3 GLC5        0.0000 
     68 CA         25.0940  -10.5440   10.9450 C.3       9 GLL5        0.0000 
     69 CA         27.9310  -11.0000   14.0640 C.3       6 GLP5        0.0000 
     70 CA         12.6000  -16.3700   14.3165 C.3       3 GLC5        0.0000 
     71 CA         13.9630  -16.0420   15.7630 C.3       9 GLL5        0.0000 
     72 CA         11.7110  -17.1910   12.7100 C.3       6 GLP5        0.0000 
     73 CA         10.4842  -14.6938   15.8180 C.3       3 GLC5        0.0000 
     74 CA         11.7140  -15.4640   16.4730 C.3       9 GLL5        0.0000 
     75 CA          9.4430  -13.2480   15.1500 C.3       6 GLP5        0.0000 
     76 CA         11.6182  -16.6653   14.5980 C.3       3 GLC5        0.0000 
     77 CA         12.4458  -16.3438   17.9520 C.3       3 GLC5        0.0000 
     78 CA         11.3370  -16.8150   16.4990 C.3       9 GLL5        0.0000 
     79 CA         13.3660  -16.5480   19.4180 C.3       6 GLP5        0.0000 
     80 CA         12.3143  -17.3950   14.3483 C.3       3 GLC5        0.0000 
     81 CA         10.5631  -17.3531   17.8910 C.3       3 GLC5        0.0000 
     82 CA          9.2320  -17.7380   19.4550 C.3       6 GLP5        0.0000 
     83 CA         13.4482  -16.5115   17.6410 C.3       3 GLC5        0.0000 
     84 CA         13.5720  -17.4010   15.8050 C.3       9 GLL5        0.0000 
     85 CA         22.1362   -9.4820   12.0953 C.3       3 GLC5        0.0000 
     86 CA         21.7060  -11.3080   12.6670 C.3       9 GLL5        0.0000 
     87 CA         21.6762  -13.6493   13.1910 C.3       3 GLC5        0.0000 
     88 CA         23.1290   -9.7603   14.8155 C.3       3 GLC5        0.0000 
     89 CA         22.7500  -11.7340   15.2550 C.3       9 GLL5        0.0000 
     90 CA         24.0410   -8.2200   14.4790 C.3       6 GLP5        0.0000 
     91 CA         19.7015  -10.6372   14.4329 C.3       3 GLC5        0.0000 
     92 CA         25.0243  -11.3090   15.0828 C.3       3 GLC5        0.0000 
     93 CA         27.0340  -10.5530   15.4550 C.3       6 GLP5        0.0000 
     94 CA         22.0662  -13.8140   14.1573 C.3       3 GLC5        0.0000 
     95 CA         23.2790  -12.3960   14.1660 C.3       9 GLL5        0.0000 
     96 CA         23.5310  -10.2498   14.0032 C.3       3 GLC5        0.0000 
     97 CA         24.3470  -13.3368   13.1282 C.3       3 GLC5        0.0000 
     98 CA         25.6730  -14.3940   12.7290 C.3       6 GLP5        0.0000 
     99 CA         21.9525  -12.7521   16.2910 C.3       3 GLC5        0.0000 
    100 CA         21.1570  -13.6560   17.9230 C.3       6 GLP5        0.0000 
    101 CA         21.4000   -7.4192    8.0978 C.3       3 GLC5        0.0000 
    102 CA         21.2820   -6.1390    8.3270 C.3       6 GLP5        0.0000 
    103 CA         23.9175   -8.8763   11.3377 C.3       3 GLC5        0.0000 
    104 CA         25.6610  -11.7993   10.3117 C.3       3 GLC5        0.0000 
    105 CA         26.2980  -13.6150   10.1780 C.3       6 GLP5        0.0000 
@<TRIPOS>BOND
@<TRIPOS>SUBSTRUCTURE
     1 ALC1        1 GROUP        1 X    ALC  0     ROOT ALC X 1
     2 SEC2       19 GROUP        1 X    SEC  0     **** SEC X 2
     3 GLC5        4 GROUP        1 X    GLC  0     **** GLC X 6
     4 ALP1        3 GROUP        1 Y    ALP  0     ROOT ALP Y 8
     5 SEP2       21 GROUP        1 Y    SEP  0     **** SEP Y 9
     6 GLP5        6 GROUP        1 Y    GLP  0     **** GLP Y 13
     7 ALL1        2 GROUP        1 Z    ALL  0     ROOT ALL Z 15
     8 SEL2       20 GROUP        1 Z    SEL  0     **** SEL Z 16
     9 GLL5        5 GROUP        1 Z    GLL  0     **** GLL Z 20
@<TRIPOS>SET

