#    Name: 2gtb_AZP_1_ligand
#    Modification time : Tue Mar 25 15:06:23 2014

@<TRIPOS>MOLECULE
2gtb_AZP_1_ligand
   89    90     1     0     0
SMALL
NO_CHARGES


@<TRIPOS>ATOM
      1 N          16.6830  -14.5140   12.2850 N.am      1 AZP401      0.0000 
      2 CAI        16.6040  -15.3460   13.3150 C.2       1 AZP401      0.0000 
      3 OAH        15.3100  -15.4930   13.9290 O.3       1 AZP401      0.0000 
      4 CAG        15.3840  -15.6530   15.3540 C.3       1 AZP401      0.0000 
      5 CAE        13.9630  -16.0420   15.7630 C.ar      1 AZP401      0.0000 
      6 CAD        13.0150  -15.0560   16.0830 C.ar      1 AZP401      0.0000 
      7 CAC        11.7140  -15.4640   16.4730 C.ar      1 AZP401      0.0000 
      8 CAB        11.3370  -16.8150   16.4990 C.ar      1 AZP401      0.0000 
      9 CAA        12.2630  -17.7970   16.1680 C.ar      1 AZP401      0.0000 
     10 CAF        13.5720  -17.4010   15.8050 C.ar      1 AZP401      0.0000 
     11 OAL        17.5570  -15.9900   13.7180 O.2       1 AZP401      0.0000 
     12 CA         17.7560  -14.4570   11.2640 C.3       1 AZP401      0.0000 
     13 CB         17.2660  -14.9640    9.8930 C.3       1 AZP401      0.0000 
     14 CG         17.5330  -16.4420    9.6700 C.3       1 AZP401      0.0000 
     15 CD1        16.6370  -17.2480   10.5710 C.3       1 AZP401      0.0000 
     16 CD2        17.1180  -16.8680    8.2580 C.3       1 AZP401      0.0000 
     17 C          18.0810  -13.0060   11.1450 C.2       1 AZP401      0.0000 
     18 O          17.1990  -12.1760   10.9500 O.2       1 AZP401      0.0000 
     19 NAS        19.3290  -12.6130   11.2410 N.am      1 AZP401      0.0000 
     20 CAT        19.7080  -11.2200   11.1110 C.3       1 AZP401      0.0000 
     21 CAV        21.2170  -11.0820   11.2540 C.3       1 AZP401      0.0000 
     22 CAW        21.7060  -11.3080   12.6670 C.ar      1 AZP401      0.0000 
     23 CBF        21.1500  -10.6560   13.7660 C.ar      1 AZP401      0.0000 
     24 CBG        21.6840  -10.8670   15.0490 C.ar      1 AZP401      0.0000 
     25 CBH        22.7500  -11.7340   15.2550 C.ar      1 AZP401      0.0000 
     26 CBI        23.2790  -12.3960   14.1660 C.ar      1 AZP401      0.0000 
     27 CBJ        22.7630  -12.1630   12.8890 C.ar      1 AZP401      0.0000 
     28 CAU        19.3290  -10.7380    9.7580 C.2       1 AZP401      0.0000 
     29 OAY        19.4060  -11.4610    8.7330 O.2       1 AZP401      0.0000 
     30 NAX        18.9280   -9.4630    9.7230 N.am      1 AZP401      0.0000 
     31 NAZ        18.5760   -8.9150    8.4510 N.am      1 AZP401      0.0000 
     32 CBA        17.1910   -8.9970    8.0550 C.3       1 AZP401      0.0000 
     33 CBB        17.0110   -9.7150    6.7120 C.3       1 AZP401      0.0000 
     34 CBC        15.5040   -9.8080    6.4590 C.2       1 AZP401      0.0000 
     35 NBE        15.0040  -10.6810    5.5720 N.am      1 AZP401      0.0000 
     36 OBD        14.7380   -9.0870    7.0740 O.2       1 AZP401      0.0000 
     37 CBK        19.5770   -8.3800    7.6950 C.2       1 AZP401      0.0000 
     38 OBL        19.3720   -7.9480    6.5890 O.2       1 AZP401      0.0000 
     39 CBM        20.9900   -8.2640    8.2150 C.3       1 AZP401      0.0000 
     40 CBO        22.0460   -9.1350    7.5220 C.3       1 AZP401      0.0000 
     41 OBN        21.6360  -10.4670    7.7650 O.3       1 AZP401      0.0000 
     42 CBP        23.3830   -8.9070    8.1690 C.2       1 AZP401      0.0000 
     43 OBQ        24.0830   -8.0060    7.7960 O.2       1 AZP401      0.0000 
     44 OBR        23.7880   -9.7970    9.2380 O.3       1 AZP401      0.0000 
     45 CBS        24.9540   -9.4230    9.9460 C.3       1 AZP401      0.0000 
     46 CBT        25.0940  -10.5440   10.9450 C.3       1 AZP401      0.0000 
     47 H          15.9136  -13.7792   12.1224 H         1 AZP401      0.0000 
     48 H          15.6392  -14.7369   15.8512 H         1 AZP401      0.0000 
     49 H          16.0462  -16.4482   15.6379 H         1 AZP401      0.0000 
     50 H          13.2497  -14.0727   16.0380 H         1 AZP401      0.0000 
     51 H          11.0271  -14.7388   16.7453 H         1 AZP401      0.0000 
     52 H          10.3800  -17.0711   16.7621 H         1 AZP401      0.0000 
     53 H          12.0166  -18.7816   16.1828 H         1 AZP401      0.0000 
     54 H          14.2665  -18.1298   15.5621 H         1 AZP401      0.0000 
     55 H          18.6037  -14.9921   11.5713 H         1 AZP401      0.0000 
     56 H          17.7634  -14.3797    9.1066 H         1 AZP401      0.0000 
     57 H          16.1871  -14.7713    9.8148 H         1 AZP401      0.0000 
     58 H          18.5315  -16.6880    9.8371 H         1 AZP401      0.0000 
     59 H          20.1175  -13.2799   11.4160 H         1 AZP401      0.0000 
     60 H          19.2371  -10.6170   11.8531 H         1 AZP401      0.0000 
     61 H          21.5159  -10.0749   10.9225 H         1 AZP401      0.0000 
     62 H          21.7064  -11.8031   10.5802 H         1 AZP401      0.0000 
     63 H          20.3537  -10.0232   13.6447 H         1 AZP401      0.0000 
     64 H          21.2694  -10.3625   15.8528 H         1 AZP401      0.0000 
     65 H          23.1294  -11.8748   16.1908 H         1 AZP401      0.0000 
     66 H          24.0535  -13.0626   14.2866 H         1 AZP401      0.0000 
     67 H          23.2000  -12.6588   12.0788 H         1 AZP401      0.0000 
     68 H          18.8613   -8.8704   10.5442 H         1 AZP401      0.0000 
     69 H          16.7428   -7.9921    7.9589 H         1 AZP401      0.0000 
     70 H          16.5920   -9.5406    8.8070 H         1 AZP401      0.0000 
     71 H          17.4268  -10.7001    6.7742 H         1 AZP401      0.0000 
     72 H          17.4716   -9.1404    5.9343 H         1 AZP401      0.0000 
     73 H          14.0073  -10.7087    5.4957 H         1 AZP401      0.0000 
     74 H          15.6726  -11.2261    5.0663 H         1 AZP401      0.0000 
     75 H          20.9995   -8.5059    9.3030 H         1 AZP401      0.0000 
     76 H          21.3176   -7.2007    8.1475 H         1 AZP401      0.0000 
     77 H          22.0718   -8.8941    6.5038 H         1 AZP401      0.0000 
     78 H          24.8326   -8.5027   10.4791 H         1 AZP401      0.0000 
     79 H          25.8247   -9.4085    9.3236 H         1 AZP401      0.0000 
     80 H          16.7800  -18.2308   10.4543 H         1 AZP401      0.0000 
     81 H          16.7976  -17.0410   11.5361 H         1 AZP401      0.0000 
     82 H          15.6700  -17.0690   10.3898 H         1 AZP401      0.0000 
     83 H          17.6201  -16.3638    7.5553 H         1 AZP401      0.0000 
     84 H          17.2877  -17.8405    8.0986 H         1 AZP401      0.0000 
     85 H          16.1445  -16.7095    8.0933 H         1 AZP401      0.0000 
     86 H          25.1931  -11.4318   10.4955 H         1 AZP401      0.0000 
     87 H          25.8948  -10.4212   11.5312 H         1 AZP401      0.0000 
     88 H          24.2975  -10.6072   11.5463 H         1 AZP401      0.0000 
     89 H          21.6636  -10.9135    6.8706 H         1 AZP401      0.0000 
@<TRIPOS>BOND
     1    2    1 am   
     2   12    1 1    
     3   47    1 1    
     4    3    2 1    
     5   11    2 2    
     6    4    3 1    
     7    5    4 1    
     8   48    4 1    
     9   49    4 1    
    10    6    5 ar   
    11   10    5 ar   
    12    7    6 ar   
    13   50    6 1    
    14    8    7 ar   
    15   51    7 1    
    16    9    8 ar   
    17   52    8 1    
    18   10    9 ar   
    19   53    9 1    
    20   54   10 1    
    21   13   12 1    
    22   17   12 1    
    23   55   12 1    
    24   14   13 1    
    25   56   13 1    
    26   57   13 1    
    27   15   14 1    
    28   16   14 1    
    29   58   14 1    
    30   80   15 1    
    31   81   15 1    
    32   82   15 1    
    33   83   16 1    
    34   84   16 1    
    35   85   16 1    
    36   18   17 2    
    37   19   17 am   
    38   20   19 1    
    39   59   19 1    
    40   21   20 1    
    41   28   20 1    
    42   60   20 1    
    43   22   21 1    
    44   61   21 1    
    45   62   21 1    
    46   23   22 ar   
    47   27   22 ar   
    48   24   23 ar   
    49   63   23 1    
    50   25   24 ar   
    51   64   24 1    
    52   26   25 ar   
    53   65   25 1    
    54   27   26 ar   
    55   66   26 1    
    56   67   27 1    
    57   29   28 2    
    58   30   28 am   
    59   31   30 1    
    60   68   30 1    
    61   32   31 1    
    62   37   31 am   
    63   33   32 1    
    64   69   32 1    
    65   70   32 1    
    66   34   33 1    
    67   71   33 1    
    68   72   33 1    
    69   35   34 am   
    70   36   34 2    
    71   73   35 1    
    72   74   35 1    
    73   38   37 2    
    74   39   37 1    
    75   40   39 1    
    76   75   39 1    
    77   76   39 1    
    78   41   40 1    
    79   42   40 1    
    80   77   40 1    
    81   89   41 1    
    82   43   42 2    
    83   44   42 1    
    84   45   44 1    
    85   46   45 1    
    86   78   45 1    
    87   79   45 1    
    88   86   46 1    
    89   87   46 1    
    90   88   46 1    
@<TRIPOS>SUBSTRUCTURE
     1 AZP401      1 GROUP   
@<TRIPOS>SET

