#    Name: 3akm_11D_4_INTS_M
#    Modification time : Tue Mar 25 12:05:18 2014

@<TRIPOS>MOLECULE
3akm_11D_4_INTS_M
   94     0    15     0     0
SMALL
NO_CHARGES


@<TRIPOS>ATOM
      1 CA          2.5170   -5.3835   56.3865 C.3       5 GLC5        0.0000 
      2 CA          3.7550   -6.4220   54.9200 C.3      15 GLL5        0.0000 
      3 CA          1.2790   -4.3450   57.8530 C.3      10 GLP5        0.0000 
      4 CA         -0.4070   -5.6170   53.7590 C.3       5 GLC5        0.0000 
      5 CA          1.3660   -6.5850   54.4570 C.3      15 GLL5        0.0000 
      6 CA         -2.1800   -4.6490   53.0610 C.3      10 GLP5        0.0000 
      7 CA          5.4615   -9.3785   52.8015 C.3       5 GLC5        0.0000 
      8 CA          5.2620   -9.8810   54.8980 C.3      15 GLL5        0.0000 
      9 CA          5.6610   -8.8760   50.7050 C.3      10 GLP5        0.0000 
     10 CA          6.2195   -7.8735   52.4345 C.3       5 GLC5        0.0000 
     11 CA          6.7780   -6.8710   54.1640 C.3      15 GLL5        0.0000 
     12 CA          7.8980   -8.0930   53.1975 C.3       5 GLC5        0.0000 
     13 CA          9.0180   -9.3150   52.2310 C.3      10 GLP5        0.0000 
     14 CA          6.4135   -5.0855   54.6485 C.3       5 GLC5        0.0000 
     15 CA          6.0490   -3.3000   55.1330 C.3      10 GLP5        0.0000 
     16 CA          8.8810   -8.2430   55.2675 C.3       5 GLC5        0.0000 
     17 CA          7.2610   -7.9480   56.3920 C.3      15 GLL5        0.0000 
     18 CA         10.5010   -8.5380   54.1430 C.3      10 GLP5        0.0000 
     19 CA          8.2760   -9.3265   57.0590 C.3       5 GLC5        0.0000 
     20 CA          9.2910  -10.7050   57.7260 C.3      10 GLP5        0.0000 
     21 CA          6.4700   -7.5360   57.6340 C.3       5 GLC5        0.0000 
     22 CA          5.6790   -7.1240   58.8760 C.3      10 GLP5        0.0000 
     23 O           0.3270  -11.1045   55.3295 O.2       1 ALC1        0.0000 
     24 O          -0.2660   -9.6990   55.2870 O.2      11 ALL1        0.0000 
     25 O           0.9200  -12.5100   55.3720 O.2       6 ALP1        0.0000 
     26 Zn         -1.8815  -10.4375   58.0930 Zn        4 ZIC7        0.0000 
     27 Zn         -0.2660   -9.6990   55.2870 Zn       14 ZIL7        0.0000 
     28 Zn         -3.4970  -11.1760   60.8990 Zn        9 ZIP7        0.0000 
     29 CA         -3.0035  -11.0870   57.1830 C.3       5 GLC5        0.0000 
     30 CA         -1.9120   -9.3860   57.1690 C.3      15 GLL5        0.0000 
     31 CA         -4.0950  -12.7880   57.1970 C.3      10 GLP5        0.0000 
     32 CA         -4.0250   -7.0590   55.6725 C.3       5 GLC5        0.0000 
     33 CA         -2.9490   -8.3460   56.8250 C.3      15 GLL5        0.0000 
     34 CA         -5.1010   -5.7720   54.5200 C.3      10 GLP5        0.0000 
     35 CA         -5.6685   -7.7995   56.5075 C.3       5 GLC5        0.0000 
     36 CA         -4.2200   -8.5570   57.6620 C.3      15 GLL5        0.0000 
     37 CA         -7.1170   -7.0420   55.3530 C.3      10 GLP5        0.0000 
     38 CA         -4.7725  -10.3995   57.5755 C.3       5 GLC5        0.0000 
     39 CA         -5.3250  -12.2420   57.4890 C.3      10 GLP5        0.0000 
     40 CA         -2.8400   -6.6390   60.3270 C.3       5 GLC5        0.0000 
     41 CA         -4.1680   -7.8710   59.0160 C.3      15 GLL5        0.0000 
     42 CA         -1.5120   -5.4070   61.6380 C.3      10 GLP5        0.0000 
     43 CA         -7.6695   -8.1775   59.4265 C.3       5 GLC5        0.0000 
     44 CA         -5.5700   -7.5380   59.5530 C.3      15 GLL5        0.0000 
     45 CA         -9.7690   -8.8170   59.3000 C.3      10 GLP5        0.0000 
     46 CA         -7.2925   -5.9495   61.0705 C.3       5 GLC5        0.0000 
     47 CA         -5.5070   -6.7920   60.8900 C.3      15 GLL5        0.0000 
     48 CA         -9.0780   -5.1070   61.2510 C.3      10 GLP5        0.0000 
     49 CA         -3.5890   -5.7205   63.8045 C.3       5 GLC5        0.0000 
     50 CA         -5.1740   -6.7840   63.3580 C.3      15 GLL5        0.0000 
     51 CA         -2.0040   -4.6570   64.2510 C.3      10 GLP5        0.0000 
     52 CA         -6.9125   -5.5795   62.8155 C.3       5 GLC5        0.0000 
     53 CA         -8.6510   -4.3750   62.2730 C.3      10 GLP5        0.0000 
     54 CA         -3.9305   -6.3755   66.1775 C.3       5 GLC5        0.0000 
     55 CA         -4.4610   -7.3270   64.5670 C.3      15 GLL5        0.0000 
     56 CA         -3.4000   -5.4240   67.7880 C.3      10 GLP5        0.0000 
     57 CA         -2.8800   -6.5870   64.2685 C.3       5 GLC5        0.0000 
     58 CA         -1.2990   -5.8470   63.9700 C.3      10 GLP5        0.0000 
     59 NZ         -6.7365  -10.0570   65.5370 N.4       3 LYC4        0.0000 
     60 NZ         -6.1990   -8.6510   65.4800 N.4      13 LYL4        0.0000 
     61 NZ         -6.7510  -12.0190   64.5230 N.4       8 LYP4        0.0000 
     62 N          -7.3165   -8.0800   65.1930 N.am      2 SEC2        0.0000 
     63 N          -6.1990   -8.6510   65.4800 N.am     12 SEL2        0.0000 
     64 N          -8.4340   -7.5090   64.9060 N.am      7 SEP2        0.0000 
     65 N          -6.7365  -10.0570   65.5370 N.am      2 SEC2        0.0000 
     66 N          -7.2740  -11.4630   65.5940 N.am      7 SEP2        0.0000 
     67 NZ         -4.8370  -10.6440   64.7340 N.4       3 LYC4        0.0000 
     68 NZ         -4.1770   -9.5580   65.2820 N.4      13 LYL4        0.0000 
     69 N          -4.8370  -10.6440   64.7340 N.am      2 SEC2        0.0000 
     70 N          -4.1770   -9.5580   65.2820 N.am     12 SEL2        0.0000 
     71 N          -5.4970  -11.7300   64.1860 N.am      7 SEP2        0.0000 
     72 CA          4.5892   -4.7148   54.9885 C.3       5 GLC5        0.0000 
     73 CA          2.7095   -8.0895   52.8057 C.3       5 GLC5        0.0000 
     74 CA          2.6870   -8.6420   54.5290 C.3      15 GLL5        0.0000 
     75 CA          3.3850   -7.8770   51.1840 C.3      10 GLP5        0.0000 
     76 CA          2.6600   -7.0440   52.8982 C.3       5 GLC5        0.0000 
     77 CA          0.8044   -5.5501   55.2839 C.3       5 GLC5        0.0000 
     78 CA          1.3810   -7.9620   54.3260 C.3      15 GLL5        0.0000 
     79 CA         -0.3300   -4.5450   55.9880 C.3      10 GLP5        0.0000 
     80 CA          3.9515   -7.8425   53.0689 C.3       5 GLC5        0.0000 
     81 CA          3.8890   -7.8080   54.8330 C.3      15 GLL5        0.0000 
     82 CA          5.0985   -7.4660   56.9149 C.3       5 GLC5        0.0000 
     83 CA          5.0895  -12.0785   54.2078 C.3       5 GLC5        0.0000 
     84 CA          5.4860  -13.9070   53.6570 C.3      10 GLP5        0.0000 
     85 CA          3.3640  -11.4352   53.1257 C.3       5 GLC5        0.0000 
     86 CA          4.1240  -10.6190   54.6190 C.3      15 GLL5        0.0000 
     87 CA          3.2410  -12.5440   51.7230 C.3      10 GLP5        0.0000 
     88 CA          3.4360   -9.1017   52.8563 C.3       5 GLC5        0.0000 
     89 CA         -3.3998   -6.3063   61.5650 C.3       5 GLC5        0.0000 
     90 CA         -4.7845   -5.5296   59.2236 C.3       5 GLC5        0.0000 
     91 CA         -4.3810   -3.8110   58.3600 C.3      10 GLP5        0.0000 
     92 CA         -6.7985   -8.2547   62.9390 C.3       5 GLC5        0.0000 
     93 CA         -5.0680   -7.6190   62.0940 C.3      15 GLL5        0.0000 
     94 CA         -8.4760   -9.3080   63.1520 C.3      10 GLP5        0.0000 
@<TRIPOS>BOND
@<TRIPOS>SUBSTRUCTURE
     1 ALC1       23 GROUP        1 X    ALC  0     ROOT ALC X 1
     2 SEC2       62 GROUP        1 X    SEC  0     **** SEC X 2
     3 LYC4       59 GROUP        1 X    LYC  0     **** LYC X 4
     4 ZIC7       26 GROUP        1 X    ZIC  0     **** ZIC X 5
     5 GLC5        1 GROUP        1 X    GLC  0     **** GLC X 6
     6 ALP1       25 GROUP        1 Y    ALP  0     ROOT ALP Y 8
     7 SEP2       64 GROUP        1 Y    SEP  0     **** SEP Y 9
     8 LYP4       61 GROUP        1 Y    LYP  0     **** LYP Y 11
     9 ZIP7       28 GROUP        1 Y    ZIP  0     **** ZIP Y 12
    10 GLP5        3 GROUP        1 Y    GLP  0     **** GLP Y 13
    11 ALL1       24 GROUP        1 Z    ALL  0     ROOT ALL Z 15
    12 SEL2       63 GROUP        1 Z    SEL  0     **** SEL Z 16
    13 LYL4       60 GROUP        1 Z    LYL  0     **** LYL Z 18
    14 ZIL7       27 GROUP        1 Z    ZIL  0     **** ZIL Z 19
    15 GLL5        2 GROUP        1 Z    GLL  0     **** GLL Z 20
@<TRIPOS>SET

