#    Name: 3akm_11D_4_ligand
#    Modification time : Tue Mar 25 12:05:18 2014

@<TRIPOS>MOLECULE
3akm_11D_4_ligand
   63    64     1     0     0
SMALL
NO_CHARGES


@<TRIPOS>ATOM
      1 C1          3.7550   -6.4220   54.9200 C.ar      1 11D132      0.0000 
      2 C2          3.8890   -7.8080   54.8330 C.ar      1 11D132      0.0000 
      3 C3          2.6870   -8.6420   54.5290 C.ar      1 11D132      0.0000 
      4 C4          1.3810   -7.9620   54.3260 C.ar      1 11D132      0.0000 
      5 C5          1.3660   -6.5850   54.4570 C.ar      1 11D132      0.0000 
      6 C6          2.5040   -5.8370   54.7680 C.ar      1 11D132      0.0000 
      7 C7          5.2140   -8.5010   55.0310 C.ar      1 11D132      0.0000 
      8 C8          5.2620   -9.8810   54.8980 C.ar      1 11D132      0.0000 
      9 C9          4.1240  -10.6190   54.6190 C.ar      1 11D132      0.0000 
     10 C10         2.8500  -10.0340   54.4380 C.ar      1 11D132      0.0000 
     11 N11         6.3880   -7.7880   55.2360 N.3       1 11D132      0.0000 
     12 C12         6.7780   -6.8710   54.1640 C.3       1 11D132      0.0000 
     13 C13         7.2610   -7.9480   56.3920 C.3       1 11D132      0.0000 
     14 S14         0.0080   -8.7560   54.0250 S.o2      1 11D132      0.0000 
     15 O15         0.1060   -9.4780   52.8320 O.2       1 11D132      0.0000 
     16 O16        -1.0010   -7.7500   53.9490 O.2       1 11D132      0.0000 
     17 N17        -0.2660   -9.6990   55.2870 N.pl3     1 11D132      0.0000 
     18 C18        -0.5180   -9.0760   56.5760 C.3       1 11D132      0.0000 
     19 C19        -1.9120   -9.3860   57.1690 C.3       1 11D132      0.0000 
     20 C20        -2.9490   -8.3460   56.8250 C.3       1 11D132      0.0000 
     21 C21        -4.2200   -8.5570   57.6620 C.3       1 11D132      0.0000 
     22 C22        -4.1680   -7.8710   59.0160 C.3       1 11D132      0.0000 
     23 C23        -5.5700   -7.5380   59.5530 C.3       1 11D132      0.0000 
     24 C24        -5.5070   -6.7920   60.8900 C.3       1 11D132      0.0000 
     25 C25        -5.0680   -7.6190   62.0940 C.3       1 11D132      0.0000 
     26 C26        -5.1740   -6.7840   63.3580 C.3       1 11D132      0.0000 
     27 C27        -4.4610   -7.3270   64.5670 C.3       1 11D132      0.0000 
     28 C28        -4.9990   -8.5970   65.1340 C.2       1 11D132      0.0000 
     29 O29        -6.1990   -8.6510   65.4800 O.co2     1 11D132      0.0000 
     30 O30        -4.1770   -9.5580   65.2820 O.co2     1 11D132      0.0000 
     31 H           4.5808   -5.8378   55.0961 H         1 11D132      0.0000 
     32 H           0.4600   -6.0731   54.3173 H         1 11D132      0.0000 
     33 H           2.4081   -4.8058   54.8894 H         1 11D132      0.0000 
     34 H           6.1722  -10.3706   55.0104 H         1 11D132      0.0000 
     35 H           4.1983  -11.6605   54.5358 H         1 11D132      0.0000 
     36 H           2.0422  -10.6332   54.2392 H         1 11D132      0.0000 
     37 H          -0.2506  -10.6594   55.1288 H         1 11D132      0.0000 
     38 H          -0.4280   -7.9716   56.5065 H         1 11D132      0.0000 
     39 H           0.2368   -9.3958   57.3248 H         1 11D132      0.0000 
     40 H          -1.8122   -9.4643   58.2609 H         1 11D132      0.0000 
     41 H          -2.2338  -10.3690   56.7968 H         1 11D132      0.0000 
     42 H          -3.2084   -8.4161   55.7702 H         1 11D132      0.0000 
     43 H          -2.5572   -7.3509   57.0276 H         1 11D132      0.0000 
     44 H          -4.3709   -9.6365   57.8061 H         1 11D132      0.0000 
     45 H          -5.0818   -8.1777   57.0944 H         1 11D132      0.0000 
     46 H          -3.5935   -6.9429   58.9335 H         1 11D132      0.0000 
     47 H          -3.6611   -8.5214   59.7358 H         1 11D132      0.0000 
     48 H          -6.1293   -8.4661   59.6856 H         1 11D132      0.0000 
     49 H          -6.0931   -6.9197   58.8211 H         1 11D132      0.0000 
     50 H          -6.5077   -6.3577   61.0995 H         1 11D132      0.0000 
     51 H          -4.8189   -5.9270   60.7796 H         1 11D132      0.0000 
     52 H          -4.0395   -7.9375   61.9543 H         1 11D132      0.0000 
     53 H          -5.7070   -8.4925   62.1811 H         1 11D132      0.0000 
     54 H          -6.2529   -6.6479   63.6027 H         1 11D132      0.0000 
     55 H          -4.7909   -5.7604   63.1391 H         1 11D132      0.0000 
     56 H          -4.4619   -6.5413   65.3636 H         1 11D132      0.0000 
     57 H          -3.3815   -7.4696   64.3095 H         1 11D132      0.0000 
     58 H           7.6300   -6.3924   54.3763 H         1 11D132      0.0000 
     59 H           6.9192   -7.3507   53.2980 H         1 11D132      0.0000 
     60 H           6.0817   -6.1718   54.0017 H         1 11D132      0.0000 
     61 H           7.6092   -8.8823   56.4679 H         1 11D132      0.0000 
     62 H           8.0552   -7.3422   56.3443 H         1 11D132      0.0000 
     63 H           6.7860   -7.7418   57.2475 H         1 11D132      0.0000 
@<TRIPOS>BOND
     1    2    1 ar   
     2    6    1 ar   
     3   31    1 1    
     4    3    2 ar   
     5    7    2 ar   
     6    4    3 ar   
     7   10    3 ar   
     8    5    4 ar   
     9   14    4 1    
    10    6    5 ar   
    11   32    5 1    
    12   33    6 1    
    13    8    7 ar   
    14   11    7 1    
    15    9    8 ar   
    16   34    8 1    
    17   10    9 ar   
    18   35    9 1    
    19   36   10 1    
    20   12   11 1    
    21   13   11 1    
    22   58   12 1    
    23   59   12 1    
    24   60   12 1    
    25   61   13 1    
    26   62   13 1    
    27   63   13 1    
    28   15   14 2    
    29   16   14 2    
    30   17   14 1    
    31   18   17 1    
    32   37   17 1    
    33   19   18 1    
    34   38   18 1    
    35   39   18 1    
    36   20   19 1    
    37   40   19 1    
    38   41   19 1    
    39   21   20 1    
    40   42   20 1    
    41   43   20 1    
    42   22   21 1    
    43   44   21 1    
    44   45   21 1    
    45   23   22 1    
    46   46   22 1    
    47   47   22 1    
    48   24   23 1    
    49   48   23 1    
    50   49   23 1    
    51   25   24 1    
    52   50   24 1    
    53   51   24 1    
    54   26   25 1    
    55   52   25 1    
    56   53   25 1    
    57   27   26 1    
    58   54   26 1    
    59   55   26 1    
    60   28   27 1    
    61   56   27 1    
    62   57   27 1    
    63   29   28 ar   
    64   30   28 ar   
@<TRIPOS>SUBSTRUCTURE
     1 11D132      1 GROUP   
@<TRIPOS>SET

