#    Name: 3syt_NAD_3_INTS_M
#    Modification time : Mon Mar 24 18:52:11 2014

@<TRIPOS>MOLECULE
3syt_NAD_3_INTS_M
   75     0    12     0     0
SMALL
NO_CHARGES


@<TRIPOS>ATOM
      1 NZ         63.9740    4.0620  -59.7595 N.4       3 LYC4        0.0000 
      2 NZ         65.0860    3.2940  -59.1030 N.4      11 LYL4        0.0000 
      3 NZ         62.8620    4.8300  -60.4160 N.4       7 LYP4        0.0000 
      4 N          64.9525    3.3635  -57.6945 N.am      2 SEC2        0.0000 
      5 N          65.0860    3.2940  -59.1030 N.am     10 SEL2        0.0000 
      6 N          64.8190    3.4330  -56.2860 N.am      6 SEP2        0.0000 
      7 N          67.7805    0.5350  -59.9110 N.am      2 SEC2        0.0000 
      8 N          66.6840    1.3100  -59.1430 N.am     10 SEL2        0.0000 
      9 N          68.8770   -0.2400  -60.6790 N.am      6 SEP2        0.0000 
     10 N          66.2715    0.6610  -58.2135 N.am      2 SEC2        0.0000 
     11 N          65.8590    0.0120  -57.2840 N.am      6 SEP2        0.0000 
     12 CA         62.9490    0.3850  -61.2050 C.3       4 GLC5        0.0000 
     13 CA         65.0770    0.3110  -61.7640 C.3      12 GLL5        0.0000 
     14 CA         60.8210    0.4590  -60.6460 C.3       8 GLP5        0.0000 
     15 CA         64.1240   -2.1985  -59.4750 C.3       4 GLC5        0.0000 
     16 CA         65.1300   -0.9610  -60.9340 C.3      12 GLL5        0.0000 
     17 CA         63.1180   -3.4360  -58.0160 C.3       8 GLP5        0.0000 
     18 O          66.4830   -4.4900  -61.4090 O.2       1 ALC1        0.0000 
     19 O          66.3280   -3.0610  -60.7570 O.2       9 ALL1        0.0000 
     20 O          66.6380   -5.9190  -62.0610 O.2       5 ALP1        0.0000 
     21 O          65.7705   -5.0050  -62.4115 O.2       1 ALC1        0.0000 
     22 O          64.9030   -4.0910  -62.7620 O.2       9 ALL1        0.0000 
     23 CA         62.1060   -1.4320  -60.4050 C.3       4 GLC5        0.0000 
     24 CA         63.4990   -2.6340  -61.3660 C.3      12 GLL5        0.0000 
     25 CA         60.7130   -0.2300  -59.4440 C.3       8 GLP5        0.0000 
     26 CA         63.3085   -3.0350  -59.6910 C.3       4 GLC5        0.0000 
     27 CA         57.7970   -5.1175  -61.9085 C.3       4 GLC5        0.0000 
     28 CA         58.6890   -3.1820  -61.8990 C.3      12 GLL5        0.0000 
     29 CA         56.9050   -7.0530  -61.9180 C.3       8 GLP5        0.0000 
     30 O          56.0860   -2.6575  -62.7735 O.2       1 ALC1        0.0000 
     31 O          57.6680   -2.7740  -62.6960 O.2       9 ALL1        0.0000 
     32 O          54.5040   -2.5410  -62.8510 O.2       5 ALP1        0.0000 
     33 N          57.4040   -4.7445  -60.2115 N.am      2 SEC2        0.0000 
     34 N          58.5190   -4.0400  -60.8460 N.am     10 SEL2        0.0000 
     35 N          56.2890   -5.4490  -59.5770 N.am      6 SEP2        0.0000 
     36 CA         58.3020   -2.7865  -59.7650 C.3       4 GLC5        0.0000 
     37 CA         59.5510   -4.4200  -60.0850 C.3      12 GLL5        0.0000 
     38 CA         57.0530   -1.1530  -59.4450 C.3       8 GLP5        0.0000 
     39 CA         58.2280   -5.7365  -61.0015 C.3       4 GLC5        0.0000 
     40 CA         59.8285   -5.1970  -61.8835 C.3       4 GLC5        0.0000 
     41 CA         60.1060   -5.9740  -63.6820 C.3       8 GLP5        0.0000 
     42 CA         60.8300   -5.1215  -58.9035 C.3       4 GLC5        0.0000 
     43 CA         62.1090   -5.8230  -57.7220 C.3       8 GLP5        0.0000 
     44 CA         62.0500   -4.9280  -61.5540 C.3       4 GLC5        0.0000 
     45 CA         61.0080   -3.1120  -61.4180 C.3      12 GLL5        0.0000 
     46 CA         63.0920   -6.7440  -61.6900 C.3       8 GLP5        0.0000 
     47 CA         62.0630   -3.2740  -59.7170 C.3       4 GLC5        0.0000 
     48 N          68.1690    2.9815  -60.4115 N.am      2 SEC2        0.0000 
     49 N          66.6560    2.8960  -61.1250 N.am     10 SEL2        0.0000 
     50 N          69.6820    3.0670  -59.6980 N.am      6 SEP2        0.0000 
     51 NZ         63.7690    4.5725  -61.1835 N.4       3 LYC4        0.0000 
     52 NZ         64.6760    4.3150  -61.9510 N.4      11 LYL4        0.0000 
     53 N          63.7690    4.5725  -61.1835 N.am      2 SEC2        0.0000 
     54 N          64.6760    4.3150  -61.9510 N.am     10 SEL2        0.0000 
     55 N          62.8620    4.8300  -60.4160 N.am      6 SEP2        0.0000 
     56 CA         67.4135   11.1700  -62.6560 C.3       4 GLC5        0.0000 
     57 CA         68.4780    9.5060  -61.9280 C.3      12 GLL5        0.0000 
     58 CA         66.3490   12.8340  -63.3840 C.3       8 GLP5        0.0000 
     59 CA         66.2660   11.2390  -61.7960 C.3       4 GLC5        0.0000 
     60 CA         67.1620    9.6830  -61.2120 C.3      12 GLL5        0.0000 
     61 CA         65.3700   12.7950  -62.3800 C.3       8 GLP5        0.0000 
     62 CA         69.6235    8.2720  -56.3610 C.3       4 GLC5        0.0000 
     63 CA         68.2310    9.2470  -57.6500 C.3      12 GLL5        0.0000 
     64 CA         71.0160    7.2970  -55.0720 C.3       8 GLP5        0.0000 
     65 CA         67.9170    7.3600  -56.9770 C.3       4 GLC5        0.0000 
     66 CA         67.6030    5.4730  -56.3040 C.3       8 GLP5        0.0000 
     67 CA         63.5715   -4.7135  -61.7897 C.3       4 GLC5        0.0000 
     68 CA         58.1860   -2.0480  -60.7500 C.3       4 GLC5        0.0000 
     69 CA         59.9490   -2.7040  -62.2110 C.3      12 GLL5        0.0000 
     70 CA         60.1348   -4.5008  -62.7092 C.3       4 GLC5        0.0000 
     71 CA         65.3658    9.7380  -57.9762 C.3       4 GLC5        0.0000 
     72 CA         66.7040   10.9030  -59.2230 C.3      12 GLL5        0.0000 
     73 CA         63.9880    8.4390  -57.4120 C.3       8 GLP5        0.0000 
     74 CA         65.9931    8.9250  -57.8008 C.3       4 GLC5        0.0000 
     75 CA         67.5740   10.3290  -57.0620 C.3      12 GLL5        0.0000 
@<TRIPOS>BOND
@<TRIPOS>SUBSTRUCTURE
     1 ALC1       18 GROUP        1 X    ALC  0     ROOT ALC X 1
     2 SEC2        4 GROUP        1 X    SEC  0     **** SEC X 2
     3 LYC4        1 GROUP        1 X    LYC  0     **** LYC X 4
     4 GLC5       12 GROUP        1 X    GLC  0     **** GLC X 6
     5 ALP1       20 GROUP        1 Y    ALP  0     ROOT ALP Y 8
     6 SEP2        6 GROUP        1 Y    SEP  0     **** SEP Y 9
     7 LYP4        3 GROUP        1 Y    LYP  0     **** LYP Y 11
     8 GLP5       14 GROUP        1 Y    GLP  0     **** GLP Y 13
     9 ALL1       19 GROUP        1 Z    ALL  0     ROOT ALL Z 15
    10 SEL2        5 GROUP        1 Z    SEL  0     **** SEL Z 16
    11 LYL4        2 GROUP        1 Z    LYL  0     **** LYL Z 18
    12 GLL5       13 GROUP        1 Z    GLL  0     **** GLL Z 20
@<TRIPOS>SET

