#    Name: 3syt_NAD_3_ligand
#    Modification time : Mon Mar 24 18:52:12 2014

@<TRIPOS>MOLECULE
3syt_NAD_3_ligand
   70    74     1     0     0
SMALL
NO_CHARGES


@<TRIPOS>ATOM
      1 PA         65.7890    2.2360  -59.9430 P.3       1 NAD680      0.0000 
      2 O1A        65.0860    3.2940  -59.1030 O.co2     1 NAD680      0.0000 
      3 O2A        66.6840    1.3100  -59.1430 O.co2     1 NAD680      0.0000 
      4 O5B        64.7510    1.3580  -60.8570 O.3       1 NAD680      0.0000 
      5 C5B        65.0770    0.3110  -61.7640 C.3       1 NAD680      0.0000 
      6 C4B        65.1300   -0.9610  -60.9340 C.3       1 NAD680      0.0000 
      7 O4B        63.8310   -1.4490  -60.5870 O.3       1 NAD680      0.0000 
      8 C3B        65.7730   -2.1070  -61.6930 C.3       1 NAD680      0.0000 
      9 O3B        66.3280   -3.0610  -60.7570 O.3       1 NAD680      0.0000 
     10 C2B        64.6030   -2.7320  -62.4130 C.3       1 NAD680      0.0000 
     11 O2B        64.9030   -4.0910  -62.7620 O.3       1 NAD680      0.0000 
     12 C1B        63.4990   -2.6340  -61.3660 C.3       1 NAD680      0.0000 
     13 N9A        62.1050   -2.5290  -61.9270 N.pl3     1 NAD680      0.0000 
     14 C8A        61.7270   -1.7780  -62.9820 C.2       1 NAD680      0.0000 
     15 N7A        60.4030   -1.8690  -63.1750 N.2       1 NAD680      0.0000 
     16 C5A        59.9490   -2.7040  -62.2110 C.ar      1 NAD680      0.0000 
     17 C6A        58.6890   -3.1820  -61.8990 C.ar      1 NAD680      0.0000 
     18 N6A        57.6680   -2.7740  -62.6960 N.pl3     1 NAD680      0.0000 
     19 N1A        58.5190   -4.0400  -60.8460 N.ar      1 NAD680      0.0000 
     20 C2A        59.5510   -4.4200  -60.0850 C.ar      1 NAD680      0.0000 
     21 N3A        60.7820   -3.9580  -60.3610 N.ar      1 NAD680      0.0000 
     22 C4A        61.0080   -3.1120  -61.4180 C.ar      1 NAD680      0.0000 
     23 O3         66.6560    2.8960  -61.1250 O.3       1 NAD680      0.0000 
     24 PN         66.0890    3.8650  -62.2770 P.3       1 NAD680      0.0000 
     25 O1N        66.3610    3.1950  -63.6210 O.co2     1 NAD680      0.0000 
     26 O2N        64.6760    4.3150  -61.9510 O.co2     1 NAD680      0.0000 
     27 O5D        67.0990    5.1140  -62.1090 O.3       1 NAD680      0.0000 
     28 C5D        67.0240    6.1580  -61.1210 C.3       1 NAD680      0.0000 
     29 C4D        67.2740    7.4450  -61.9030 C.3       1 NAD680      0.0000 
     30 O4D        66.4260    8.4740  -61.4120 O.3       1 NAD680      0.0000 
     31 C3D        68.6960    8.0070  -61.8660 C.3       1 NAD680      0.0000 
     32 O3D        69.4700    7.5940  -62.9940 O.3       1 NAD680      0.0000 
     33 C2D        68.4780    9.5060  -61.9280 C.3       1 NAD680      0.0000 
     34 O2D        68.3040    9.9270  -63.2870 O.3       1 NAD680      0.0000 
     35 C1D        67.1620    9.6830  -61.2120 C.3       1 NAD680      0.0000 
     36 N1N        67.3490    9.8690  -59.7750 N.pl3     1 NAD680      0.0000 
     37 C2N        66.7040   10.9030  -59.2230 C.ar      1 NAD680      0.0000 
     38 C3N        66.7830   11.1710  -57.8580 C.ar      1 NAD680      0.0000 
     39 C7N        66.0320   12.3740  -57.3150 C.2       1 NAD680      0.0000 
     40 O7N        65.0470   12.2320  -56.5900 O.2       1 NAD680      0.0000 
     41 N7N        66.4370   13.5900  -57.6860 N.am      1 NAD680      0.0000 
     42 C4N        67.5740   10.3290  -57.0620 C.ar      1 NAD680      0.0000 
     43 C5N        68.2310    9.2470  -57.6500 C.ar      1 NAD680      0.0000 
     44 C6N        68.0940    9.0340  -59.0230 C.ar      1 NAD680      0.0000 
     45 H          66.0464    0.4558  -62.2235 H         1 NAD680      0.0000 
     46 H          64.3223    0.1841  -62.5297 H         1 NAD680      0.0000 
     47 H          65.7179   -0.7899  -60.0453 H         1 NAD680      0.0000 
     48 H          66.4560   -1.7350  -62.3801 H         1 NAD680      0.0000 
     49 H          64.3463   -2.1207  -63.2321 H         1 NAD680      0.0000 
     50 H          63.5745   -3.5051  -60.7241 H         1 NAD680      0.0000 
     51 H          62.3393   -1.2412  -63.5294 H         1 NAD680      0.0000 
     52 H          56.7584   -3.1110  -62.4530 H         1 NAD680      0.0000 
     53 H          57.9159   -2.1726  -63.4555 H         1 NAD680      0.0000 
     54 H          59.4044   -5.0692  -59.2837 H         1 NAD680      0.0000 
     55 H          67.7898    6.0607  -60.3741 H         1 NAD680      0.0000 
     56 H          66.0501    6.2176  -60.6720 H         1 NAD680      0.0000 
     57 H          67.0246    7.2590  -62.9591 H         1 NAD680      0.0000 
     58 H          69.1307    7.7707  -60.9346 H         1 NAD680      0.0000 
     59 H          69.2280    9.9985  -61.4127 H         1 NAD680      0.0000 
     60 H          66.6436   10.5125  -61.6403 H         1 NAD680      0.0000 
     61 H          66.1178   11.5422  -59.8125 H         1 NAD680      0.0000 
     62 H          67.2363   13.6235  -58.2860 H         1 NAD680      0.0000 
     63 H          65.9048   14.3585  -57.3307 H         1 NAD680      0.0000 
     64 H          67.6663   10.5090  -56.0608 H         1 NAD680      0.0000 
     65 H          68.8036    8.6202  -57.0844 H         1 NAD680      0.0000 
     66 H          68.5783    8.2198  -59.4484 H         1 NAD680      0.0000 
     67 H          66.5003   -3.8841  -61.2981 H         1 NAD680      0.0000 
     68 H          65.6615   -4.3502  -62.1641 H         1 NAD680      0.0000 
     69 H          69.3929    8.3451  -63.6496 H         1 NAD680      0.0000 
     70 H          67.3487    9.7227  -63.5007 H         1 NAD680      0.0000 
@<TRIPOS>BOND
     1    2    1 ar   
     2    3    1 ar   
     3    4    1 1    
     4   23    1 1    
     5    5    4 1    
     6    6    5 1    
     7   45    5 1    
     8   46    5 1    
     9    7    6 1    
    10    8    6 1    
    11   47    6 1    
    12   12    7 1    
    13    9    8 1    
    14   10    8 1    
    15   48    8 1    
    16   67    9 1    
    17   11   10 1    
    18   12   10 1    
    19   49   10 1    
    20   68   11 1    
    21   13   12 1    
    22   50   12 1    
    23   14   13 1    
    24   22   13 1    
    25   15   14 2    
    26   51   14 1    
    27   16   15 1    
    28   17   16 ar   
    29   22   16 ar   
    30   18   17 1    
    31   19   17 ar   
    32   52   18 1    
    33   53   18 1    
    34   20   19 ar   
    35   21   20 ar   
    36   54   20 1    
    37   22   21 ar   
    38   24   23 1    
    39   25   24 ar   
    40   26   24 ar   
    41   27   24 1    
    42   28   27 1    
    43   29   28 1    
    44   55   28 1    
    45   56   28 1    
    46   30   29 1    
    47   31   29 1    
    48   57   29 1    
    49   35   30 1    
    50   32   31 1    
    51   33   31 1    
    52   58   31 1    
    53   69   32 1    
    54   34   33 1    
    55   35   33 1    
    56   59   33 1    
    57   70   34 1    
    58   36   35 1    
    59   60   35 1    
    60   37   36 ar   
    61   44   36 ar   
    62   38   37 ar   
    63   61   37 1    
    64   39   38 1    
    65   42   38 ar   
    66   40   39 2    
    67   41   39 am   
    68   62   41 1    
    69   63   41 1    
    70   43   42 ar   
    71   64   42 1    
    72   44   43 ar   
    73   65   43 1    
    74   66   44 1    
@<TRIPOS>SUBSTRUCTURE
     1 NAD680      1 GROUP   
@<TRIPOS>SET

