#    Name: 2p1v_5TN_1_INTS_M
#    Modification time : Mon Mar 24 18:10:10 2014

@<TRIPOS>MOLECULE
2p1v_5TN_1_INTS_M
  108     0     9     0     0
SMALL
NO_CHARGES


@<TRIPOS>ATOM
      1 CA          1.0670   18.2830   25.3490 C.3       3 GLC5        0.0000 
      2 CA          1.0580   19.1740   27.1890 C.3       9 GLL5        0.0000 
      3 CA          1.0760   17.3920   23.5090 C.3       6 GLP5        0.0000 
      4 CA          1.4735   20.1345   25.5850 C.3       3 GLC5        0.0000 
      5 CA          1.8890   21.0950   23.9810 C.3       6 GLP5        0.0000 
      6 CA          1.1670   21.8380   26.6380 C.3       3 GLC5        0.0000 
      7 CA          0.8130   20.4280   28.0430 C.3       9 GLL5        0.0000 
      8 CA          1.5210   23.2480   25.2330 C.3       6 GLP5        0.0000 
      9 CA          1.7645   20.5600   30.9630 C.3       3 GLC5        0.0000 
     10 CA          0.4080   20.0380   29.4700 C.3       9 GLL5        0.0000 
     11 CA          3.1210   21.0820   32.4560 C.3       6 GLP5        0.0000 
     12 CA         -1.4530   20.0605   28.2305 C.3       3 GLC5        0.0000 
     13 CA         -3.3140   20.0830   26.9910 C.3       6 GLP5        0.0000 
     14 CA         -1.2240   22.0595   35.0090 C.3       3 GLC5        0.0000 
     15 CA         -0.7320   20.0510   34.5160 C.3       9 GLL5        0.0000 
     16 CA         -1.7160   24.0680   35.5020 C.3       6 GLP5        0.0000 
     17 CA          1.0370   20.8305   35.0590 C.3       3 GLC5        0.0000 
     18 CA          2.8060   21.6100   35.6020 C.3       6 GLP5        0.0000 
     19 CA         -1.4425   20.3195   36.3455 C.3       3 GLC5        0.0000 
     20 CA         -2.1530   20.5880   38.1750 C.3       6 GLP5        0.0000 
     21 CA         -2.4390   21.0030   33.6770 C.3       3 GLC5        0.0000 
     22 CA         -4.1460   21.9550   32.8380 C.3       6 GLP5        0.0000 
     23 CA         -2.2730   16.6355   32.0750 C.3       3 GLC5        0.0000 
     24 CA         -2.0190   18.0790   33.6500 C.3       9 GLL5        0.0000 
     25 CA         -2.5270   15.1920   30.5000 C.3       6 GLP5        0.0000 
     26 CA         -3.5950   18.2925   32.7300 C.3       3 GLC5        0.0000 
     27 CA         -5.1710   18.5060   31.8100 C.3       6 GLP5        0.0000 
     28 CA         -3.0825   20.0170   33.2440 C.3       3 GLC5        0.0000 
     29 CA         -1.9295   18.7380   36.7045 C.3       3 GLC5        0.0000 
     30 CA         -0.5090   17.7930   35.5480 C.3       9 GLL5        0.0000 
     31 CA         -3.3500   19.6830   37.8610 C.3       6 GLP5        0.0000 
     32 CA          1.8650   19.7315   35.8265 C.3       3 GLC5        0.0000 
     33 CA          0.9240   17.8530   36.0510 C.3       9 GLL5        0.0000 
     34 CA          3.6070   15.1975   34.2325 C.3       3 GLC5        0.0000 
     35 CA          1.6240   15.6300   35.1790 C.3       9 GLL5        0.0000 
     36 CA          5.5900   14.7650   33.2860 C.3       6 GLP5        0.0000 
     37 CA         -0.3950   14.6620   35.3200 C.3       3 GLC5        0.0000 
     38 CA         -2.4140   13.6940   35.4610 C.3       6 GLP5        0.0000 
     39 CA          1.0450   15.2895   37.2845 C.3       3 GLC5        0.0000 
     40 CA          0.4660   14.9490   39.3900 C.3       6 GLP5        0.0000 
     41 CA          2.0030   13.9745   35.5330 C.3       3 GLC5        0.0000 
     42 CA          2.3820   12.3190   35.8870 C.3       6 GLP5        0.0000 
     43 CA          0.7120   15.0805   33.5965 C.3       3 GLC5        0.0000 
     44 CA         -0.2000   14.5310   32.0140 C.3       6 GLP5        0.0000 
     45 CA          3.0545   19.5205   35.5855 C.3       3 GLC5        0.0000 
     46 CA          3.3030   17.4310   35.5690 C.3       9 GLL5        0.0000 
     47 CA          4.4465   16.0980   34.4275 C.3       3 GLC5        0.0000 
     48 CA          5.0135   17.8115   35.9825 C.3       3 GLC5        0.0000 
     49 CA          6.7240   18.1920   36.3960 C.3       6 GLP5        0.0000 
     50 N           2.0725   15.6805   27.8135 N.am      1 SEC2        0.0000 
     51 N           2.1490   16.3640   28.9520 N.am      7 SEL2        0.0000 
     52 N           1.9960   14.9970   26.6750 N.am      4 SEP2        0.0000 
     53 CA          7.8090   20.6205   30.2500 C.3       3 GLC5        0.0000 
     54 CA          7.1160   18.6330   30.1700 C.3       9 GLL5        0.0000 
     55 CA          8.5020   22.6080   30.3300 C.3       6 GLP5        0.0000 
     56 CA          6.6675   19.8010   28.5010 C.3       3 GLC5        0.0000 
     57 CA          6.2190   20.9690   26.8320 C.3       6 GLP5        0.0000 
     58 CA          7.4620   19.7030   32.0295 C.3       3 GLC5        0.0000 
     59 CA          7.8080   20.7730   33.8890 C.3       6 GLP5        0.0000 
     60 CA          9.7930   18.8130   28.3135 C.3       3 GLC5        0.0000 
     61 CA          8.3630   18.1180   29.7900 C.3       9 GLL5        0.0000 
     62 CA         11.2230   19.5080   26.8370 C.3       6 GLP5        0.0000 
     63 NZ         12.0515   17.5890   29.9410 N.4       2 LYC4        0.0000 
     64 NZ         10.6030   18.0740   29.7490 N.4       8 LYL4        0.0000 
     65 NZ         13.5900   17.2640   31.4470 N.4       5 LYP4        0.0000 
     66 N          11.5710   17.8920   30.9390 N.am      1 SEC2        0.0000 
     67 N          10.6030   18.0740   29.7490 N.am      7 SEL2        0.0000 
     68 N          12.5390   17.7100   32.1290 N.am      4 SEP2        0.0000 
     69 N          12.0515   17.5890   29.9410 N.am      1 SEC2        0.0000 
     70 N          13.5000   17.1040   30.1330 N.am      4 SEP2        0.0000 
     71 N          10.9475   20.2405   31.4365 N.am      1 SEC2        0.0000 
     72 N           9.6630   19.6840   30.9020 N.am      7 SEL2        0.0000 
     73 N          12.2320   20.7970   31.9710 N.am      4 SEP2        0.0000 
     74 CA          2.8377   20.2570   27.3235 C.3       3 GLC5        0.0000 
     75 CA          4.7400   20.7130   27.0310 C.3       6 GLP5        0.0000 
     76 CA         -0.3778   20.1025   26.3605 C.3       3 GLC5        0.0000 
     77 CA         -1.6910   20.4040   25.1050 C.3       6 GLP5        0.0000 
     78 CA          0.4348   22.1270   29.0793 C.3       3 GLC5        0.0000 
     79 CA          0.2590   24.0210   29.4020 C.3       6 GLP5        0.0000 
     80 CA          1.9877   19.8188   31.9625 C.3       3 GLC5        0.0000 
     81 CA          1.3570   18.4470   30.9980 C.3       9 GLL5        0.0000 
     82 CA         -0.0732   16.7978   30.9465 C.3       3 GLC5        0.0000 
     83 CA         -1.0010   15.0400   30.4240 C.3       6 GLP5        0.0000 
     84 CA          2.0972   19.5060   32.9582 C.3       3 GLC5        0.0000 
     85 CA          0.4790   18.2480   33.2640 C.3       9 GLL5        0.0000 
     86 CA          0.4367   16.2305   32.7373 C.3       3 GLC5        0.0000 
     87 CA          1.6680   17.6120   33.6570 C.3       9 GLL5        0.0000 
     88 CA         -2.0442   16.9075   35.7260 C.3       3 GLC5        0.0000 
     89 CA         -3.1570   15.7640   36.7060 C.3       6 GLP5        0.0000 
     90 CA          2.4964   17.4806   37.4450 C.3       3 GLC5        0.0000 
     91 CA          2.6400   17.5010   39.3140 C.3       6 GLP5        0.0000 
     92 CA          2.8595   19.3390   32.2465 C.3       3 GLC5        0.0000 
     93 CA          2.6690   17.3950   32.7030 C.3       9 GLL5        0.0000 
     94 CA          1.1990   16.0635   32.0255 C.3       3 GLC5        0.0000 
     95 CA          2.5270   17.7970   31.3710 C.3       9 GLL5        0.0000 
     96 CA          3.6492   19.4900   31.5110 C.3       3 GLC5        0.0000 
     97 CA          3.5520   17.6140   30.4320 C.3       9 GLL5        0.0000 
     98 CA          5.0418   19.4162   28.6425 C.3       3 GLC5        0.0000 
     99 CA          4.8030   18.1820   30.7000 C.3       9 GLL5        0.0000 
    100 CA          3.8862   14.9052   29.3727 C.3       3 GLC5        0.0000 
    101 CA          4.4290   16.7820   28.3310 C.3       9 GLL5        0.0000 
    102 CA          3.8750   12.9650   29.9620 C.3       6 GLP5        0.0000 
    103 CA          4.8985   18.8897   27.7510 C.3       3 GLC5        0.0000 
    104 CA          6.1410   16.0763   27.3620 C.3       3 GLC5        0.0000 
    105 CA          5.6850   17.3510   28.6110 C.3       9 GLL5        0.0000 
    106 CA          7.2250   15.0860   26.2530 C.3       6 GLP5        0.0000 
    107 CA          7.5152   16.9362   30.8645 C.3       3 GLC5        0.0000 
    108 CA          7.2910   15.4970   31.7490 C.3       6 GLP5        0.0000 
@<TRIPOS>BOND
@<TRIPOS>SUBSTRUCTURE
     1 SEC2       50 GROUP        1 X    SEC  0     ROOT SEC X 2
     2 LYC4       63 GROUP        1 X    LYC  0     **** LYC X 4
     3 GLC5        1 GROUP        1 X    GLC  0     **** GLC X 6
     4 SEP2       52 GROUP        1 Y    SEP  0     ROOT SEP Y 9
     5 LYP4       65 GROUP        1 Y    LYP  0     **** LYP Y 11
     6 GLP5        3 GROUP        1 Y    GLP  0     **** GLP Y 13
     7 SEL2       51 GROUP        1 Z    SEL  0     ROOT SEL Z 16
     8 LYL4       64 GROUP        1 Z    LYL  0     **** LYL Z 18
     9 GLL5        2 GROUP        1 Z    GLL  0     **** GLL Z 20
@<TRIPOS>SET

