#    Name: 2p1v_5TN_1_ligand
#    Modification time : Mon Mar 24 18:10:10 2014

@<TRIPOS>MOLECULE
2p1v_5TN_1_ligand
   61    63     1     0     0
SMALL
NO_CHARGES


@<TRIPOS>ATOM
      1 CAA         1.0580   19.1740   27.1890 C.3       1 5TN201      0.0000 
      2 CAP         0.8130   20.4280   28.0430 C.3       1 5TN201      0.0000 
      3 CAQ         0.4080   20.0380   29.4700 C.3       1 5TN201      0.0000 
      4 OAT         1.2110   18.8500   29.7040 O.3       1 5TN201      0.0000 
      5 CAX         1.3570   18.4470   30.9980 C.ar      1 5TN201      0.0000 
      6 CAN         0.3520   18.6640   31.9400 C.ar      1 5TN201      0.0000 
      7 CBA         0.4790   18.2480   33.2640 C.ar      1 5TN201      0.0000 
      8 CBC        -0.6890   18.5390   34.2380 C.3       1 5TN201      0.0000 
      9 CAB        -0.7320   20.0510   34.5160 C.3       1 5TN201      0.0000 
     10 CAC        -2.0190   18.0790   33.6500 C.3       1 5TN201      0.0000 
     11 CAR        -0.5090   17.7930   35.5480 C.3       1 5TN201      0.0000 
     12 CAS         0.9240   17.8530   36.0510 C.3       1 5TN201      0.0000 
     13 CBD         1.8810   17.1260   35.1150 C.3       1 5TN201      0.0000 
     14 CAD         1.6240   15.6300   35.1790 C.3       1 5TN201      0.0000 
     15 CAE         3.3030   17.4310   35.5690 C.3       1 5TN201      0.0000 
     16 CBB         1.6680   17.6120   33.6570 C.ar      1 5TN201      0.0000 
     17 CAO         2.6690   17.3950   32.7030 C.ar      1 5TN201      0.0000 
     18 CAZ         2.5270   17.7970   31.3710 C.ar      1 5TN201      0.0000 
     19 CAY         3.5520   17.6140   30.4320 C.ar      1 5TN201      0.0000 
     20 CAM         4.8030   18.1820   30.7000 C.ar      1 5TN201      0.0000 
     21 CAW         3.3660   16.9090   29.2360 C.ar      1 5TN201      0.0000 
     22 OAH         2.1490   16.3640   28.9520 O.3       1 5TN201      0.0000 
     23 CAL         4.4290   16.7820   28.3310 C.ar      1 5TN201      0.0000 
     24 CAK         5.6850   17.3510   28.6110 C.ar      1 5TN201      0.0000 
     25 CAV         5.8840   18.0570   29.8080 C.ar      1 5TN201      0.0000 
     26 CAJ         7.1160   18.6330   30.1700 C.2       1 5TN201      0.0000 
     27 CAI         8.3630   18.1180   29.7900 C.2       1 5TN201      0.0000 
     28 CAU         9.5950   18.6610   30.1740 C.2       1 5TN201      0.0000 
     29 OAG        10.6030   18.0740   29.7490 O.co2     1 5TN201      0.0000 
     30 OAF         9.6630   19.6840   30.9020 O.co2     1 5TN201      0.0000 
     31 H           0.0188   21.0164   27.5928 H         1 5TN201      0.0000 
     32 H           1.7233   21.0194   28.0774 H         1 5TN201      0.0000 
     33 H          -0.6326   19.8218   29.4797 H         1 5TN201      0.0000 
     34 H           0.6726   20.8313   30.1260 H         1 5TN201      0.0000 
     35 H          -0.5193   19.1515   31.6450 H         1 5TN201      0.0000 
     36 H          -0.7978   16.7443   35.4088 H         1 5TN201      0.0000 
     37 H          -1.1742   18.2263   36.3045 H         1 5TN201      0.0000 
     38 H           0.9778   17.3972   37.0440 H         1 5TN201      0.0000 
     39 H           1.2328   18.8988   36.1384 H         1 5TN201      0.0000 
     40 H           3.5472   16.9191   32.9948 H         1 5TN201      0.0000 
     41 H           4.9404   18.7116   31.5819 H         1 5TN201      0.0000 
     42 H           4.2914   16.2669   27.4507 H         1 5TN201      0.0000 
     43 H           6.4521   17.2495   27.9416 H         1 5TN201      0.0000 
     44 H           7.0974   19.5027   30.7616 H         1 5TN201      0.0000 
     45 H           8.3733   17.2613   29.1714 H         1 5TN201      0.0000 
     46 H           1.3262   19.4077   26.2544 H         1 5TN201      0.0000 
     47 H           1.7856   18.6026   27.5685 H         1 5TN201      0.0000 
     48 H           0.2398   18.6026   27.1250 H         1 5TN201      0.0000 
     49 H           0.1192   20.3774   34.9269 H         1 5TN201      0.0000 
     50 H          -0.8745   20.5787   33.6786 H         1 5TN201      0.0000 
     51 H          -1.4719   20.2923   35.1439 H         1 5TN201      0.0000 
     52 H          -2.2260   18.5454   32.7900 H         1 5TN201      0.0000 
     53 H          -2.0209   17.0974   33.4589 H         1 5TN201      0.0000 
     54 H          -2.7816   18.2581   34.2715 H         1 5TN201      0.0000 
     55 H           2.2365   15.1217   34.5736 H         1 5TN201      0.0000 
     56 H           1.7584   15.2692   36.1019 H         1 5TN201      0.0000 
     57 H           0.6887   15.4019   34.9084 H         1 5TN201      0.0000 
     58 H           3.9823   16.9762   34.9931 H         1 5TN201      0.0000 
     59 H           3.5008   18.4107   35.5375 H         1 5TN201      0.0000 
     60 H           3.4657   17.1292   36.5084 H         1 5TN201      0.0000 
     61 H           1.5312   17.1448   28.8593 H         1 5TN201      0.0000 
@<TRIPOS>BOND
     1    2    1 1    
     2   46    1 1    
     3   47    1 1    
     4   48    1 1    
     5    3    2 1    
     6   31    2 1    
     7   32    2 1    
     8    4    3 1    
     9   33    3 1    
    10   34    3 1    
    11    5    4 1    
    12    6    5 ar   
    13   18    5 ar   
    14    7    6 ar   
    15   35    6 1    
    16    8    7 1    
    17   16    7 ar   
    18    9    8 1    
    19   10    8 1    
    20   11    8 1    
    21   49    9 1    
    22   50    9 1    
    23   51    9 1    
    24   52   10 1    
    25   53   10 1    
    26   54   10 1    
    27   12   11 1    
    28   36   11 1    
    29   37   11 1    
    30   13   12 1    
    31   38   12 1    
    32   39   12 1    
    33   14   13 1    
    34   15   13 1    
    35   16   13 1    
    36   55   14 1    
    37   56   14 1    
    38   57   14 1    
    39   58   15 1    
    40   59   15 1    
    41   60   15 1    
    42   17   16 ar   
    43   18   17 ar   
    44   40   17 1    
    45   19   18 1    
    46   20   19 ar   
    47   21   19 ar   
    48   25   20 ar   
    49   41   20 1    
    50   22   21 1    
    51   23   21 ar   
    52   61   22 1    
    53   24   23 ar   
    54   42   23 1    
    55   25   24 ar   
    56   43   24 1    
    57   26   25 1    
    58   27   26 2    
    59   44   26 1    
    60   28   27 1    
    61   45   27 1    
    62   29   28 ar   
    63   30   28 ar   
@<TRIPOS>SUBSTRUCTURE
     1 5TN201      1 GROUP   
@<TRIPOS>SET

