#    Name: 3ozj_BGV_1_INTS_M
#    Modification time : Tue Mar 25 05:42:07 2014

@<TRIPOS>MOLECULE
3ozj_BGV_1_INTS_M
   44     0     3     0     0
SMALL
NO_CHARGES


@<TRIPOS>ATOM
      1 CA         12.9865   17.8005   16.5945 C.3       1 GLC5        0.0000 
      2 CA         13.0420   16.0390   17.3800 C.3       3 GLL5        0.0000 
      3 CA         12.9310   19.5620   15.8090 C.3       2 GLP5        0.0000 
      4 CA         17.4655   16.1240   21.9540 C.3       1 GLC5        0.0000 
      5 CA         15.4340   15.4700   21.9040 C.3       3 GLL5        0.0000 
      6 CA         19.4970   16.7780   22.0040 C.3       2 GLP5        0.0000 
      7 CA         15.5915   16.3445   23.4285 C.3       1 GLC5        0.0000 
      8 CA         15.7490   17.2190   24.9530 C.3       2 GLP5        0.0000 
      9 CA         20.2785   13.3585   16.7315 C.3       1 GLC5        0.0000 
     10 CA         18.4990   13.1170   16.0970 C.3       3 GLL5        0.0000 
     11 CA         22.0580   13.6000   17.3660 C.3       2 GLP5        0.0000 
     12 CA         18.5985   13.0030   14.6070 C.3       1 GLC5        0.0000 
     13 CA         18.6980   12.8890   13.1170 C.3       2 GLP5        0.0000 
     14 CA         19.4025   11.5495   17.0070 C.3       1 GLC5        0.0000 
     15 CA         20.3060    9.9820   17.9170 C.3       2 GLP5        0.0000 
     16 CA         15.7755   10.0915   16.8445 C.3       1 GLC5        0.0000 
     17 CA         15.6190   11.7880   18.2830 C.3       3 GLL5        0.0000 
     18 CA         15.9320    8.3950   15.4060 C.3       2 GLP5        0.0000 
     19 CA         19.1265   12.5180   21.3185 C.3       1 GLC5        0.0000 
     20 CA         18.0280   13.3010   19.8720 C.3       3 GLL5        0.0000 
     21 CA         20.2250   11.7350   22.7650 C.3       2 GLP5        0.0000 
     22 CA         18.7625   15.0395   20.9380 C.3       1 GLC5        0.0000 
     23 CA         20.1440   13.7300   19.8745 C.3       1 GLC5        0.0000 
     24 CA         22.2600   14.1590   19.8770 C.3       2 GLP5        0.0000 
     25 CA         20.1455   13.7370   18.0475 C.3       1 GLC5        0.0000 
     26 CA         18.2330   13.8740   18.7290 C.3       3 GLL5        0.0000 
     27 CA         16.3570   15.3730   16.1685 C.3       1 GLC5        0.0000 
     28 CA         16.0410   13.2610   15.6990 C.3       3 GLL5        0.0000 
     29 CA         16.6730   17.4850   16.6380 C.3       2 GLP5        0.0000 
     30 CA         11.7750   16.2328   17.4815 C.3       1 GLC5        0.0000 
     31 CA         13.6460   15.0340   16.6800 C.3       3 GLL5        0.0000 
     32 CA         10.2060   16.9290   17.9330 C.3       2 GLP5        0.0000 
     33 CA         15.0085   16.5108   16.8340 C.3       1 GLC5        0.0000 
     34 CA         19.2183   11.7848   18.6088 C.3       1 GLC5        0.0000 
     35 CA         17.1370   15.6683   17.4695 C.3       1 GLC5        0.0000 
     36 CA         17.2565   12.3940   14.6905 C.3       1 GLC5        0.0000 
     37 CA         17.1310   12.9530   16.6890 C.3       3 GLL5        0.0000 
     38 CA         17.9270   11.6810   13.1870 C.3       2 GLP5        0.0000 
     39 CA         13.6501   12.5380   17.4314 C.3       1 GLC5        0.0000 
     40 CA         14.6950   13.1470   16.2630 C.3       3 GLL5        0.0000 
     41 CA         12.8360   11.1710   18.2650 C.3       2 GLP5        0.0000 
     42 CA         14.0655   12.2078   18.4434 C.3       1 GLC5        0.0000 
     43 CA         14.7780   14.0080   18.7290 C.3       3 GLL5        0.0000 
     44 CA         15.7363   15.8175   17.2975 C.3       1 GLC5        0.0000 
@<TRIPOS>BOND
@<TRIPOS>SUBSTRUCTURE
     1 GLC5        1 GROUP        1 X    GLC  0     ROOT GLC X 6
     2 GLP5        3 GROUP        1 Y    GLP  0     ROOT GLP Y 13
     3 GLL5        2 GROUP        1 Z    GLL  0     ROOT GLL Z 20
@<TRIPOS>SET

