#    Name: 3ozj_BGV_1_ligand
#    Modification time : Tue Mar 25 05:42:08 2014

@<TRIPOS>MOLECULE
3ozj_BGV_1_ligand
   40    42     1     0     0
SMALL
NO_CHARGES


@<TRIPOS>ATOM
      1 CAA        13.0420   16.0390   17.3800 C.2       1 BGV1        0.0000 
      2 CAB        15.4340   15.4700   21.9040 C.3       1 BGV1        0.0000 
      3 CAC        18.4990   13.1170   16.0970 C.3       1 BGV1        0.0000 
      4 CAD        15.6190   11.7880   18.2830 C.3       1 BGV1        0.0000 
      5 OAE        13.3210   15.0710   21.0410 O.2       1 BGV1        0.0000 
      6 OAF        16.3490   12.4080   20.9100 O.2       1 BGV1        0.0000 
      7 OAG        12.4140   15.0020   14.7100 O.2       1 BGV1        0.0000 
      8 CAH        18.0280   13.3010   19.8720 C.2       1 BGV1        0.0000 
      9 CAI        18.2330   13.8740   18.7290 C.2       1 BGV1        0.0000 
     10 CAJ        16.0410   13.2610   15.6990 C.3       1 BGV1        0.0000 
     11 OAK        14.9550   15.1080   19.6130 O.3       1 BGV1        0.0000 
     12 OAL        14.0950   13.6230   15.1190 O.3       1 BGV1        0.0000 
     13 CAM        14.4900   15.1610   20.8200 C.2       1 BGV1        0.0000 
     14 CAN        13.6460   15.0340   16.6800 C.2       1 BGV1        0.0000 
     15 CAO        16.7900   12.9760   19.9620 C.2       1 BGV1        0.0000 
     16 CAP        13.2920   14.5870   15.4350 C.2       1 BGV1        0.0000 
     17 CAQ        17.1310   12.9530   16.6890 C.3       1 BGV1        0.0000 
     18 CAR        14.6950   13.1470   16.2630 C.3       1 BGV1        0.0000 
     19 CAS        16.9690   13.8290   17.8730 C.3       1 BGV1        0.0000 
     20 CAT        14.7780   14.0080   18.7290 C.3       1 BGV1        0.0000 
     21 CAU        14.8210   14.2920   17.1850 C.3       1 BGV1        0.0000 
     22 CAV        16.0050   13.1740   18.7460 C.3       1 BGV1        0.0000 
     23 H          18.7227   13.1417   20.5638 H         1 BGV1        0.0000 
     24 H          19.0111   14.2991   18.3555 H         1 BGV1        0.0000 
     25 H          16.1501   12.5779   14.8316 H         1 BGV1        0.0000 
     26 H          16.2034   14.2849   15.3040 H         1 BGV1        0.0000 
     27 H          17.0125   11.9145   17.0117 H         1 BGV1        0.0000 
     28 H          14.4934   12.3120   16.6199 H         1 BGV1        0.0000 
     29 H          16.6642   14.7883   17.6293 H         1 BGV1        0.0000 
     30 H          13.9609   13.3797   18.9088 H         1 BGV1        0.0000 
     31 H          15.6978   14.8533   16.9249 H         1 BGV1        0.0000 
     32 H          16.3774   15.5101   21.5747 H         1 BGV1        0.0000 
     33 H          15.2345   16.3525   22.3300 H         1 BGV1        0.0000 
     34 H          15.4055   14.7816   22.6288 H         1 BGV1        0.0000 
     35 H          19.2181   12.9144   16.7617 H         1 BGV1        0.0000 
     36 H          18.6413   12.5083   15.3165 H         1 BGV1        0.0000 
     37 H          18.6540   14.0502   15.7729 H         1 BGV1        0.0000 
     38 H          16.4218   11.2228   18.0934 H         1 BGV1        0.0000 
     39 H          15.0759   11.3048   18.9697 H         1 BGV1        0.0000 
     40 H          15.0747   11.8147   17.4445 H         1 BGV1        0.0000 
@<TRIPOS>BOND
     1   14    1 2    
     2   13    2 1    
     3   32    2 1    
     4   33    2 1    
     5   34    2 1    
     6   17    3 1    
     7   35    3 1    
     8   36    3 1    
     9   37    3 1    
    10   22    4 1    
    11   38    4 1    
    12   39    4 1    
    13   40    4 1    
    14   13    5 2    
    15   15    6 2    
    16   16    7 2    
    17    9    8 2    
    18   15    8 1    
    19   23    8 1    
    20   19    9 1    
    21   24    9 1    
    22   17   10 1    
    23   18   10 1    
    24   25   10 1    
    25   26   10 1    
    26   13   11 1    
    27   20   11 1    
    28   16   12 1    
    29   18   12 1    
    30   16   14 1    
    31   21   14 1    
    32   22   15 1    
    33   19   17 1    
    34   27   17 1    
    35   21   18 1    
    36   28   18 1    
    37   22   19 1    
    38   29   19 1    
    39   21   20 1    
    40   22   20 1    
    41   30   20 1    
    42   31   21 1    
@<TRIPOS>SUBSTRUCTURE
     1 BGV1        1 GROUP   
@<TRIPOS>SET

