#    Name: 4i8z_G08_1_INTS_M
#    Modification time : Tue Mar 25 02:35:41 2014

@<TRIPOS>MOLECULE
4i8z_G08_1_INTS_M
   82     0     9     0     0
SMALL
NO_CHARGES


@<TRIPOS>ATOM
      1 CA        -20.6015    2.5310   -5.1350 C.3       3 GLC5        0.0000 
      2 CA        -18.9560    3.8420   -5.1140 C.3       9 GLL5        0.0000 
      3 CA        -22.2470    1.2200   -5.1560 C.3       6 GLP5        0.0000 
      4 N         -20.6745    3.0230   -6.8535 N.am      2 SEC2        0.0000 
      5 N         -19.2760    3.5360   -6.4770 N.am      8 SEL2        0.0000 
      6 N         -22.0730    2.5100   -7.2300 N.am      5 SEP2        0.0000 
      7 CA        -20.3605    1.8395   -6.0045 C.3       3 GLC5        0.0000 
      8 CA        -18.4740    2.4590   -6.8530 C.3       9 GLL5        0.0000 
      9 CA        -20.1090    3.2575   -7.9890 C.3       3 GLC5        0.0000 
     10 CA        -21.7440    4.0560   -9.1250 C.3       6 GLP5        0.0000 
     11 N         -20.5810    1.8610   -7.1135 N.am      2 SEC2        0.0000 
     12 N         -19.0890    1.2120   -6.9970 N.am      8 SEL2        0.0000 
     13 CA        -20.1090   -0.0705   -5.8620 C.3       3 GLC5        0.0000 
     14 CA        -18.2230    0.2170   -6.4880 C.3       9 GLL5        0.0000 
     15 CA        -21.9950   -0.3580   -5.2360 C.3       6 GLP5        0.0000 
     16 CA        -17.9635   -1.4680   -7.4050 C.3       3 GLC5        0.0000 
     17 CA        -17.7040   -3.1530   -8.3220 C.3       6 GLP5        0.0000 
     18 CA        -16.4825   -0.5190   -7.5535 C.3       3 GLC5        0.0000 
     19 CA        -14.7420   -1.2550   -8.6190 C.3       6 GLP5        0.0000 
     20 O         -20.6135    2.1925   -2.7050 O.2       1 ALC1        0.0000 
     21 O         -19.3720    1.2320   -2.1370 O.2       7 ALL1        0.0000 
     22 O         -21.8550    3.1530   -3.2730 O.2       4 ALP1        0.0000 
     23 CA        -20.7230    5.3900   -1.4385 C.3       3 GLC5        0.0000 
     24 CA        -18.9050    4.6210   -1.6990 C.3       9 GLL5        0.0000 
     25 CA        -22.5410    6.1590   -1.1780 C.3       6 GLP5        0.0000 
     26 CA        -18.6270    6.5420   -0.7835 C.3       3 GLC5        0.0000 
     27 CA        -18.3490    8.4630    0.1320 C.3       6 GLP5        0.0000 
     28 CA        -14.6175    3.5620    0.0985 C.3       3 GLC5        0.0000 
     29 CA        -16.2080    4.4590   -1.0340 C.3       9 GLL5        0.0000 
     30 CA        -13.0270    2.6650    1.2310 C.3       6 GLP5        0.0000 
     31 N         -22.5395    0.7520    0.1545 N.am      2 SEC2        0.0000 
     32 N         -21.3940    0.6420   -0.4130 N.am      8 SEL2        0.0000 
     33 N         -23.6850    0.8620    0.7220 N.am      5 SEP2        0.0000 
     34 N         -22.5560   -0.1005   -0.8670 N.am      2 SEC2        0.0000 
     35 N         -23.7180   -0.8430   -1.3210 N.am      5 SEP2        0.0000 
     36 O         -21.7125    1.3770    0.5225 O.2       1 ALC1        0.0000 
     37 O         -21.3940    0.6420   -0.4130 O.2       7 ALL1        0.0000 
     38 O         -22.0310    2.1120    1.4580 O.2       4 ALP1        0.0000 
     39 CA        -20.9360    0.0840    3.0245 C.3       3 GLC5        0.0000 
     40 CA        -19.8950   -0.1690    1.3600 C.3       9 GLL5        0.0000 
     41 CA        -21.9770    0.3370    4.6890 C.3       6 GLP5        0.0000 
     42 CA        -20.8795   -5.2740    0.7240 C.3       3 GLC5        0.0000 
     43 CA        -19.2360   -4.5130    0.8770 C.3       9 GLL5        0.0000 
     44 CA        -22.5230   -6.0350    0.5710 C.3       6 GLP5        0.0000 
     45 CA        -19.0910   -6.0715    0.0240 C.3       3 GLC5        0.0000 
     46 CA        -18.9460   -7.6300   -0.8290 C.3       6 GLP5        0.0000 
     47 CA        -15.2050   -1.9355    3.2420 C.3       3 GLC5        0.0000 
     48 CA        -16.7650   -1.4600    4.5850 C.3       9 GLL5        0.0000 
     49 CA        -13.6450   -2.4110    1.8990 C.3       6 GLP5        0.0000 
     50 CA        -15.2585   -1.3420    7.3030 C.3       3 GLC5        0.0000 
     51 CA        -16.8460   -1.8720    5.9090 C.3       9 GLL5        0.0000 
     52 CA        -13.6710   -0.8120    8.6970 C.3       6 GLP5        0.0000 
     53 CA        -16.2275    0.0495    7.3375 C.3       3 GLC5        0.0000 
     54 CA        -17.8040   -1.2440    6.6880 C.3       9 GLL5        0.0000 
     55 CA        -14.6510    1.3430    7.9870 C.3       6 GLP5        0.0000 
     56 N         -19.1940   -1.8545    9.9760 N.am      2 SEC2        0.0000 
     57 N         -18.8800   -1.4640    8.7190 N.am      8 SEL2        0.0000 
     58 N         -19.5080   -2.2450   11.2330 N.am      5 SEP2        0.0000 
     59 CA        -16.6317   -1.0063   -5.4008 C.3       3 GLC5        0.0000 
     60 CA        -17.6440    0.9740   -5.3270 C.3       9 GLL5        0.0000 
     61 CA        -15.3300   -2.6080   -4.8940 C.3       6 GLP5        0.0000 
     62 CA        -19.7096    4.6170    0.4917 C.3       3 GLC5        0.0000 
     63 CA        -18.4730    3.6290   -0.7850 C.3       9 GLL5        0.0000 
     64 CA        -20.4870    5.3580    2.0680 C.3       6 GLP5        0.0000 
     65 CA        -17.5595    7.1505   -1.6752 C.3       3 GLC5        0.0000 
     66 CA        -17.9990    5.5120   -2.2620 C.3       9 GLL5        0.0000 
     67 CA        -17.7890    8.8380   -1.2510 C.3       6 GLP5        0.0000 
     68 CA        -15.1898    5.8777   -0.9913 C.3       3 GLC5        0.0000 
     69 CA        -16.6610    5.4140   -1.9370 C.3       9 GLL5        0.0000 
     70 CA        -13.9450    6.8190   -0.4970 C.3       6 GLP5        0.0000 
     71 CA        -15.2036    3.2866   -1.7039 C.3       3 GLC5        0.0000 
     72 CA        -13.6310    2.3230   -2.4370 C.3       6 GLP5        0.0000 
     73 CA        -19.5925   -4.2321   -1.2237 C.3       3 GLC5        0.0000 
     74 CA        -18.8960   -3.0900    0.4450 C.3       9 GLL5        0.0000 
     75 CA        -20.8210   -4.9720   -2.5800 C.3       6 GLP5        0.0000 
     76 CA        -16.6631    1.1352    4.4150 C.3       3 GLC5        0.0000 
     77 CA        -18.5970    0.2030    4.8240 C.3       9 GLL5        0.0000 
     78 CA        -15.4390    2.6460    4.2450 C.3       6 GLP5        0.0000 
     79 CA        -20.1764    0.0819    5.0046 C.3       3 GLC5        0.0000 
     80 CA        -17.5900   -0.4480    4.1070 C.3       9 GLL5        0.0000 
     81 CA        -17.9344    1.2434    6.8994 C.3       3 GLC5        0.0000 
     82 CA        -17.6530    3.1140    7.7050 C.3       6 GLP5        0.0000 
@<TRIPOS>BOND
@<TRIPOS>SUBSTRUCTURE
     1 ALC1       20 GROUP        1 X    ALC  0     ROOT ALC X 1
     2 SEC2        4 GROUP        1 X    SEC  0     **** SEC X 2
     3 GLC5        1 GROUP        1 X    GLC  0     **** GLC X 6
     4 ALP1       22 GROUP        1 Y    ALP  0     ROOT ALP Y 8
     5 SEP2        6 GROUP        1 Y    SEP  0     **** SEP Y 9
     6 GLP5        3 GROUP        1 Y    GLP  0     **** GLP Y 13
     7 ALL1       21 GROUP        1 Z    ALL  0     ROOT ALL Z 15
     8 SEL2        5 GROUP        1 Z    SEL  0     **** SEL Z 16
     9 GLL5        2 GROUP        1 Z    GLL  0     **** GLL Z 20
@<TRIPOS>SET

