#    Name: 4i8z_G08_1_ligand
#    Modification time : Tue Mar 25 02:35:41 2014

@<TRIPOS>MOLECULE
4i8z_G08_1_ligand
   77    80     1     0     0
SMALL
NO_CHARGES


@<TRIPOS>ATOM
      1 O22       -17.2240    0.5750   -2.6400 O.2       1 G08101      0.0000 
      2 C21       -18.2990    1.0550   -2.9940 C.2       1 G08101      0.0000 
      3 O23       -18.6020    1.0790   -4.3500 O.3       1 G08101      0.0000 
      4 C24       -17.6440    0.9740   -5.3270 C.3       1 G08101      0.0000 
      5 C31       -17.3790    2.3080   -5.9130 C.3       1 G08101      0.0000 
      6 C30       -17.4080    3.5630   -5.1090 C.3       1 G08101      0.0000 
      7 C29       -18.9560    3.8420   -5.1140 C.3       1 G08101      0.0000 
      8 O28       -19.2760    3.5360   -6.4770 O.3       1 G08101      0.0000 
      9 C27       -18.4740    2.4590   -6.8530 C.3       1 G08101      0.0000 
     10 O26       -19.0890    1.2120   -6.9970 O.3       1 G08101      0.0000 
     11 C25       -18.2230    0.2170   -6.4880 C.3       1 G08101      0.0000 
     12 N20       -19.3720    1.2320   -2.1370 N.am      1 G08101      0.0000 
     13 C19       -19.1480    1.2430   -0.7080 C.3       1 G08101      0.0000 
     14 C32       -19.4460    2.6330   -0.1550 C.3       1 G08101      0.0000 
     15 C38       -18.4730    3.6290   -0.7850 C.ar      1 G08101      0.0000 
     16 C37       -18.9050    4.6210   -1.6990 C.ar      1 G08101      0.0000 
     17 C36       -17.9990    5.5120   -2.2620 C.ar      1 G08101      0.0000 
     18 C35       -16.6610    5.4140   -1.9370 C.ar      1 G08101      0.0000 
     19 C34       -16.2080    4.4590   -1.0340 C.ar      1 G08101      0.0000 
     20 C33       -17.1180    3.5640   -0.4560 C.ar      1 G08101      0.0000 
     21 C17       -20.1150    0.2160   -0.1090 C.3       1 G08101      0.0000 
     22 O18       -21.3940    0.6420   -0.4130 O.3       1 G08101      0.0000 
     23 C16       -19.8950   -0.1690    1.3600 C.3       1 G08101      0.0000 
     24 N11       -18.5710   -0.8420    1.4390 N.pl3     1 G08101      0.0000 
     25 C12       -18.5810   -2.2980    1.7250 C.3       1 G08101      0.0000 
     26 C13       -18.8960   -3.0900    0.4450 C.3       1 G08101      0.0000 
     27 C15       -19.2360   -4.5130    0.8770 C.3       1 G08101      0.0000 
     28 C14       -17.6620   -3.1830   -0.3960 C.3       1 G08101      0.0000 
     29 S8        -17.4060   -0.0590    2.3700 S.o2      1 G08101      0.0000 
     30 O9        -17.5300    1.3790    2.2000 O.2       1 G08101      0.0000 
     31 O10       -16.1320   -0.5190    1.9030 O.2       1 G08101      0.0000 
     32 C5        -17.5900   -0.4480    4.1070 C.ar      1 G08101      0.0000 
     33 C4        -16.7650   -1.4600    4.5850 C.ar      1 G08101      0.0000 
     34 C3        -16.8460   -1.8720    5.9090 C.ar      1 G08101      0.0000 
     35 C6        -18.5970    0.2030    4.8240 C.ar      1 G08101      0.0000 
     36 C7        -18.6580   -0.2240    6.1750 C.ar      1 G08101      0.0000 
     37 C2        -17.8040   -1.2440    6.6880 C.ar      1 G08101      0.0000 
     38 C1        -17.8740   -1.6870    8.1280 C.2       1 G08101      0.0000 
     39 O1        -18.8800   -1.4640    8.7190 O.2       1 G08101      0.0000 
     40 N1        -16.8060   -2.3630    8.8090 N.am      1 G08101      0.0000 
     41 H         -16.7466    0.5243   -5.0396 H         1 G08101      0.0000 
     42 H         -16.4696    2.2723   -6.5147 H         1 G08101      0.0000 
     43 H         -16.9324    4.3493   -5.6052 H         1 G08101      0.0000 
     44 H         -17.1091    3.3953   -4.1224 H         1 G08101      0.0000 
     45 H         -19.0927    4.8615   -4.8752 H         1 G08101      0.0000 
     46 H         -19.3981    3.1751   -4.4248 H         1 G08101      0.0000 
     47 H         -17.9698    2.7138   -7.8398 H         1 G08101      0.0000 
     48 H         -18.7450   -0.6298   -6.1214 H         1 G08101      0.0000 
     49 H         -17.4429   -0.0291   -7.1624 H         1 G08101      0.0000 
     50 H         -20.3205    1.3556   -2.4819 H         1 G08101      0.0000 
     51 H         -18.1565    0.9622   -0.4672 H         1 G08101      0.0000 
     52 H         -19.3139    2.6311    0.9168 H         1 G08101      0.0000 
     53 H         -20.4584    2.9122   -0.4065 H         1 G08101      0.0000 
     54 H         -19.9042    4.6732   -1.9417 H         1 G08101      0.0000 
     55 H         -18.3260    6.2345   -2.9128 H         1 G08101      0.0000 
     56 H         -15.9775    6.0630   -2.3723 H         1 G08101      0.0000 
     57 H         -15.2148    4.4059   -0.7892 H         1 G08101      0.0000 
     58 H         -16.7845    2.8584    0.2119 H         1 G08101      0.0000 
     59 H         -19.9160   -0.7362   -0.7134 H         1 G08101      0.0000 
     60 H         -20.6813   -0.8386    1.6647 H         1 G08101      0.0000 
     61 H         -19.9034    0.7262    1.9583 H         1 G08101      0.0000 
     62 H         -19.3391   -2.5359    2.4716 H         1 G08101      0.0000 
     63 H         -17.6089   -2.6211    2.0985 H         1 G08101      0.0000 
     64 H         -19.6877   -2.6669   -0.0656 H         1 G08101      0.0000 
     65 H         -16.0861   -1.9090    3.9494 H         1 G08101      0.0000 
     66 H         -16.2439   -2.5843    6.2786 H         1 G08101      0.0000 
     67 H         -19.1915    0.8714    4.4510 H         1 G08101      0.0000 
     68 H         -19.3429    0.2167    6.8111 H         1 G08101      0.0000 
     69 H         -15.9737   -2.5185    8.2770 H         1 G08101      0.0000 
     70 H         -16.9837   -2.6218    9.7584 H         1 G08101      0.0000 
     71 H         -18.4746   -4.9468    1.3588 H         1 G08101      0.0000 
     72 H         -20.0237   -4.5360    1.4926 H         1 G08101      0.0000 
     73 H         -19.4580   -5.0955    0.0951 H         1 G08101      0.0000 
     74 H         -17.3242   -2.2798   -0.6610 H         1 G08101      0.0000 
     75 H         -16.9175   -3.6444    0.0866 H         1 G08101      0.0000 
     76 H         -17.8253   -3.6940   -1.2399 H         1 G08101      0.0000 
     77 H         -21.4775    1.5395    0.0200 H         1 G08101      0.0000 
@<TRIPOS>BOND
     1    2    1 2    
     2    3    2 1    
     3   12    2 am   
     4    4    3 1    
     5    5    4 1    
     6   11    4 1    
     7   41    4 1    
     8    6    5 1    
     9    9    5 1    
    10   42    5 1    
    11    7    6 1    
    12   43    6 1    
    13   44    6 1    
    14    8    7 1    
    15   45    7 1    
    16   46    7 1    
    17    9    8 1    
    18   10    9 1    
    19   47    9 1    
    20   11   10 1    
    21   48   11 1    
    22   49   11 1    
    23   13   12 1    
    24   50   12 1    
    25   14   13 1    
    26   21   13 1    
    27   51   13 1    
    28   15   14 1    
    29   52   14 1    
    30   53   14 1    
    31   16   15 ar   
    32   20   15 ar   
    33   17   16 ar   
    34   54   16 1    
    35   18   17 ar   
    36   55   17 1    
    37   19   18 ar   
    38   56   18 1    
    39   20   19 ar   
    40   57   19 1    
    41   58   20 1    
    42   22   21 1    
    43   23   21 1    
    44   59   21 1    
    45   77   22 1    
    46   24   23 1    
    47   60   23 1    
    48   61   23 1    
    49   25   24 1    
    50   29   24 1    
    51   26   25 1    
    52   62   25 1    
    53   63   25 1    
    54   27   26 1    
    55   28   26 1    
    56   64   26 1    
    57   71   27 1    
    58   72   27 1    
    59   73   27 1    
    60   74   28 1    
    61   75   28 1    
    62   76   28 1    
    63   30   29 2    
    64   31   29 2    
    65   32   29 1    
    66   33   32 ar   
    67   35   32 ar   
    68   34   33 ar   
    69   65   33 1    
    70   37   34 ar   
    71   66   34 1    
    72   36   35 ar   
    73   67   35 1    
    74   37   36 ar   
    75   68   36 1    
    76   38   37 1    
    77   39   38 2    
    78   40   38 am   
    79   69   40 1    
    80   70   40 1    
@<TRIPOS>SUBSTRUCTURE
     1 G08101      1 GROUP   
@<TRIPOS>SET

