#    Name: 3PCI_1_CAVITY_N1_6.mol2
#    Modification time : Mon Mar 10 13:51:12 2014

@<TRIPOS>MOLECULE
3PCI_1_CAVITY_N1_6.mol2
   92     0     6     0     0
SMALL
NO_CHARGES


@<TRIPOS>ATOM
      1 CA         16.6625   16.0493   41.0967 C.3       5 GLY6        0.0000 
      2 CA         16.2535   15.1173   42.1986 C.3       5 GLY6        0.0000 
      3 CZ         15.9528   15.1819   40.0997 C.ar      4 PHE5        0.0000 
      4 CZ         15.5439   14.2499   41.2016 C.ar      4 PHE5        0.0000 
      5 CA         15.1350   13.3179   42.3035 C.3       5 GLY6        0.0000 
      6 O          17.2640   15.9201   45.2945 O.2       2 ALA2        0.0000 
      7 CA         16.5543   15.0527   44.2975 C.3       5 GLY6        0.0000 
      8 OG         16.0909   12.5894   40.0002 O.2       1 SER1        0.0000 
      9 CA         15.6819   11.6574   41.1021 C.3       5 GLY6        0.0000 
     10 CA         14.9723   10.7900   40.1051 C.3       5 GLY6        0.0000 
     11 OG         14.5633    9.8580   41.2070 O.2       1 SER1        0.0000 
     12 CA         10.9561   14.7653   44.0188 C.3       5 GLY6        0.0000 
     13 N          10.5472   13.8334   45.1207 N.2       2 ALA2        0.0000 
     14 NZ         10.1383   12.9014   46.2226 N.2       3 LYS4        0.0000 
     15 CZ         12.4590   12.3762   40.5140 C.ar      4 PHE5        0.0000 
     16 CZ         12.0501   11.4443   41.6159 C.ar      4 PHE5        0.0000 
     17 CA         10.4091   16.4259   45.2202 C.3       5 GLY6        0.0000 
     18 DU         10.0002   15.4939   46.3222 H         6 CUB7        0.0000 
     19 NZ          9.5913   14.5619   47.4241 N.2       3 LYS4        0.0000 
     20 CZ          9.4286   12.0340   45.2257 C.ar      4 PHE5        0.0000 
     21 CA         12.2127   13.9722   43.8143 C.3       5 GLY6        0.0000 
     22 OG         11.8038   13.0402   44.9163 O.2       1 SER1        0.0000 
     23 OG         11.3949   12.1083   46.0182 O.2       1 SER1        0.0000 
     24 CZ         11.0942   12.1728   43.9193 C.ar      4 PHE5        0.0000 
     25 CZ         10.6852   11.2409   45.0212 C.ar      4 PHE5        0.0000 
     26 CA         16.8005   13.4568   40.9971 C.3       5 GLY6        0.0000 
     27 CZ         13.1686   13.2436   41.5110 C.ar      4 PHE5        0.0000 
     28 CZ         12.7597   12.3117   42.6129 C.ar      4 PHE5        0.0000 
     29 CZ         12.3508   11.3797   43.7148 C.ar      4 PHE5        0.0000 
     30 CA          9.8621   18.0864   46.4217 C.3       5 GLY6        0.0000 
     31 O           9.4532   17.1544   47.5236 O.2       2 ALA2        0.0000 
     32 CA          9.1525   17.2190   45.4247 C.3       5 GLY6        0.0000 
     33 DU          8.7436   16.2870   46.5266 H         6 CUB7        0.0000 
     34 N          13.6022   19.2960   42.7070 N.2       2 ALA2        0.0000 
     35 CA         13.1933   18.3641   43.8089 C.3       5 GLY6        0.0000 
     36 CA         12.7844   17.4321   44.9109 C.3       5 GLY6        0.0000 
     37 DU         12.3754   16.5001   46.0128 H         6 CUB7        0.0000 
     38 OG         11.9665   15.5682   47.1147 O.2       1 SER1        0.0000 
     39 OG         11.5576   14.6362   48.2166 O.2       1 SER1        0.0000 
     40 N           9.2905   14.6265   45.3252 N.2       2 ALA2        0.0000 
     41 N           8.8816   13.6945   46.4271 N.2       2 ALA2        0.0000 
     42 CA         16.2289    9.9969   39.9006 C.3       5 GLY6        0.0000 
     43 O          16.4162   17.6452   44.3970 O.2       2 ALA2        0.0000 
     44 O          16.0073   16.7133   45.4989 O.2       2 ALA2        0.0000 
     45 O          12.4836   17.4967   42.8120 O.2       2 ALA2        0.0000 
     46 O          12.0747   16.5647   43.9139 O.2       2 ALA2        0.0000 
     47 O          11.6658   15.6327   45.0158 O.2       2 ALA2        0.0000 
     48 OG         11.2568   14.7008   46.1177 O.2       1 SER1        0.0000 
     49 OG         10.8479   13.7688   47.2196 O.2       1 SER1        0.0000 
     50 N           8.0339   15.4196   45.5296 N.2       2 ALA2        0.0000 
     51 CA         14.1245   12.5151   39.2076 C.3       5 GLY6        0.0000 
     52 CA         13.7156   11.5831   40.3096 C.3       5 GLY6        0.0000 
     53 OG         13.3067   10.6511   41.4115 O.2       1 SER1        0.0000 
     54 O          16.1155   17.7098   42.2981 O.2       2 ALA2        0.0000 
     55 O          15.7066   16.7778   43.4000 O.2       2 ALA2        0.0000 
     56 CA         15.2976   15.8459   44.5019 C.3       5 GLY6        0.0000 
     57 CA         14.8887   14.9139   45.6039 C.3       5 GLY6        0.0000 
     58 OG         15.4058   16.8424   41.3011 O.2       1 SER1        0.0000 
     59 O          14.2626    9.9226   39.1081 O.2       2 ALA2        0.0000 
     60 O          13.8537    8.9906   40.2100 O.2       2 ALA2        0.0000 
     61 CA         11.1188   17.2933   46.2172 C.3       5 GLY6        0.0000 
     62 DU         10.7099   16.3613   47.3191 H         6 CUB7        0.0000 
     63 O          10.3009   15.4293   48.4211 O.2       2 ALA2        0.0000 
     64 N          14.1492   17.6355   41.5056 N.2       2 ALA2        0.0000 
     65 N          13.7403   16.7035   42.6075 N.2       2 ALA2        0.0000 
     66 DU         13.3313   15.7716   43.7094 H         6 CUB7        0.0000 
     67 DU         12.9224   14.8396   44.8113 H         6 CUB7        0.0000 
     68 OG         12.5135   13.9076   45.9132 O.2       1 SER1        0.0000 
     69 CZ         13.0306   15.8361   41.6105 C.ar      4 PHE5        0.0000 
     70 CA         12.6217   14.9042   42.7124 C.3       5 GLY6        0.0000 
     71 DU         14.9969   15.9104   42.4030 H         6 CUB7        0.0000 
     72 CA         14.5880   14.9785   43.5050 C.3       5 GLY6        0.0000 
     73 CA         14.1791   14.0465   44.6069 C.3       5 GLY6        0.0000 
     74 OG         13.7701   13.1145   45.7088 O.2       1 SER1        0.0000 
     75 CZ         14.6962   15.9750   40.3041 C.ar      4 PHE5        0.0000 
     76 CZ         14.2872   15.0430   41.4061 C.ar      4 PHE5        0.0000 
     77 CZ         13.8783   14.1110   42.5080 C.ar      4 PHE5        0.0000 
     78 CA         13.4694   13.1791   43.6099 C.3       5 GLY6        0.0000 
     79 CZ         13.0605   12.2471   44.7118 C.ar      4 PHE5        0.0000 
     80 N          15.2678   19.4349   41.4006 N.2       2 ALA2        0.0000 
     81 N          14.8588   18.5029   42.5026 N.2       2 ALA2        0.0000 
     82 DU         14.4499   17.5709   43.6045 H         6 CUB7        0.0000 
     83 DU         14.0410   16.6390   44.7064 H         6 CUB7        0.0000 
     84 OG         13.6321   15.7070   45.8083 O.2       1 SER1        0.0000 
     85 CZ         14.8342   13.3825   40.2046 C.ar      4 PHE5        0.0000 
     86 CA         14.4253   12.4505   41.3065 C.3       5 GLY6        0.0000 
     87 CA         14.0164   11.5185   42.4085 C.3       5 GLY6        0.0000 
     88 OG         13.6074   10.5866   43.5104 O.2       1 SER1        0.0000 
     89 O          15.5685   19.3703   43.4995 O.2       2 ALA2        0.0000 
     90 O          15.1596   18.4384   44.6015 O.2       2 ALA2        0.0000 
     91 DU         14.7507   17.5064   45.7034 H         6 CUB7        0.0000 
     92 OG         13.9328   15.6425   47.9072 O.2       1 SER1        0.0000 
@<TRIPOS>BOND
@<TRIPOS>SUBSTRUCTURE
     1 SER1        8 GROUP   
     2 ALA2        6 GROUP   
     3 LYS4       14 GROUP   
     4 PHE5        3 GROUP   
     5 GLY6        1 GROUP   
     6 CUB7       18 GROUP   
@<TRIPOS>SET

