#    Name: 3pci_IHB_1_ligand
#    Modification time : Tue Mar 25 06:15:12 2014

@<TRIPOS>MOLECULE
3pci_IHB_1_ligand
   14    14     1     0     0
SMALL
NO_CHARGES


@<TRIPOS>ATOM
      1 C1         13.8530   12.3570   42.7730 C.ar      1 IHB550      0.0000 
      2 C2         14.4170   11.8550   41.5910 C.ar      1 IHB550      0.0000 
      3 C3         14.4310   10.4840   41.3710 C.ar      1 IHB550      0.0000 
      4 I3         15.2990    9.7890   39.7010 I         1 IHB550      0.0000 
      5 C4         13.9520    9.6020   42.3250 C.ar      1 IHB550      0.0000 
      6 O4         14.0060    8.2680   42.1150 O.3       1 IHB550      0.0000 
      7 C5         13.3600   10.0910   43.4980 C.ar      1 IHB550      0.0000 
      8 C6         13.3210   11.4600   43.7290 C.ar      1 IHB550      0.0000 
      9 C7         13.8540   13.8840   43.0360 C.2       1 IHB550      0.0000 
     10 O1         14.4120   14.6560   42.2720 O.co2     1 IHB550      0.0000 
     11 O2         13.2750   14.2580   44.0820 O.co2     1 IHB550      0.0000 
     12 H          14.8127   12.4979   40.9015 H         1 IHB550      0.0000 
     13 H          12.9599    9.4373   44.1775 H         1 IHB550      0.0000 
     14 H          12.9082   11.8327   44.5906 H         1 IHB550      0.0000 
@<TRIPOS>BOND
     1    2    1 ar   
     2    8    1 ar   
     3    9    1 1    
     4    3    2 ar   
     5   12    2 1    
     6    4    3 1    
     7    5    3 ar   
     8    6    5 1    
     9    7    5 ar   
    10    8    7 ar   
    11   13    7 1    
    12   14    8 1    
    13   10    9 ar   
    14   11    9 ar   
@<TRIPOS>SUBSTRUCTURE
     1 IHB550      1 GROUP   
@<TRIPOS>SET

