#    Name: 3eah_327_2_INTS_M
#    Modification time : Tue Mar 25 01:20:31 2014

@<TRIPOS>MOLECULE
3eah_327_2_INTS_M
   31     0     6     0     0
SMALL
NO_CHARGES


@<TRIPOS>ATOM
      1 CA         24.7275   11.1530   21.9215 C.3       2 GLC5        0.0000 
      2 CA         22.7620   11.9870   21.7170 C.3       6 GLL5        0.0000 
      3 CA         26.6930   10.3190   22.1260 C.3       4 GLP5        0.0000 
      4 O          23.0860   15.1375   24.9375 O.2       1 ALC1        0.0000 
      5 O          23.2650   14.2290   23.9340 O.2       5 ALL1        0.0000 
      6 O          22.9070   16.0460   25.9410 O.2       3 ALP1        0.0000 
      7 O          20.3540   15.5820   21.9900 O.2       1 ALC1        0.0000 
      8 O          21.1640   14.9360   23.2710 O.2       5 ALL1        0.0000 
      9 O          19.5440   16.2280   20.7090 O.2       3 ALP1        0.0000 
     10 O          22.0355   15.4910   24.6060 O.2       1 ALC1        0.0000 
     11 O          21.0910   15.9180   24.2250 O.2       1 ALC1        0.0000 
     12 O          21.0180   16.9000   25.1790 O.2       3 ALP1        0.0000 
     13 CA         20.5515   15.3445   19.5020 C.3       2 GLC5        0.0000 
     14 CA         21.2590   13.6380   20.4970 C.3       6 GLL5        0.0000 
     15 CA         19.8440   17.0510   18.5070 C.3       4 GLP5        0.0000 
     16 CA         25.4400   11.4452   22.9778 C.3       2 GLC5        0.0000 
     17 CA         23.9020   11.8430   23.9660 C.3       6 GLL5        0.0000 
     18 CA         23.2127   14.9905   21.3223 C.3       2 GLC5        0.0000 
     19 CA         22.1640   13.1920   21.8950 C.3       6 GLL5        0.0000 
     20 CA         24.2480   16.3200   20.1640 C.3       4 GLP5        0.0000 
     21 CA         26.3735   12.1283   23.1345 C.3       2 GLC5        0.0000 
     22 CA         26.5340   14.2930   23.6300 C.3       6 GLL5        0.0000 
     23 CA         28.7810   14.3007   22.8265 C.3       2 GLC5        0.0000 
     24 CA         30.5500   13.8020   21.7110 C.3       4 GLP5        0.0000 
     25 CA         22.3167   14.6630   19.6450 C.3       2 GLC5        0.0000 
     26 CA         23.1310   16.4200   19.1800 C.3       4 GLP5        0.0000 
     27 CA         20.8597   13.2730   18.5160 C.3       2 GLC5        0.0000 
     28 CA         20.2170   13.6400   16.9220 C.3       4 GLP5        0.0000 
     29 CA         22.8155   11.8148   18.2843 C.3       2 GLC5        0.0000 
     30 CA         21.7460   12.1740   19.7230 C.3       6 GLL5        0.0000 
     31 CA         23.5020   11.8380   16.4840 C.3       4 GLP5        0.0000 
@<TRIPOS>BOND
@<TRIPOS>SUBSTRUCTURE
     1 ALC1        4 GROUP        1 X    ALC  0     ROOT ALC X 1
     2 GLC5        1 GROUP        1 X    GLC  0     **** GLC X 6
     3 ALP1        6 GROUP        1 Y    ALP  0     ROOT ALP Y 8
     4 GLP5        3 GROUP        1 Y    GLP  0     **** GLP Y 13
     5 ALL1        5 GROUP        1 Z    ALL  0     ROOT ALL Z 15
     6 GLL5        2 GROUP        1 Z    GLL  0     **** GLL Z 20
@<TRIPOS>SET

