#    Name: 3eah_327_2_ligand
#    Modification time : Tue Mar 25 01:20:31 2014

@<TRIPOS>MOLECULE
3eah_327_2_ligand
   29    30     1     0     0
SMALL
NO_CHARGES


@<TRIPOS>ATOM
      1 C1         24.4720   13.3000   23.6930 C.3       1 3271864     0.0000 
      2 C2         22.1910   14.1300   23.0660 C.2       1 3271864     0.0000 
      3 C3         22.7620   11.9870   21.7170 C.2       1 3271864     0.0000 
      4 C7         23.9020   11.8430   23.9660 C.3       1 3271864     0.0000 
      5 C8         25.5740   13.5820   24.6560 C.3       1 3271864     0.0000 
      6 C9         26.5340   14.2930   23.6300 C.3       1 3271864     0.0000 
      7 C10        27.4900   15.3060   24.2540 C.3       1 3271864     0.0000 
      8 N1         23.2650   14.2290   23.9340 N.pl3     1 3271864     0.0000 
      9 N2         21.1640   14.9360   23.2710 N.pl3     1 3271864     0.0000 
     10 C4         22.1640   13.1920   21.8950 C.2       1 3271864     0.0000 
     11 S1         21.2590   13.6380   20.4970 S.3       1 3271864     0.0000 
     12 C5         21.7460   12.1740   19.7230 C.2       1 3271864     0.0000 
     13 C6         22.5120   11.4090   20.4460 C.2       1 3271864     0.0000 
     14 O1         23.5840   11.3070   22.6350 O.3       1 3271864     0.0000 
     15 H          24.7681   13.3486   22.6970 H         1 3271864     0.0000 
     16 H          23.0334   11.9510   24.5734 H         1 3271864     0.0000 
     17 H          24.6715   11.2869   24.4494 H         1 3271864     0.0000 
     18 H          26.0318   12.7132   24.9792 H         1 3271864     0.0000 
     19 H          25.2915   14.2753   25.3689 H         1 3271864     0.0000 
     20 H          25.9079   14.7916   22.8752 H         1 3271864     0.0000 
     21 H          27.1097   13.5113   23.1124 H         1 3271864     0.0000 
     22 H          23.3262   14.8499   24.7030 H         1 3271864     0.0000 
     23 H          20.3944   14.8372   22.6402 H         1 3271864     0.0000 
     24 H          21.2497   15.5715   24.0383 H         1 3271864     0.0000 
     25 H          21.3739   12.1195   18.8340 H         1 3271864     0.0000 
     26 H          22.8971   10.5398   20.2033 H         1 3271864     0.0000 
     27 H          28.0885   14.8820   24.9337 H         1 3271864     0.0000 
     28 H          28.0805   15.7309   23.5679 H         1 3271864     0.0000 
     29 H          26.9989   16.0445   24.7159 H         1 3271864     0.0000 
@<TRIPOS>BOND
     1    4    1 1    
     2    5    1 1    
     3    8    1 1    
     4   15    1 1    
     5    8    2 1    
     6    9    2 2    
     7   10    2 1    
     8   10    3 2    
     9   13    3 1    
    10   14    3 1    
    11   14    4 1    
    12   16    4 1    
    13   17    4 1    
    14    6    5 1    
    15   18    5 1    
    16   19    5 1    
    17    7    6 1    
    18   20    6 1    
    19   21    6 1    
    20   27    7 1    
    21   28    7 1    
    22   29    7 1    
    23   22    8 1    
    24   23    9 1    
    25   24    9 1    
    26   11   10 1    
    27   12   11 1    
    28   13   12 2    
    29   25   12 1    
    30   26   13 1    
@<TRIPOS>SUBSTRUCTURE
     1 3271864     1 GROUP   
@<TRIPOS>SET

