#    Name: 4hxy_NDP_2_INTS_M
#    Modification time : Tue Mar 25 01:57:46 2014

@<TRIPOS>MOLECULE
4hxy_NDP_2_INTS_M
  113     0    12     0     0
SMALL
NO_CHARGES


@<TRIPOS>ATOM
      1 N           7.8100   50.1625   20.0935 N.am      2 SEC2        0.0000 
      2 N           7.3250   51.4560   20.5350 N.am     10 SEL2        0.0000 
      3 N           8.2950   48.8690   19.6520 N.am      6 SEP2        0.0000 
      4 CA          6.3390   50.2885   26.7575 C.3       4 GLC5        0.0000 
      5 CA          5.6570   50.4980   24.6680 C.3      12 GLL5        0.0000 
      6 CA          7.0210   50.0790   28.8470 C.3       8 GLP5        0.0000 
      7 N           6.0555   51.5975   27.1960 N.am      2 SEC2        0.0000 
      8 N           5.1990   50.7520   25.9910 N.am     10 SEL2        0.0000 
      9 N           6.9120   52.4430   28.4010 N.am      6 SEP2        0.0000 
     10 CA          4.8795   48.9130   26.1575 C.3       4 GLC5        0.0000 
     11 CA          3.8200   50.5050   26.0830 C.3      12 GLL5        0.0000 
     12 CA          5.9390   47.3210   26.2320 C.3       8 GLP5        0.0000 
     13 CA          5.4205   50.2920   27.4650 C.3       4 GLC5        0.0000 
     14 CA          2.5555   50.3515   31.7480 C.3       4 GLC5        0.0000 
     15 CA          1.5500   51.1090   30.3460 C.3      12 GLL5        0.0000 
     16 CA          3.5610   49.5940   33.1500 C.3       8 GLP5        0.0000 
     17 O           0.1295   51.4475   32.3205 O.2       1 ALC1        0.0000 
     18 O           1.0350   51.9700   31.2310 O.2       9 ALL1        0.0000 
     19 O          -0.7760   50.9250   33.4100 O.2       5 ALP1        0.0000 
     20 N           1.0335   49.0250   31.7805 N.am      2 SEC2        0.0000 
     21 N           1.3360   49.7520   30.5240 N.am     10 SEL2        0.0000 
     22 N           0.7310   48.2980   33.0370 N.am      6 SEP2        0.0000 
     23 CA          2.0630   46.9805   30.0685 C.3       4 GLC5        0.0000 
     24 CA          1.7670   48.8260   29.6110 C.3      12 GLL5        0.0000 
     25 CA          2.3590   45.1350   30.5260 C.3       8 GLP5        0.0000 
     26 CA          1.4170   47.6510   28.1890 C.3       4 GLC5        0.0000 
     27 CA          1.0670   46.4760   26.7670 C.3       8 GLP5        0.0000 
     28 CA          0.0035   49.6120   29.1370 C.3       4 GLC5        0.0000 
     29 CA         -1.7600   50.3980   28.6630 C.3       8 GLP5        0.0000 
     30 CA          0.0990   48.6340   30.9480 C.3       4 GLC5        0.0000 
     31 CA         -1.5690   48.4420   32.2850 C.3       8 GLP5        0.0000 
     32 CA          2.4860   48.4640   31.3905 C.3       4 GLC5        0.0000 
     33 CA          3.2050   48.1020   33.1700 C.3       8 GLP5        0.0000 
     34 CA          3.8720   49.2345   29.7430 C.3       4 GLC5        0.0000 
     35 CA          5.9770   49.6430   29.8750 C.3       8 GLP5        0.0000 
     36 CA          0.4470   50.4805   28.4790 C.3       4 GLC5        0.0000 
     37 CA          2.6540   50.5630   28.2950 C.3      12 GLL5        0.0000 
     38 N          10.6095   49.4485   21.0725 N.am      2 SEC2        0.0000 
     39 N          10.0840   50.6130   21.6820 N.am     10 SEL2        0.0000 
     40 N          11.1350   48.2840   20.4630 N.am      6 SEP2        0.0000 
     41 N          10.5320   53.8135   20.3030 N.am      2 SEC2        0.0000 
     42 N          11.0950   52.8680   21.1720 N.am     10 SEL2        0.0000 
     43 N           9.9690   54.7590   19.4340 N.am      6 SEP2        0.0000 
     44 CA         11.8840   49.7365   23.2605 C.3       4 GLC5        0.0000 
     45 CA         10.8200   50.9940   24.4300 C.3      12 GLL5        0.0000 
     46 CA         12.9480   48.4790   22.0910 C.3       8 GLP5        0.0000 
     47 CA         12.9990   50.4835   26.8850 C.3       4 GLC5        0.0000 
     48 CA         11.5550   51.4640   25.6740 C.3      12 GLL5        0.0000 
     49 CA         14.4430   49.5030   28.0960 C.3       8 GLP5        0.0000 
     50 N          11.5250   53.2500   28.7960 N.am      2 SEC2        0.0000 
     51 N          10.9340   52.6030   27.7070 N.am     10 SEL2        0.0000 
     52 N          12.1160   53.8970   29.8850 N.am      6 SEP2        0.0000 
     53 O           9.9990   51.4015   27.3795 O.2       1 ALC1        0.0000 
     54 O          10.9340   52.6030   27.7070 O.2       9 ALL1        0.0000 
     55 O           9.0640   50.2000   27.0520 O.2       5 ALP1        0.0000 
     56 N          12.1205   54.3710   28.3925 N.am      2 SEC2        0.0000 
     57 N          12.1250   54.8450   26.9000 N.am     10 SEL2        0.0000 
     58 O          12.7845   55.9795   26.4920 O.2       1 ALC1        0.0000 
     59 O          12.1250   54.8450   26.9000 O.2       9 ALL1        0.0000 
     60 O          13.4440   57.1140   26.0840 O.2       5 ALP1        0.0000 
     61 CA         13.9610   51.6400   24.1585 C.3       4 GLC5        0.0000 
     62 CA         13.3000   52.9970   25.7730 C.3      12 GLL5        0.0000 
     63 CA         14.6220   50.2830   22.5440 C.3       8 GLP5        0.0000 
     64 CA         13.8715   51.2500   26.9345 C.3       4 GLC5        0.0000 
     65 CA         12.2725   54.9520   23.6565 C.3       4 GLC5        0.0000 
     66 CA         14.0330   53.6040   23.5030 C.3      12 GLL5        0.0000 
     67 CA         10.5120   56.3000   23.8100 C.3       8 GLP5        0.0000 
     68 N          16.7915   54.4230   19.7445 N.am      2 SEC2        0.0000 
     69 N          15.6590   54.8440   20.4490 N.am     10 SEL2        0.0000 
     70 N          17.9240   54.0020   19.0400 N.am      6 SEP2        0.0000 
     71 CA         17.4780   55.4185   21.5970 C.3       4 GLC5        0.0000 
     72 CA         16.1780   54.8250   23.1500 C.3      12 GLL5        0.0000 
     73 CA         18.7780   56.0120   20.0440 C.3       8 GLP5        0.0000 
     74 N          -1.3160   48.7380   24.3325 N.am      2 SEC2        0.0000 
     75 N          -0.1900   49.5680   23.9330 N.am     10 SEL2        0.0000 
     76 N          -2.4420   47.9080   24.7320 N.am      6 SEP2        0.0000 
     77 N          -0.5555   50.0560   22.5845 N.am      2 SEC2        0.0000 
     78 N          -0.9210   50.5440   21.2360 N.am      6 SEP2        0.0000 
     79 NZ          0.2595   53.0615   25.3690 N.4       3 LYC4        0.0000 
     80 NZ          0.3230   52.0520   24.3360 N.4      11 LYL4        0.0000 
     81 NZ         -0.5550   53.7040   27.4260 N.4       7 LYP4        0.0000 
     82 N           0.2595   53.0615   25.3690 N.am      2 SEC2        0.0000 
     83 N           0.3230   52.0520   24.3360 N.am     10 SEL2        0.0000 
     84 N           0.1960   54.0710   26.4020 N.am      6 SEP2        0.0000 
     85 NZ         -0.1385   51.4300   26.9010 N.4       3 LYC4        0.0000 
     86 NZ          0.5110   50.4430   26.1610 N.4      11 LYL4        0.0000 
     87 N          -0.1245   49.2530   26.5445 N.am      2 SEC2        0.0000 
     88 N           0.5110   50.4430   26.1610 N.am     10 SEL2        0.0000 
     89 N          -0.7600   48.0630   26.9280 N.am      6 SEP2        0.0000 
     90 N          -0.1385   51.4300   26.9010 N.am      2 SEC2        0.0000 
     91 N          -0.7880   52.4170   27.6410 N.am      6 SEP2        0.0000 
     92 CA          5.4887   48.8917   25.2385 C.3       4 GLC5        0.0000 
     93 CA          4.4200   50.4270   23.8220 C.3      12 GLL5        0.0000 
     94 CA          5.6798   49.3412   22.5815 C.3       4 GLC5        0.0000 
     95 CA          6.3210   48.2200   20.9180 C.3       8 GLP5        0.0000 
     96 CA          0.1410   51.6060   29.2510 C.3       4 GLC5        0.0000 
     97 CA          2.2140   51.5210   29.1920 C.3      12 GLL5        0.0000 
     98 CA         -1.6000   51.8970   28.7330 C.3       8 GLP5        0.0000 
     99 CA          4.2055   50.3425   29.3092 C.3       4 GLC5        0.0000 
    100 CA          3.1110   52.2925   30.6970 C.3       4 GLC5        0.0000 
    101 CA          4.3400   53.2700   31.6250 C.3       8 GLP5        0.0000 
    102 CA         10.8818   49.4705   25.8190 C.3       4 GLC5        0.0000 
    103 CA         10.5760   47.7120   26.5860 C.3       8 GLP5        0.0000 
    104 CA         10.3508   54.4903   25.4937 C.3       4 GLC5        0.0000 
    105 CA         11.0060   52.7470   26.2920 C.3      12 GLL5        0.0000 
    106 CA          9.1910   55.7020   24.8840 C.3       8 GLP5        0.0000 
    107 CA         14.5343   52.1238   22.8133 C.3       4 GLC5        0.0000 
    108 CA         16.3058   55.7020   26.4088 C.3       4 GLC5        0.0000 
    109 CA         16.3570   54.7160   24.6170 C.3      12 GLL5        0.0000 
    110 CA         16.7250   57.0030   27.8210 C.3       8 GLP5        0.0000 
    111 CA         17.4894   53.5491   24.8379 C.3       4 GLC5        0.0000 
    112 CA         15.4160   54.0860   25.3760 C.3      12 GLL5        0.0000 
    113 CA         19.1370   52.6700   25.0460 C.3       8 GLP5        0.0000 
@<TRIPOS>BOND
@<TRIPOS>SUBSTRUCTURE
     1 ALC1       17 GROUP        1 X    ALC  0     ROOT ALC X 1
     2 SEC2        1 GROUP        1 X    SEC  0     **** SEC X 2
     3 LYC4       79 GROUP        1 X    LYC  0     **** LYC X 4
     4 GLC5        4 GROUP        1 X    GLC  0     **** GLC X 6
     5 ALP1       19 GROUP        1 Y    ALP  0     ROOT ALP Y 8
     6 SEP2        3 GROUP        1 Y    SEP  0     **** SEP Y 9
     7 LYP4       81 GROUP        1 Y    LYP  0     **** LYP Y 11
     8 GLP5        6 GROUP        1 Y    GLP  0     **** GLP Y 13
     9 ALL1       18 GROUP        1 Z    ALL  0     ROOT ALL Z 15
    10 SEL2        2 GROUP        1 Z    SEL  0     **** SEL Z 16
    11 LYL4       80 GROUP        1 Z    LYL  0     **** LYL Z 18
    12 GLL5        5 GROUP        1 Z    GLL  0     **** GLL Z 20
@<TRIPOS>SET

