#    Name: 4hxy_NDP_2_ligand
#    Modification time : Tue Mar 25 01:57:46 2014

@<TRIPOS>MOLECULE
4hxy_NDP_2_ligand
   74    78     1     0     0
SMALL
NO_CHARGES


@<TRIPOS>ATOM
      1 PA          7.3820   52.1640   21.8330 P.3       1 NDP501      0.0000 
      2 O1A         6.4100   53.3250   21.9710 O.co2     1 NDP501      0.0000 
      3 O2A         7.3250   51.4560   20.5350 O.co2     1 NDP501      0.0000 
      4 O5B         7.1340   51.0800   22.9760 O.3       1 NDP501      0.0000 
      5 C5B         6.6990   51.4970   24.2610 C.3       1 NDP501      0.0000 
      6 C4B         5.6570   50.4980   24.6680 C.3       1 NDP501      0.0000 
      7 O4B         5.1990   50.7520   25.9910 O.3       1 NDP501      0.0000 
      8 C3B         4.4200   50.4270   23.8220 C.3       1 NDP501      0.0000 
      9 O3B         4.2120   49.0260   23.6170 O.3       1 NDP501      0.0000 
     10 C2B         3.2910   50.9250   24.7050 C.3       1 NDP501      0.0000 
     11 O2B         2.1460   50.2450   24.2390 O.3       1 NDP501      0.0000 
     12 C1B         3.8200   50.5050   26.0830 C.3       1 NDP501      0.0000 
     13 N9A         3.2530   51.2070   27.2540 N.pl3     1 NDP501      0.0000 
     14 C8A         3.2120   52.5540   27.5270 C.2       1 NDP501      0.0000 
     15 N7A         2.5680   52.7350   28.7010 N.2       1 NDP501      0.0000 
     16 C5A         2.2140   51.5210   29.1920 C.ar      1 NDP501      0.0000 
     17 C6A         1.5500   51.1090   30.3460 C.ar      1 NDP501      0.0000 
     18 N6A         1.0350   51.9700   31.2310 N.pl3     1 NDP501      0.0000 
     19 N1A         1.3360   49.7520   30.5240 N.ar      1 NDP501      0.0000 
     20 C2A         1.7670   48.8260   29.6110 C.ar      1 NDP501      0.0000 
     21 N3A         2.4440   49.2180   28.4900 N.ar      1 NDP501      0.0000 
     22 C4A         2.6540   50.5630   28.2950 C.ar      1 NDP501      0.0000 
     23 O3          8.8350   52.7620   22.2510 O.3       1 NDP501      0.0000 
     24 PN         10.2540   52.0180   22.0270 P.3       1 NDP501      0.0000 
     25 O1N        10.0840   50.6130   21.6820 O.co2     1 NDP501      0.0000 
     26 O2N        11.0950   52.8680   21.1720 O.co2     1 NDP501      0.0000 
     27 O5D        10.7900   52.0920   23.5370 O.3       1 NDP501      0.0000 
     28 C5D        10.8200   50.9940   24.4300 C.3       1 NDP501      0.0000 
     29 C4D        11.5550   51.4640   25.6740 C.3       1 NDP501      0.0000 
     30 O4D        12.8940   51.7340   25.3030 O.3       1 NDP501      0.0000 
     31 C3D        11.0060   52.7470   26.2920 C.3       1 NDP501      0.0000 
     32 O3D        10.9340   52.6030   27.7070 O.3       1 NDP501      0.0000 
     33 C2D        12.0150   53.8100   25.9150 C.3       1 NDP501      0.0000 
     34 O2D        12.1250   54.8450   26.9000 O.3       1 NDP501      0.0000 
     35 C1D        13.3000   52.9970   25.7730 C.3       1 NDP501      0.0000 
     36 N1N        14.2850   53.5520   24.8310 N.pl3     1 NDP501      0.0000 
     37 C2N        14.0330   53.6040   23.5030 C.2       1 NDP501      0.0000 
     38 C3N        14.8600   54.3250   22.6620 C.2       1 NDP501      0.0000 
     39 C7N        14.6470   54.3120   21.1990 C.2       1 NDP501      0.0000 
     40 O7N        15.6590   54.8440   20.4490 O.2       1 NDP501      0.0000 
     41 N7N        13.5640   53.8440   20.6320 N.am      1 NDP501      0.0000 
     42 C4N        16.1780   54.8250   23.1500 C.3       1 NDP501      0.0000 
     43 C5N        16.3570   54.7160   24.6170 C.2       1 NDP501      0.0000 
     44 C6N        15.4160   54.0860   25.3760 C.2       1 NDP501      0.0000 
     45 P2B         0.6240   50.5990   24.6980 P.3       1 NDP501      0.0000 
     46 O1X        -0.1900   49.5680   23.9330 O.co2     1 NDP501      0.0000 
     47 O2X         0.3230   52.0520   24.3360 O.co2     1 NDP501      0.0000 
     48 O3X         0.5110   50.4430   26.1610 O.co2     1 NDP501      0.0000 
     49 H           6.2471   52.4799   24.2372 H         1 NDP501      0.0000 
     50 H           7.5011   51.4774   24.9870 H         1 NDP501      0.0000 
     51 H           6.1163   49.4882   24.6566 H         1 NDP501      0.0000 
     52 H           4.5106   50.9740   22.9747 H         1 NDP501      0.0000 
     53 H           3.2693   51.9619   24.6323 H         1 NDP501      0.0000 
     54 H           3.6556   49.4292   26.1690 H         1 NDP501      0.0000 
     55 H           3.5835   53.2414   26.9672 H         1 NDP501      0.0000 
     56 H           0.5493   51.5663   32.0063 H         1 NDP501      0.0000 
     57 H           1.1819   52.9401   31.0379 H         1 NDP501      0.0000 
     58 H           1.5769   47.8169   29.7733 H         1 NDP501      0.0000 
     59 H          11.3599   50.1450   24.0208 H         1 NDP501      0.0000 
     60 H           9.8244   50.6773   24.7270 H         1 NDP501      0.0000 
     61 H          11.5249   50.6836   26.4173 H         1 NDP501      0.0000 
     62 H          10.0809   52.9692   25.8377 H         1 NDP501      0.0000 
     63 H          11.7585   54.1732   24.9399 H         1 NDP501      0.0000 
     64 H          13.7373   52.8975   26.7592 H         1 NDP501      0.0000 
     65 H          13.2167   53.1038   23.0999 H         1 NDP501      0.0000 
     66 H          13.5437   53.8710   19.6326 H         1 NDP501      0.0000 
     67 H          12.8562   53.5023   21.2502 H         1 NDP501      0.0000 
     68 H          16.2998   55.8855   22.8411 H         1 NDP501      0.0000 
     69 H          16.9898   54.2662   22.6366 H         1 NDP501      0.0000 
     70 H          17.2027   55.1296   25.0092 H         1 NDP501      0.0000 
     71 H          15.5661   54.0090   26.4138 H         1 NDP501      0.0000 
     72 H           3.2798   48.8536   23.9353 H         1 NDP501      0.0000 
     73 H          10.7676   51.6288   27.8597 H         1 NDP501      0.0000 
     74 H          12.6413   55.5748   26.4519 H         1 NDP501      0.0000 
@<TRIPOS>BOND
     1    2    1 ar   
     2    3    1 ar   
     3    4    1 1    
     4   23    1 1    
     5    5    4 1    
     6    6    5 1    
     7   49    5 1    
     8   50    5 1    
     9    7    6 1    
    10    8    6 1    
    11   51    6 1    
    12   12    7 1    
    13    9    8 1    
    14   10    8 1    
    15   52    8 1    
    16   72    9 1    
    17   11   10 1    
    18   12   10 1    
    19   53   10 1    
    20   45   11 1    
    21   13   12 1    
    22   54   12 1    
    23   14   13 1    
    24   22   13 1    
    25   15   14 2    
    26   55   14 1    
    27   16   15 1    
    28   17   16 ar   
    29   22   16 ar   
    30   18   17 1    
    31   19   17 ar   
    32   56   18 1    
    33   57   18 1    
    34   20   19 ar   
    35   21   20 ar   
    36   58   20 1    
    37   22   21 ar   
    38   24   23 1    
    39   25   24 ar   
    40   26   24 ar   
    41   27   24 1    
    42   28   27 1    
    43   29   28 1    
    44   59   28 1    
    45   60   28 1    
    46   30   29 1    
    47   31   29 1    
    48   61   29 1    
    49   35   30 1    
    50   32   31 1    
    51   33   31 1    
    52   62   31 1    
    53   73   32 1    
    54   34   33 1    
    55   35   33 1    
    56   63   33 1    
    57   74   34 1    
    58   36   35 1    
    59   64   35 1    
    60   37   36 1    
    61   44   36 1    
    62   38   37 2    
    63   65   37 1    
    64   39   38 1    
    65   42   38 1    
    66   40   39 2    
    67   41   39 am   
    68   66   41 1    
    69   67   41 1    
    70   43   42 1    
    71   68   42 1    
    72   69   42 1    
    73   44   43 2    
    74   70   43 1    
    75   71   44 1    
    76   46   45 ar   
    77   47   45 ar   
    78   48   45 ar   
@<TRIPOS>SUBSTRUCTURE
     1 NDP501      1 GROUP   
@<TRIPOS>SET

