#    Name: 4h97_53S_1_INTS_M
#    Modification time : Tue Mar 25 00:43:35 2014

@<TRIPOS>MOLECULE
4h97_53S_1_INTS_M
   68     0     9     0     0
SMALL
NO_CHARGES


@<TRIPOS>ATOM
      1 CA          8.2545   46.6275   -6.9785 C.3       3 GLC5        0.0000 
      2 CA          9.3340   48.1360   -6.5050 C.3       9 GLL5        0.0000 
      3 CA          7.1750   45.1190   -7.4520 C.3       6 GLP5        0.0000 
      4 CA         17.2410   47.8705    1.0305 C.3       3 GLC5        0.0000 
      5 CA         15.4510   48.2400    0.1110 C.3       9 GLL5        0.0000 
      6 CA         19.0310   47.5010    1.9500 C.3       6 GLP5        0.0000 
      7 CA         12.9920   48.8440    1.9075 C.3       3 GLC5        0.0000 
      8 CA         14.5410   47.6580    1.1960 C.3       9 GLL5        0.0000 
      9 CA         11.4430   50.0300    2.6190 C.3       6 GLP5        0.0000 
     10 CA         13.5565   46.3185    1.9625 C.3       3 GLC5        0.0000 
     11 CA         12.5720   44.9790    2.7290 C.3       6 GLP5        0.0000 
     12 CA         14.4630   45.6580   -0.9965 C.3       3 GLC5        0.0000 
     13 CA         15.9990   47.1360   -0.6960 C.3       9 GLL5        0.0000 
     14 CA         12.9270   44.1800   -1.2970 C.3       6 GLP5        0.0000 
     15 CA         15.1910   44.7250   -1.4265 C.3       3 GLC5        0.0000 
     16 CA         16.4560   46.2220   -1.3700 C.3       9 GLL5        0.0000 
     17 CA         13.9260   43.2280   -1.4830 C.3       6 GLP5        0.0000 
     18 CA         18.3760   47.5075   -4.1605 C.3       3 GLC5        0.0000 
     19 CA         16.6430   46.4650   -4.2830 C.3       9 GLL5        0.0000 
     20 CA         20.1090   48.5500   -4.0380 C.3       6 GLP5        0.0000 
     21 N          17.8640   44.1755   -5.5370 N.am      2 SEC2        0.0000 
     22 N          17.6130   44.1750   -4.1980 N.am      8 SEL2        0.0000 
     23 N          18.1150   44.1760   -6.8760 N.am      5 SEP2        0.0000 
     24 CA         17.3935   41.1895   -2.9300 C.3       3 GLC5        0.0000 
     25 CA         18.0250   43.0620   -3.5690 C.3       9 GLL5        0.0000 
     26 CA         16.7620   39.3170   -2.2910 C.3       6 GLP5        0.0000 
     27 CA         19.3880   42.2425   -2.3120 C.3       3 GLC5        0.0000 
     28 CA         20.7510   41.4230   -1.0550 C.3       6 GLP5        0.0000 
     29 CA         19.8940   43.4715   -4.2560 C.3       3 GLC5        0.0000 
     30 CA         21.7630   43.8810   -4.9430 C.3       6 GLP5        0.0000 
     31 CA         16.1080   43.0895   -4.4190 C.3       3 GLC5        0.0000 
     32 CA         14.1910   43.1170   -5.2690 C.3       6 GLP5        0.0000 
     33 O          18.6250   42.0630   -5.6340 O.2       1 ALC1        0.0000 
     34 O          18.5290   42.0540   -4.2760 O.2       7 ALL1        0.0000 
     35 O          18.7210   42.0720   -6.9920 O.2       4 ALP1        0.0000 
     36 CA         19.0920   42.6945   -1.2770 C.3       3 GLC5        0.0000 
     37 CA         17.4330   43.9660   -1.4990 C.3       9 GLL5        0.0000 
     38 O          17.9350   42.5020    0.1925 O.2       1 ALC1        0.0000 
     39 O          17.3620   43.8310   -0.1810 O.2       7 ALL1        0.0000 
     40 O          18.5080   41.1730    0.5660 O.2       4 ALP1        0.0000 
     41 O          18.4320   43.7930    0.8440 O.2       1 ALC1        0.0000 
     42 O          19.5020   43.7550    1.8690 O.2       4 ALP1        0.0000 
     43 CA         15.4210   44.5710   -4.2373 C.3       3 GLC5        0.0000 
     44 CA         17.1000   45.2140   -3.5190 C.3       9 GLL5        0.0000 
     45 CA         13.7500   43.4880   -3.8780 C.3       6 GLP5        0.0000 
     46 CA         12.5043   48.1100   -6.5873 C.3       3 GLC5        0.0000 
     47 CA         12.4540   48.3840   -4.3200 C.3       9 GLL5        0.0000 
     48 CA         13.0030   48.0410   -8.3620 C.3       6 GLP5        0.0000 
     49 CA         11.4123   48.2013   -7.1603 C.3       3 GLC5        0.0000 
     50 CA         10.3090   48.5870   -5.4120 C.3       9 GLL5        0.0000 
     51 CA          9.0263   51.0838   -3.1295 C.3       3 GLC5        0.0000 
     52 CA          9.9560   49.6060   -4.5270 C.3       9 GLL5        0.0000 
     53 CA          7.6490   52.3590   -2.2280 C.3       6 GLP5        0.0000 
     54 CA          9.5518   48.8503   -2.3000 C.3       3 GLC5        0.0000 
     55 CA         10.8510   50.0110   -3.5350 C.3       9 GLL5        0.0000 
     56 CA          8.7000   47.8920   -0.5690 C.3       6 GLP5        0.0000 
     57 CA         12.8650   51.3425    0.1780 C.3       3 GLC5        0.0000 
     58 CA         13.2370   51.1620   -2.2090 C.3       9 GLL5        0.0000 
     59 CA         12.0340   51.3160    2.0810 C.3       6 GLP5        0.0000 
     60 CA         12.5255   53.1365   -1.3855 C.3       3 GLC5        0.0000 
     61 CA         14.1550   51.5760   -1.2410 C.3       9 GLL5        0.0000 
     62 CA         11.3550   54.9040   -1.0460 C.3       6 GLP5        0.0000 
     63 CA         13.3938   50.6250    0.7312 C.3       3 GLC5        0.0000 
     64 CA         14.8540   50.6140   -0.5030 C.3       9 GLL5        0.0000 
     65 CA         15.3250   48.4875    2.5017 C.3       3 GLC5        0.0000 
     66 CA         15.6540   49.0260    4.3500 C.3       6 GLP5        0.0000 
     67 CA         17.8083   46.7640   -0.1320 C.3       3 GLC5        0.0000 
     68 CA         19.3890   46.8490    0.7690 C.3       6 GLP5        0.0000 
@<TRIPOS>BOND
@<TRIPOS>SUBSTRUCTURE
     1 ALC1       33 GROUP        1 X    ALC  0     ROOT ALC X 1
     2 SEC2       21 GROUP        1 X    SEC  0     **** SEC X 2
     3 GLC5        1 GROUP        1 X    GLC  0     **** GLC X 6
     4 ALP1       35 GROUP        1 Y    ALP  0     ROOT ALP Y 8
     5 SEP2       23 GROUP        1 Y    SEP  0     **** SEP Y 9
     6 GLP5        3 GROUP        1 Y    GLP  0     **** GLP Y 13
     7 ALL1       34 GROUP        1 Z    ALL  0     ROOT ALL Z 15
     8 SEL2       22 GROUP        1 Z    SEL  0     **** SEL Z 16
     9 GLL5        2 GROUP        1 Z    GLL  0     **** GLL Z 20
@<TRIPOS>SET

