#    Name: 4h97_53S_1_ligand
#    Modification time : Tue Mar 25 00:43:35 2014

@<TRIPOS>MOLECULE
4h97_53S_1_ligand
   52    54     1     0     0
SMALL
NO_CHARGES


@<TRIPOS>ATOM
      1 C6         16.9960   45.1340   -2.1320 C.ar      1 53S202      0.0000 
      2 C5         17.1000   45.2140   -3.5190 C.ar      1 53S202      0.0000 
      3 C2         15.7250   53.3240   -1.0100 C.3       1 53S202      0.0000 
      4 C20        12.4540   48.3840   -4.3200 C.ar      1 53S202      0.0000 
      5 C21        11.5570   47.9740   -5.3050 C.ar      1 53S202      0.0000 
      6 C22        10.3090   48.5870   -5.4120 C.ar      1 53S202      0.0000 
      7 C26         9.3340   48.1360   -6.5050 C.3       1 53S202      0.0000 
      8 C23         9.9560   49.6060   -4.5270 C.ar      1 53S202      0.0000 
      9 C24        10.8510   50.0110   -3.5350 C.ar      1 53S202      0.0000 
     10 C25        12.1050   49.3990   -3.4240 C.ar      1 53S202      0.0000 
     11 C18        13.0170   49.8000   -2.4430 C.ar      1 53S202      0.0000 
     12 C19        13.7290   48.8490   -1.7040 C.ar      1 53S202      0.0000 
     13 C17        13.2370   51.1620   -2.2090 C.ar      1 53S202      0.0000 
     14 C16        14.1550   51.5760   -1.2410 C.ar      1 53S202      0.0000 
     15 O17        14.3440   52.9140   -1.0180 O.3       1 53S202      0.0000 
     16 C15        14.8540   50.6140   -0.5030 C.ar      1 53S202      0.0000 
     17 C14        14.6530   49.2540   -0.7340 C.ar      1 53S202      0.0000 
     18 C12        15.4510   48.2400    0.1110 C.3       1 53S202      0.0000 
     19 C13        14.5410   47.6580    1.1960 C.3       1 53S202      0.0000 
     20 C11        15.9990   47.1360   -0.6960 C.1       1 53S202      0.0000 
     21 C10        16.4560   46.2220   -1.3700 C.1       1 53S202      0.0000 
     22 C8         16.6430   46.4650   -4.2830 C.3       1 53S202      0.0000 
     23 N4         17.6130   44.1750   -4.1980 N.ar      1 53S202      0.0000 
     24 C3         18.0250   43.0620   -3.5690 C.ar      1 53S202      0.0000 
     25 N7         18.5290   42.0540   -4.2760 N.pl3     1 53S202      0.0000 
     26 N2         17.9320   42.9590   -2.2320 N.ar      1 53S202      0.0000 
     27 C1         17.4330   43.9660   -1.4990 C.ar      1 53S202      0.0000 
     28 N9         17.3620   43.8310   -0.1810 N.pl3     1 53S202      0.0000 
     29 H          13.3790   47.9382   -4.2503 H         1 53S202      0.0000 
     30 H          11.8152   47.2196   -5.9529 H         1 53S202      0.0000 
     31 H           9.0376   50.0587   -4.6048 H         1 53S202      0.0000 
     32 H          10.5897   50.7611   -2.8830 H         1 53S202      0.0000 
     33 H          13.5728   47.8474   -1.8742 H         1 53S202      0.0000 
     34 H          12.7178   51.8634   -2.7550 H         1 53S202      0.0000 
     35 H          15.5249   50.9171    0.2194 H         1 53S202      0.0000 
     36 H          16.2522   48.7731    0.6094 H         1 53S202      0.0000 
     37 H          19.2087   41.4868   -3.8108 H         1 53S202      0.0000 
     38 H          18.1828   41.9544   -5.2088 H         1 53S202      0.0000 
     39 H          18.0307   43.2147    0.2348 H         1 53S202      0.0000 
     40 H          16.6462   44.3578    0.2774 H         1 53S202      0.0000 
     41 H          16.2472   52.8561   -0.2970 H         1 53S202      0.0000 
     42 H          16.1759   53.1271   -1.8806 H         1 53S202      0.0000 
     43 H          15.8200   54.3059   -0.8462 H         1 53S202      0.0000 
     44 H           9.7191   48.2583   -7.4197 H         1 53S202      0.0000 
     45 H           9.0957   47.1691   -6.4142 H         1 53S202      0.0000 
     46 H           8.4784   48.6527   -6.4757 H         1 53S202      0.0000 
     47 H          15.0215   46.9907    1.7651 H         1 53S202      0.0000 
     48 H          14.1919   48.3677    1.8079 H         1 53S202      0.0000 
     49 H          13.7474   47.1921    0.8046 H         1 53S202      0.0000 
     50 H          17.1431   47.2808   -3.9927 H         1 53S202      0.0000 
     51 H          16.7835   46.3703   -5.2685 H         1 53S202      0.0000 
     52 H          15.6707   46.6516   -4.1422 H         1 53S202      0.0000 
@<TRIPOS>BOND
     1    2    1 ar   
     2   21    1 1    
     3   27    1 ar   
     4   22    2 1    
     5   23    2 ar   
     6   15    3 1    
     7   41    3 1    
     8   42    3 1    
     9   43    3 1    
    10    5    4 ar   
    11   10    4 ar   
    12   29    4 1    
    13    6    5 ar   
    14   30    5 1    
    15    7    6 1    
    16    8    6 ar   
    17   44    7 1    
    18   45    7 1    
    19   46    7 1    
    20    9    8 ar   
    21   31    8 1    
    22   10    9 ar   
    23   32    9 1    
    24   11   10 1    
    25   12   11 ar   
    26   13   11 ar   
    27   17   12 ar   
    28   33   12 1    
    29   14   13 ar   
    30   34   13 1    
    31   15   14 1    
    32   16   14 ar   
    33   17   16 ar   
    34   35   16 1    
    35   18   17 1    
    36   19   18 1    
    37   20   18 1    
    38   36   18 1    
    39   47   19 1    
    40   48   19 1    
    41   49   19 1    
    42   21   20 3    
    43   50   22 1    
    44   51   22 1    
    45   52   22 1    
    46   24   23 ar   
    47   25   24 1    
    48   26   24 ar   
    49   37   25 1    
    50   38   25 1    
    51   27   26 ar   
    52   28   27 1    
    53   39   28 1    
    54   40   28 1    
@<TRIPOS>SUBSTRUCTURE
     1 53S202      1 GROUP   
@<TRIPOS>SET

