#    Name: 3vpc_ADP_4_INTS_M
#    Modification time : Tue Mar 25 01:14:34 2014

@<TRIPOS>MOLECULE
3vpc_ADP_4_INTS_M
   66     0    12     0     0
SMALL
NO_CHARGES


@<TRIPOS>ATOM
      1 NZ         -7.8880   15.7340   36.6825 N.4       3 LYC4        0.0000 
      2 NZ         -7.1280   16.8680   35.8890 N.4      11 LYL4        0.0000 
      3 NZ         -8.6480   14.6000   37.4760 N.4       7 LYP4        0.0000 
      4 N          -7.8880   15.7340   36.6825 N.am      2 SEC2        0.0000 
      5 N          -7.1280   16.8680   35.8890 N.am     10 SEL2        0.0000 
      6 N          -8.6480   14.6000   37.4760 N.am      6 SEP2        0.0000 
      7 N          -5.9105   17.2010   36.7015 N.am      2 SEC2        0.0000 
      8 N          -4.6930   17.5340   37.5140 N.am      6 SEP2        0.0000 
      9 N          -7.2295   17.8800   32.3690 N.am      2 SEC2        0.0000 
     10 N          -6.8210   16.8860   33.3970 N.am     10 SEL2        0.0000 
     11 N          -7.6380   18.8740   31.3410 N.am      6 SEP2        0.0000 
     12 N          -5.4265   16.8255   33.1240 N.am      2 SEC2        0.0000 
     13 N          -4.0320   16.7650   32.8510 N.am      6 SEP2        0.0000 
     14 NZ         -9.6875   14.8795   36.6765 N.4       3 LYC4        0.0000 
     15 NZ        -10.7270   15.1590   35.8770 N.4      11 LYL4        0.0000 
     16 NZ        -11.4445   14.0935   36.1770 N.4       3 LYC4        0.0000 
     17 NZ        -12.1620   13.0280   36.4770 N.4       7 LYP4        0.0000 
     18 N          -9.6875   14.8795   36.6765 N.am      2 SEC2        0.0000 
     19 N         -10.7270   15.1590   35.8770 N.am     10 SEL2        0.0000 
     20 N         -11.4445   14.0935   36.1770 N.am      2 SEC2        0.0000 
     21 N         -12.1620   13.0280   36.4770 N.am      6 SEP2        0.0000 
     22 N         -11.5255   15.6340   37.0850 N.am      2 SEC2        0.0000 
     23 N         -12.3240   16.1090   38.2930 N.am      6 SEP2        0.0000 
     24 NZ         -9.4415   16.1445   36.8200 N.4       3 LYC4        0.0000 
     25 NZ        -10.2350   17.6890   36.1640 N.4      11 LYL4        0.0000 
     26 CA        -10.2170   18.1765   32.0645 C.3       4 GLC5        0.0000 
     27 CA        -11.5710   17.9960   33.3910 C.3      12 GLL5        0.0000 
     28 CA         -8.8630   18.3570   30.7380 C.3       8 GLP5        0.0000 
     29 CA        -10.9560   16.4405   32.4100 C.3       4 GLC5        0.0000 
     30 CA        -10.3410   14.8850   31.4290 C.3       8 GLP5        0.0000 
     31 CA        -13.6620   19.2235   31.5540 C.3       4 GLC5        0.0000 
     32 CA        -12.9900   18.4910   33.1990 C.3      12 GLL5        0.0000 
     33 CA        -14.3340   19.9560   29.9090 C.3       8 GLP5        0.0000 
     34 N         -14.5155   21.2365   33.2090 N.am      2 SEC2        0.0000 
     35 N         -13.7860   20.4310   34.2540 N.am     10 SEL2        0.0000 
     36 N         -15.2450   22.0420   32.1640 N.am      6 SEP2        0.0000 
     37 CA        -16.0405   18.3870   36.6485 C.3       4 GLC5        0.0000 
     38 CA        -14.8700   18.3930   34.7280 C.3      12 GLL5        0.0000 
     39 CA        -17.2110   18.3810   38.5690 C.3       8 GLP5        0.0000 
     40 CA        -15.3515   18.8185   32.0820 C.3       4 GLC5        0.0000 
     41 CA        -15.0130   17.3780   33.6150 C.3      12 GLL5        0.0000 
     42 CA        -15.6900   20.2590   30.5490 C.3       8 GLP5        0.0000 
     43 N         -13.4150   13.5140   35.7310 N.am      2 SEC2        0.0000 
     44 N         -14.6680   14.0000   34.9850 N.am     10 SEL2        0.0000 
     45 O         -15.7055   11.3075   36.1435 O.2       1 ALC1        0.0000 
     46 O         -16.9330   11.9920   35.7100 O.2       9 ALL1        0.0000 
     47 O         -14.4780   10.6230   36.5770 O.2       5 ALP1        0.0000 
     48 O         -17.9305   11.0170   35.5930 O.2       1 ALC1        0.0000 
     49 O         -18.9280   10.0420   35.4760 O.2       5 ALP1        0.0000 
     50 N         -19.7435   13.2450   35.0250 N.am      2 SEC2        0.0000 
     51 N         -18.3950   13.6760   34.9320 N.am     10 SEL2        0.0000 
     52 N         -21.0920   12.8140   35.1180 N.am      6 SEP2        0.0000 
     53 CA        -17.9080   13.2620   33.1910 C.3       4 GLC5        0.0000 
     54 CA        -18.6160   14.8980   34.4160 C.3      12 GLL5        0.0000 
     55 CA        -17.2000   11.6260   31.9660 C.3       8 GLP5        0.0000 
     56 CA        -20.2530   14.2680   35.2170 C.3       4 GLC5        0.0000 
     57 CA        -21.8900   13.6380   36.0180 C.3       8 GLP5        0.0000 
     58 CA        -17.8550   15.3970   36.3610 C.3       4 GLC5        0.0000 
     59 CA        -17.0940   15.8960   38.3060 C.3       8 GLP5        0.0000 
     60 CA        -16.5690   14.0295   32.6050 C.3       4 GLC5        0.0000 
     61 CA        -16.3320   15.4220   34.3540 C.3      12 GLL5        0.0000 
     62 CA        -16.8060   12.6370   30.8560 C.3       8 GLP5        0.0000 
     63 CA        -16.8890   12.6370   33.4982 C.3       4 GLC5        0.0000 
     64 CA        -16.0070   14.0900   34.8820 C.3      12 GLL5        0.0000 
     65 CA        -16.7745   15.2155   36.4991 C.3       4 GLC5        0.0000 
     66 CA        -17.1490   13.2060   35.1790 C.3      12 GLL5        0.0000 
@<TRIPOS>BOND
@<TRIPOS>SUBSTRUCTURE
     1 ALC1       45 GROUP        1 X    ALC  0     ROOT ALC X 1
     2 SEC2        4 GROUP        1 X    SEC  0     **** SEC X 2
     3 LYC4        1 GROUP        1 X    LYC  0     **** LYC X 4
     4 GLC5       26 GROUP        1 X    GLC  0     **** GLC X 6
     5 ALP1       47 GROUP        1 Y    ALP  0     ROOT ALP Y 8
     6 SEP2        6 GROUP        1 Y    SEP  0     **** SEP Y 9
     7 LYP4        3 GROUP        1 Y    LYP  0     **** LYP Y 11
     8 GLP5       28 GROUP        1 Y    GLP  0     **** GLP Y 13
     9 ALL1       46 GROUP        1 Z    ALL  0     ROOT ALL Z 15
    10 SEL2        5 GROUP        1 Z    SEL  0     **** SEL Z 16
    11 LYL4        2 GROUP        1 Z    LYL  0     **** LYL Z 18
    12 GLL5       27 GROUP        1 Z    GLL  0     **** GLL Z 20
@<TRIPOS>SET

