#    Name: 3vpc_ADP_4_ligand
#    Modification time : Tue Mar 25 01:14:34 2014

@<TRIPOS>MOLECULE
3vpc_ADP_4_ligand
   39    41     1     0     0
SMALL
NO_CHARGES


@<TRIPOS>ATOM
      1 PB         -7.7310   17.2470   34.5600 P.3       1 ADP500      0.0000 
      2 O1B        -7.1280   16.8680   35.8890 O.co2     1 ADP500      0.0000 
      3 O2B        -8.2390   18.6770   34.4900 O.co2     1 ADP500      0.0000 
      4 O3B        -6.8210   16.8860   33.3970 O.co2     1 ADP500      0.0000 
      5 PA        -10.3970   16.4850   35.2410 P.3       1 ADP500      0.0000 
      6 O1A       -10.7270   15.1590   35.8770 O.co2     1 ADP500      0.0000 
      7 O2A       -10.2350   17.6890   36.1640 O.co2     1 ADP500      0.0000 
      8 O3A        -9.0670   16.3520   34.3550 O.3       1 ADP500      0.0000 
      9 O5'       -11.5880   16.8510   34.2340 O.3       1 ADP500      0.0000 
     10 C5'       -11.5710   17.9960   33.3910 C.3       1 ADP500      0.0000 
     11 C4'       -12.9900   18.4910   33.1990 C.3       1 ADP500      0.0000 
     12 O4'       -13.8580   17.4400   32.7810 O.3       1 ADP500      0.0000 
     13 C3'       -13.5390   19.0600   34.5000 C.3       1 ADP500      0.0000 
     14 O3'       -13.7860   20.4310   34.2540 O.3       1 ADP500      0.0000 
     15 C2'       -14.8700   18.3930   34.7280 C.3       1 ADP500      0.0000 
     16 O2'       -15.8730   19.4000   34.5070 O.3       1 ADP500      0.0000 
     17 C1'       -15.0130   17.3780   33.6150 C.3       1 ADP500      0.0000 
     18 N9        -15.1630   16.0110   34.1650 N.pl3     1 ADP500      0.0000 
     19 C8        -14.1730   15.1850   34.5390 C.2       1 ADP500      0.0000 
     20 N7        -14.6680   14.0000   34.9850 N.2       1 ADP500      0.0000 
     21 C5        -16.0070   14.0900   34.8820 C.ar      1 ADP500      0.0000 
     22 C6        -17.1490   13.2060   35.1790 C.ar      1 ADP500      0.0000 
     23 N6        -16.9330   11.9920   35.7100 N.pl3     1 ADP500      0.0000 
     24 N1        -18.3950   13.6760   34.9320 N.ar      1 ADP500      0.0000 
     25 C2        -18.6160   14.8980   34.4160 C.ar      1 ADP500      0.0000 
     26 N3        -17.6390   15.7790   34.1330 N.ar      1 ADP500      0.0000 
     27 C4        -16.3320   15.4220   34.3540 C.ar      1 ADP500      0.0000 
     28 H         -11.1549   17.7681   32.4036 H         1 ADP500      0.0000 
     29 H         -10.9830   18.8121   33.8251 H         1 ADP500      0.0000 
     30 H         -12.9810   19.2945   32.4707 H         1 ADP500      0.0000 
     31 H         -12.8889   18.8737   35.2750 H         1 ADP500      0.0000 
     32 H         -14.9136   17.9480   35.6460 H         1 ADP500      0.0000 
     33 H         -15.9026   17.6312   33.0466 H         1 ADP500      0.0000 
     34 H         -13.2155   15.3995   34.4993 H         1 ADP500      0.0000 
     35 H         -15.9765   11.7399   35.8571 H         1 ADP500      0.0000 
     36 H         -17.7479   11.4483   35.9110 H         1 ADP500      0.0000 
     37 H         -19.6267   15.1868   34.2190 H         1 ADP500      0.0000 
     38 H         -13.5932   20.8884   35.1221 H         1 ADP500      0.0000 
     39 H         -15.3611   20.2367   34.3124 H         1 ADP500      0.0000 
@<TRIPOS>BOND
     1    2    1 ar   
     2    3    1 ar   
     3    4    1 ar   
     4    8    1 1    
     5    6    5 ar   
     6    7    5 ar   
     7    8    5 1    
     8    9    5 1    
     9   10    9 1    
    10   11   10 1    
    11   28   10 1    
    12   29   10 1    
    13   12   11 1    
    14   13   11 1    
    15   30   11 1    
    16   17   12 1    
    17   14   13 1    
    18   15   13 1    
    19   31   13 1    
    20   38   14 1    
    21   16   15 1    
    22   17   15 1    
    23   32   15 1    
    24   39   16 1    
    25   18   17 1    
    26   33   17 1    
    27   19   18 1    
    28   27   18 1    
    29   20   19 2    
    30   34   19 1    
    31   21   20 1    
    32   22   21 ar   
    33   27   21 ar   
    34   23   22 1    
    35   24   22 ar   
    36   35   23 1    
    37   36   23 1    
    38   25   24 ar   
    39   26   25 ar   
    40   37   25 1    
    41   27   26 ar   
@<TRIPOS>SUBSTRUCTURE
     1 ADP500      1 GROUP   
@<TRIPOS>SET

