#    Name: 3hf8_ML0_1_INTS_M
#    Modification time : Tue Mar 25 14:14:20 2014

@<TRIPOS>MOLECULE
3hf8_ML0_1_INTS_M
   79     0    12     0     0
SMALL
NO_CHARGES


@<TRIPOS>ATOM
      1 NZ         16.3110    7.8105   17.2895 N.4       3 LYC4        0.0000 
      2 NZ         15.9710    7.0860   19.1490 N.4      11 LYL4        0.0000 
      3 NZ         16.2640    9.8340   16.8920 N.4       7 LYP4        0.0000 
      4 N          15.7485    8.0580   20.1865 N.am      2 SEC2        0.0000 
      5 N          15.9710    7.0860   19.1490 N.am     10 SEL2        0.0000 
      6 N          15.5260    9.0300   21.2240 N.am      6 SEP2        0.0000 
      7 NZ         15.5420    6.5980   17.0400 N.4      11 LYL4        0.0000 
      8 N          15.4270    7.9700   16.5675 N.am      2 SEC2        0.0000 
      9 N          15.5420    6.5980   17.0400 N.am     10 SEL2        0.0000 
     10 N          15.3120    9.3420   16.0950 N.am      6 SEP2        0.0000 
     11 N          16.3110    7.8105   17.2895 N.am      2 SEC2        0.0000 
     12 N          17.0800    9.0230   17.5390 N.am      6 SEP2        0.0000 
     13 N          15.6170    5.8150   15.9960 N.am      2 SEC2        0.0000 
     14 N          15.6920    5.0320   14.9520 N.am      6 SEP2        0.0000 
     15 CA         14.7165    3.3405   17.6200 C.3       4 GLC5        0.0000 
     16 CA         14.4860    5.2750   18.7000 C.3      12 GLL5        0.0000 
     17 CA         14.9470    1.4060   16.5400 C.3       8 GLP5        0.0000 
     18 CA         16.7340    5.2680   18.6830 C.3       4 GLC5        0.0000 
     19 CA         18.9820    5.2610   18.6660 C.3       8 GLP5        0.0000 
     20 O          13.9420    6.1585   20.6660 O.2       1 ALC1        0.0000 
     21 O          14.6090    4.9720   20.1190 O.2       9 ALL1        0.0000 
     22 O          13.2750    7.3450   21.2130 O.2       5 ALP1        0.0000 
     23 CA          9.3870    5.6215   19.1015 C.3       4 GLC5        0.0000 
     24 CA         11.0900    4.8950   19.6280 C.3      12 GLL5        0.0000 
     25 CA          7.6840    6.3480   18.5750 C.3       8 GLP5        0.0000 
     26 CA         10.9680    3.4995   16.0690 C.3       4 GLC5        0.0000 
     27 CA         10.9460    2.6190   18.0180 C.3      12 GLL5        0.0000 
     28 CA         10.9900    4.3800   14.1200 C.3       8 GLP5        0.0000 
     29 CA          8.3480    3.5950   18.3800 C.3       4 GLC5        0.0000 
     30 CA          8.9210    1.8260   19.2940 C.3      12 GLL5        0.0000 
     31 CA          7.7750    5.3640   17.4660 C.3       8 GLP5        0.0000 
     32 CA          8.7530   -0.9000   17.3355 C.3       4 GLC5        0.0000 
     33 CA          7.4460    0.1670   18.4820 C.3      12 GLL5        0.0000 
     34 CA         10.0600   -1.9670   16.1890 C.3       8 GLP5        0.0000 
     35 O           7.9465   -0.4825   16.1665 O.2       1 ALC1        0.0000 
     36 O           7.0080   -0.6080   17.4650 O.2       9 ALL1        0.0000 
     37 O           8.8850   -0.3570   14.8680 O.2       5 ALP1        0.0000 
     38 CA          2.0250    3.4835   21.0985 C.3       4 GLC5        0.0000 
     39 CA          2.6880    1.8230   22.3940 C.3      12 GLL5        0.0000 
     40 CA          1.3620    5.1440   19.8030 C.3       8 GLP5        0.0000 
     41 CA         -3.4720   -0.3995   20.9310 C.3       4 GLC5        0.0000 
     42 CA         -3.0530   -0.0590   22.7990 C.3      12 GLL5        0.0000 
     43 CA         -3.8910   -0.7400   19.0630 C.3       8 GLP5        0.0000 
     44 CA         13.6342    7.5498   18.8050 C.3       4 GLC5        0.0000 
     45 CA         13.0770    5.7580   18.3920 C.3      12 GLL5        0.0000 
     46 CA         13.4870    9.5830   19.0640 C.3       8 GLP5        0.0000 
     47 CA         10.9198    6.2075   17.7257 C.3       4 GLC5        0.0000 
     48 CA          9.2920    7.1850   16.9520 C.3       8 GLP5        0.0000 
     49 CA          9.8085    6.1890   20.2097 C.3       4 GLC5        0.0000 
     50 CA          9.0250    7.9570   20.6840 C.3       8 GLP5        0.0000 
     51 CA         12.2251    4.6857   16.1701 C.3       4 GLC5        0.0000 
     52 CA         12.0180    4.7020   18.6070 C.3      12 GLL5        0.0000 
     53 CA         12.2040    4.9730   14.1920 C.3       8 GLP5        0.0000 
     54 CA         13.1962    2.2495   17.2238 C.3       4 GLC5        0.0000 
     55 CA         11.9450    3.5670   17.7970 C.3      12 GLL5        0.0000 
     56 CA          9.1381    4.1809   18.0989 C.3       4 GLC5        0.0000 
     57 CA          8.0830    1.7783   22.6095 C.3       4 GLC5        0.0000 
     58 CA          8.3210    1.7340   20.5500 C.3      12 GLL5        0.0000 
     59 CA          8.3650    2.2770   24.5770 C.3       8 GLP5        0.0000 
     60 CA          8.1189   -1.4021   22.2690 C.3       4 GLC5        0.0000 
     61 CA          7.4210   -1.1560   23.7170 C.3      12 GLL5        0.0000 
     62 CA          9.5470   -1.9100   21.2060 C.3       8 GLP5        0.0000 
     63 CA          7.3084    0.9074   24.2625 C.3       4 GLC5        0.0000 
     64 CA          7.2107   -2.8746   24.0295 C.3       4 GLC5        0.0000 
     65 CA          8.3070   -4.2170   24.3180 C.3       8 GLP5        0.0000 
     66 CA          1.4945   -1.9725   21.0847 C.3       4 GLC5        0.0000 
     67 CA          3.3770   -0.8340   21.9130 C.3      12 GLL5        0.0000 
     68 CA          0.2790   -3.3090   20.2820 C.3       8 GLP5        0.0000 
     69 CA         -1.3560    0.3145   20.5512 C.3       4 GLC5        0.0000 
     70 CA         -0.7500    0.4170   22.4560 C.3      12 GLL5        0.0000 
     71 CA         -2.4630   -0.2290   18.8560 C.3       8 GLP5        0.0000 
     72 CA         -0.5395   -0.7265   21.1982 C.3       4 GLC5        0.0000 
     73 CA         -0.8300   -2.3110   20.1500 C.3       8 GLP5        0.0000 
     74 CA          0.2920    3.9485   20.6690 C.3       4 GLC5        0.0000 
     75 CA         -0.1080    2.5620   21.5650 C.3      12 GLL5        0.0000 
     76 CA         -1.7018   -0.9710   21.3742 C.3       4 GLC5        0.0000 
     77 CA         -2.0940    0.7970   22.3980 C.3      12 GLL5        0.0000 
     78 CA         -2.1605    0.9789   20.3444 C.3       4 GLC5        0.0000 
     79 CA         -2.4420    2.0620   21.9230 C.3      12 GLL5        0.0000 
@<TRIPOS>BOND
@<TRIPOS>SUBSTRUCTURE
     1 ALC1       20 GROUP        1 X    ALC  0     ROOT ALC X 1
     2 SEC2        4 GROUP        1 X    SEC  0     **** SEC X 2
     3 LYC4        1 GROUP        1 X    LYC  0     **** LYC X 4
     4 GLC5       15 GROUP        1 X    GLC  0     **** GLC X 6
     5 ALP1       22 GROUP        1 Y    ALP  0     ROOT ALP Y 8
     6 SEP2        6 GROUP        1 Y    SEP  0     **** SEP Y 9
     7 LYP4        3 GROUP        1 Y    LYP  0     **** LYP Y 11
     8 GLP5       17 GROUP        1 Y    GLP  0     **** GLP Y 13
     9 ALL1       21 GROUP        1 Z    ALL  0     ROOT ALL Z 15
    10 SEL2        5 GROUP        1 Z    SEL  0     **** SEL Z 16
    11 LYL4        2 GROUP        1 Z    LYL  0     **** LYL Z 18
    12 GLL5       16 GROUP        1 Z    GLL  0     **** GLL Z 20
@<TRIPOS>SET

