#    Name: 3hf8_ML0_1_ligand
#    Modification time : Tue Mar 25 14:14:20 2014

@<TRIPOS>MOLECULE
3hf8_ML0_1_ligand
   60    63     1     0     0
SMALL
NO_CHARGES


@<TRIPOS>ATOM
      1 O38        15.9710    7.0860   19.1490 O.co2     1 ML0401      0.0000 
      2 C36        15.4020    6.3880   18.2740 C.2       1 ML0401      0.0000 
      3 O37        15.5420    6.5980   17.0400 O.co2     1 ML0401      0.0000 
      4 C34        14.4860    5.2750   18.7000 C.3       1 ML0401      0.0000 
      5 N35        14.6090    4.9720   20.1190 N.4       1 ML0401      0.0000 
      6 C33        13.0770    5.7580   18.3920 C.3       1 ML0401      0.0000 
      7 C30        12.0180    4.7020   18.6070 C.ar      1 ML0401      0.0000 
      8 C29        11.0900    4.8950   19.6280 C.ar      1 ML0401      0.0000 
      9 C28        10.0940    3.9470   19.8430 C.ar      1 ML0401      0.0000 
     10 C31        11.9450    3.5670   17.7970 C.ar      1 ML0401      0.0000 
     11 C32        10.9460    2.6190   18.0180 C.ar      1 ML0401      0.0000 
     12 C27        10.0190    2.8060   19.0480 C.ar      1 ML0401      0.0000 
     13 C22         8.9210    1.8260   19.2940 C.ar      1 ML0401      0.0000 
     14 C21         8.3210    1.7340   20.5500 C.ar      1 ML0401      0.0000 
     15 N23         8.4590    1.0460   18.2820 N.ar      1 ML0401      0.0000 
     16 C24         7.4460    0.1670   18.4820 C.ar      1 ML0401      0.0000 
     17 N26         7.0080   -0.6080   17.4650 N.pl3     1 ML0401      0.0000 
     18 N25         6.8630    0.0570   19.6970 N.ar      1 ML0401      0.0000 
     19 C20         7.2810    0.8250   20.7340 C.ar      1 ML0401      0.0000 
     20 O16         6.6910    0.7180   21.9700 O.3       1 ML0401      0.0000 
     21 C14         5.7920   -0.3540   22.2590 C.3       1 ML0401      0.0000 
     22 C15         6.1290   -0.9110   23.6350 C.3       1 ML0401      0.0000 
     23 F19         7.4210   -1.1560   23.7170 F         1 ML0401      0.0000 
     24 F18         5.8130   -0.0300   24.5640 F         1 ML0401      0.0000 
     25 F17         5.4540   -2.0310   23.8060 F         1 ML0401      0.0000 
     26 C11         4.3750    0.0960   22.2050 C.ar      1 ML0401      0.0000 
     27 C10         4.0260    1.4270   22.4460 C.ar      1 ML0401      0.0000 
     28 C9          2.6880    1.8230   22.3940 C.ar      1 ML0401      0.0000 
     29 C12         3.3770   -0.8340   21.9130 C.ar      1 ML0401      0.0000 
     30 C13         2.0430   -0.4380   21.8620 C.ar      1 ML0401      0.0000 
     31 C8          1.6890    0.8920   22.0980 C.ar      1 ML0401      0.0000 
     32 C3          0.2520    1.2990   22.0370 C.ar      1 ML0401      0.0000 
     33 C2         -0.1080    2.5620   21.5650 C.ar      1 ML0401      0.0000 
     34 C4         -0.7500    0.4170   22.4560 C.ar      1 ML0401      0.0000 
     35 C5         -2.0940    0.7970   22.3980 C.ar      1 ML0401      0.0000 
     36 F7         -3.0530   -0.0590   22.7990 F         1 ML0401      0.0000 
     37 C6         -2.4420    2.0620   21.9230 C.ar      1 ML0401      0.0000 
     38 C1         -1.4480    2.9440   21.5050 C.ar      1 ML0401      0.0000 
     39 H          14.6778    4.4135   18.0917 H         1 ML0401      0.0000 
     40 H          13.0393    6.1031   17.3452 H         1 ML0401      0.0000 
     41 H          12.8531    6.6320   19.0262 H         1 ML0401      0.0000 
     42 H          11.1411    5.7322   20.2182 H         1 ML0401      0.0000 
     43 H           9.4052    4.0903   20.5976 H         1 ML0401      0.0000 
     44 H          12.6249    3.4312   17.0412 H         1 ML0401      0.0000 
     45 H          10.8900    1.7829   17.4249 H         1 ML0401      0.0000 
     46 H           8.6384    2.3220   21.3196 H         1 ML0401      0.0000 
     47 H           6.2863   -1.2627   17.6900 H         1 ML0401      0.0000 
     48 H           7.4445   -0.4580   16.5779 H         1 ML0401      0.0000 
     49 H           5.9319   -1.1651   21.5424 H         1 ML0401      0.0000 
     50 H           4.7565    2.1168   22.6622 H         1 ML0401      0.0000 
     51 H           2.4365    2.8034   22.5742 H         1 ML0401      0.0000 
     52 H           3.6286   -1.8155   21.7349 H         1 ML0401      0.0000 
     53 H           1.3102   -1.1304   21.6486 H         1 ML0401      0.0000 
     54 H           0.6249    3.2196   21.2574 H         1 ML0401      0.0000 
     55 H          -0.4961   -0.5147   22.8081 H         1 ML0401      0.0000 
     56 H          -3.4287    2.3412   21.8820 H         1 ML0401      0.0000 
     57 H          -1.7010    3.8748   21.1529 H         1 ML0401      0.0000 
     58 H          14.0001    4.2280   20.3941 H         1 ML0401      0.0000 
     59 H          15.5388    4.6941   20.3602 H         1 ML0401      0.0000 
     60 H          14.3822    5.7621   20.6885 H         1 ML0401      0.0000 
@<TRIPOS>BOND
     1    2    1 ar   
     2    3    2 ar   
     3    4    2 1    
     4    5    4 1    
     5    6    4 1    
     6   39    4 1    
     7   58    5 1    
     8   59    5 1    
     9   60    5 1    
    10    7    6 1    
    11   40    6 1    
    12   41    6 1    
    13    8    7 ar   
    14   10    7 ar   
    15    9    8 ar   
    16   42    8 1    
    17   12    9 ar   
    18   43    9 1    
    19   11   10 ar   
    20   44   10 1    
    21   12   11 ar   
    22   45   11 1    
    23   13   12 1    
    24   14   13 ar   
    25   15   13 ar   
    26   19   14 ar   
    27   46   14 1    
    28   16   15 ar   
    29   17   16 1    
    30   18   16 ar   
    31   47   17 1    
    32   48   17 1    
    33   19   18 ar   
    34   20   19 1    
    35   21   20 1    
    36   22   21 1    
    37   26   21 1    
    38   49   21 1    
    39   23   22 1    
    40   24   22 1    
    41   25   22 1    
    42   27   26 ar   
    43   29   26 ar   
    44   28   27 ar   
    45   50   27 1    
    46   31   28 ar   
    47   51   28 1    
    48   30   29 ar   
    49   52   29 1    
    50   31   30 ar   
    51   53   30 1    
    52   32   31 1    
    53   33   32 ar   
    54   34   32 ar   
    55   38   33 ar   
    56   54   33 1    
    57   35   34 ar   
    58   55   34 1    
    59   36   35 1    
    60   37   35 ar   
    61   38   37 ar   
    62   56   37 1    
    63   57   38 1    
@<TRIPOS>SUBSTRUCTURE
     1 ML0401      1 GROUP   
@<TRIPOS>SET

