#    Name: 3LEP_1_CAVITY_N1_6.mol2
#    Modification time : Tue Mar 11 11:21:57 2014

@<TRIPOS>MOLECULE
3LEP_1_CAVITY_N1_6.mol2
   96     0     4     0     0
SMALL
NO_CHARGES


@<TRIPOS>ATOM
      1 CA         20.4596  -10.3541   12.7411 C.3       3 GLY6        0.0000 
      2 CA         18.9925  -10.5599   12.5058 C.3       3 GLY6        0.0000 
      3 CZ         17.5456  -11.9546   13.1848 C.ar      2 PHE5        0.0000 
      4 CZ         17.5255  -10.7657   12.2705 C.ar      2 PHE5        0.0000 
      5 CA         20.1275   -8.2740   12.9923 C.3       3 GLY6        0.0000 
      6 CZ         18.7007  -10.8577   14.5857 C.ar      2 PHE5        0.0000 
      7 CZ         18.6805   -9.6688   13.6713 C.ar      2 PHE5        0.0000 
      8 CA         18.6604   -8.4799   12.7570 C.3       3 GLY6        0.0000 
      9 DU         17.2538  -12.2524   15.2648 H         4 CUB7        0.0000 
     10 CZ         17.2336  -11.0635   14.3504 C.ar      2 PHE5        0.0000 
     11 CZ         17.2135   -9.8746   13.4360 C.ar      2 PHE5        0.0000 
     12 CA         17.1933   -8.6857   12.5217 C.3       3 GLY6        0.0000 
     13 CA         17.1531   -6.3078   10.6930 C.3       3 GLY6        0.0000 
     14 CA         17.1329   -5.1189    9.7786 C.3       3 GLY6        0.0000 
     15 CA         17.1128   -3.9300    8.8642 C.3       3 GLY6        0.0000 
     16 DU         15.8068  -13.6472   15.9438 H         4 CUB7        0.0000 
     17 CZ         15.7867  -12.4582   15.0295 C.ar      2 PHE5        0.0000 
     18 CZ         15.6860   -6.5136   10.4576 C.ar      2 PHE5        0.0000 
     19 CA         15.6659   -5.3247    9.5433 C.3       3 GLY6        0.0000 
     20 CA         15.6457   -4.1358    8.6289 C.3       3 GLY6        0.0000 
     21 CZ         14.3196  -12.6641   14.7942 C.ar      2 PHE5        0.0000 
     22 CZ         19.8155   -7.3829   14.1579 C.ar      2 PHE5        0.0000 
     23 N          19.7954   -6.1940   13.2435 N.2       1 ALA2        0.0000 
     24 CA         18.4290  -12.3444   17.5800 C.3       3 GLY6        0.0000 
     25 CZ         18.4089  -11.1555   16.6656 C.ar      2 PHE5        0.0000 
     26 CZ         18.3887   -9.9666   15.7513 C.ar      2 PHE5        0.0000 
     27 CZ         18.3686   -8.7776   14.8369 C.ar      2 PHE5        0.0000 
     28 CZ         18.3484   -7.5887   13.9226 C.ar      2 PHE5        0.0000 
     29 CA         18.3283   -6.3998   13.0082 C.3       3 GLY6        0.0000 
     30 CA         18.3082   -5.2109   12.0938 C.3       3 GLY6        0.0000 
     31 CA         18.2880   -4.0220   11.1795 C.3       3 GLY6        0.0000 
     32 O          16.9619  -12.5502   17.3447 O.2       1 ALA2        0.0000 
     33 DU         16.9418  -11.3613   16.4303 H         4 CUB7        0.0000 
     34 DU         16.9217  -10.1724   15.5160 H         4 CUB7        0.0000 
     35 CZ         16.9015   -8.9835   14.6016 C.ar      2 PHE5        0.0000 
     36 CZ         16.8814   -7.7945   13.6873 C.ar      2 PHE5        0.0000 
     37 CA         16.8612   -6.6056   12.7729 C.3       3 GLY6        0.0000 
     38 CZ         16.8411   -5.4167   11.8585 C.ar      2 PHE5        0.0000 
     39 CZ         16.8210   -4.2278   10.9442 C.ar      2 PHE5        0.0000 
     40 CZ         16.8008   -3.0389   10.0298 C.ar      2 PHE5        0.0000 
     41 DU         15.5352  -15.1339   18.9381 H         4 CUB7        0.0000 
     42 DU         15.5150  -13.9450   18.0238 H         4 CUB7        0.0000 
     43 DU         15.4949  -12.7560   17.1094 H         4 CUB7        0.0000 
     44 DU         15.4747  -11.5671   16.1950 H         4 CUB7        0.0000 
     45 CZ         15.4546  -10.3782   15.2807 C.ar      2 PHE5        0.0000 
     46 CZ         15.3942   -6.8114   12.5376 C.ar      2 PHE5        0.0000 
     47 CZ         15.3740   -5.6225   11.6232 C.ar      2 PHE5        0.0000 
     48 CZ         15.3539   -4.4336   10.7089 C.ar      2 PHE5        0.0000 
     49 CZ         15.3338   -3.2447    9.7945 C.ar      2 PHE5        0.0000 
     50 N          14.0480  -14.1508   17.7885 N.2       1 ALA2        0.0000 
     51 N          14.0278  -12.9619   16.8741 N.2       1 ALA2        0.0000 
     52 CA         14.0077  -11.7729   15.9597 C.3       3 GLY6        0.0000 
     53 CZ         13.9875  -10.5840   15.0454 C.ar      2 PHE5        0.0000 
     54 CZ         19.5035   -6.4918   15.3234 C.ar      2 PHE5        0.0000 
     55 CA         19.4834   -5.3029   14.4091 C.3       3 GLY6        0.0000 
     56 CZ         18.0768   -9.0754   16.9169 C.ar      2 PHE5        0.0000 
     57 CZ         18.0566   -7.8865   16.0025 C.ar      2 PHE5        0.0000 
     58 CZ         18.0365   -6.6976   15.0881 C.ar      2 PHE5        0.0000 
     59 CZ         18.0163   -5.5087   14.1738 C.ar      2 PHE5        0.0000 
     60 O          16.6903  -14.0370   20.3390 O.2       1 ALA2        0.0000 
     61 O          16.6701  -12.8480   19.4246 O.2       1 ALA2        0.0000 
     62 O          16.6298  -10.4702   17.5959 O.2       1 ALA2        0.0000 
     63 DU         16.6097   -9.2813   16.6816 H         4 CUB7        0.0000 
     64 DU         16.5896   -8.0923   15.7672 H         4 CUB7        0.0000 
     65 O          16.5694   -6.9034   14.8528 O.2       1 ALA2        0.0000 
     66 CZ         16.5493   -5.7145   13.9385 C.ar      2 PHE5        0.0000 
     67 O          15.2031  -13.0538   19.1893 O.2       1 ALA2        0.0000 
     68 O          15.1829  -11.8649   18.2750 O.2       1 ALA2        0.0000 
     69 O          15.1628  -10.6760   17.3606 O.2       1 ALA2        0.0000 
     70 DU         15.1426   -9.4871   16.4463 H         4 CUB7        0.0000 
     71 CZ         15.1225   -8.2982   15.5319 C.ar      2 PHE5        0.0000 
     72 CZ         15.1024   -7.1092   14.6175 C.ar      2 PHE5        0.0000 
     73 O          15.0822   -5.9203   13.7032 O.2       1 ALA2        0.0000 
     74 N          13.7360  -13.2597   18.9540 N.2       1 ALA2        0.0000 
     75 CA         13.6957  -10.8818   17.1253 C.3       3 GLY6        0.0000 
     76 CA         13.6756   -9.6929   16.2109 C.3       3 GLY6        0.0000 
     77 CA         19.2117   -6.7896   17.4034 C.3       3 GLY6        0.0000 
     78 CA         17.7447   -6.9954   17.1681 C.3       3 GLY6        0.0000 
     79 CA         17.7245   -5.8065   16.2537 C.3       3 GLY6        0.0000 
     80 CA         16.3783  -13.1458   21.5046 C.3       3 GLY6        0.0000 
     81 CZ         16.2977   -8.3901   17.8471 C.ar      2 PHE5        0.0000 
     82 DU         16.2776   -7.2012   16.9328 H         4 CUB7        0.0000 
     83 O          16.2575   -6.0123   16.0184 O.2       1 ALA2        0.0000 
     84 CA         14.8911  -12.1627   20.3549 C.3       3 GLY6        0.0000 
     85 CA         14.8709  -10.9738   19.4406 C.3       3 GLY6        0.0000 
     86 O          14.8508   -9.7849   18.5262 O.2       1 ALA2        0.0000 
     87 CA         14.8307   -8.5960   17.6118 C.3       3 GLY6        0.0000 
     88 CZ         14.8105   -7.4070   16.6975 C.ar      2 PHE5        0.0000 
     89 O          14.7904   -6.2181   15.7831 O.2       1 ALA2        0.0000 
     90 CZ         17.4528   -7.2932   19.2480 C.ar      2 PHE5        0.0000 
     91 CZ         17.4327   -6.1043   18.3337 C.ar      2 PHE5        0.0000 
     92 CA         17.4125   -4.9154   17.4193 C.3       3 GLY6        0.0000 
     93 CZ         15.9858   -7.4990   19.0127 C.ar      2 PHE5        0.0000 
     94 CZ         15.9656   -6.3101   18.0984 C.ar      2 PHE5        0.0000 
     95 N          15.9455   -5.1212   17.1840 N.2       1 ALA2        0.0000 
     96 N          14.4986   -6.5159   17.8630 N.2       1 ALA2        0.0000 
@<TRIPOS>BOND
@<TRIPOS>SUBSTRUCTURE
     1 ALA2       23 GROUP   
     2 PHE5        3 GROUP   
     3 GLY6        1 GROUP   
     4 CUB7        9 GROUP   
@<TRIPOS>SET

