#    Name: 3lep_388_1_INTS_M
#    Modification time : Mon Mar 24 21:34:56 2014

@<TRIPOS>MOLECULE
3lep_388_1_INTS_M
   68     0     6     0     0
SMALL
NO_CHARGES


@<TRIPOS>ATOM
      1 CA         17.5005   -4.3930   14.2735 C.3       2 GLC5        0.0000 
      2 CA         18.2960   -5.9150   13.8090 C.3       6 GLL5        0.0000 
      3 CA         16.7050   -2.8710   14.7380 C.3       4 GLP5        0.0000 
      4 CA         19.4540   -4.5370   15.0465 C.3       2 GLC5        0.0000 
      5 CA         20.6120   -3.1590   16.2840 C.3       4 GLP5        0.0000 
      6 CA         18.2965   -2.9615   13.0555 C.3       2 GLC5        0.0000 
      7 CA         19.1030   -3.9560   12.0300 C.3       6 GLL5        0.0000 
      8 CA         17.4900   -1.9670   14.0810 C.3       4 GLP5        0.0000 
      9 CA         19.0945   -3.1120   10.0195 C.3       2 GLC5        0.0000 
     10 CA         19.0860   -2.2680    8.0090 C.3       4 GLP5        0.0000 
     11 CA         19.5975   -1.7765   12.2320 C.3       2 GLC5        0.0000 
     12 CA         20.0920    0.4030   12.4340 C.3       4 GLP5        0.0000 
     13 CA         16.9960   -4.6405    8.8710 C.3       2 GLC5        0.0000 
     14 CA         17.0820   -3.8190   10.8580 C.3       6 GLL5        0.0000 
     15 CA         16.9100   -5.4620    6.8840 C.3       4 GLP5        0.0000 
     16 CA         13.9955   -2.2630    8.4025 C.3       2 GLC5        0.0000 
     17 CA         14.7340   -3.4510    9.3980 C.3       6 GLL5        0.0000 
     18 CA         13.2570   -1.0750    7.4070 C.3       4 GLP5        0.0000 
     19 CA         13.6135   -4.9945    8.9155 C.3       2 GLC5        0.0000 
     20 CA         12.4930   -6.5380    8.4330 C.3       4 GLP5        0.0000 
     21 CA         15.8220   -4.4565    8.1410 C.3       2 GLC5        0.0000 
     22 CA         16.4300   -2.5980    8.2900 C.3       2 GLC5        0.0000 
     23 CA         18.1260   -1.7450    7.1820 C.3       4 GLP5        0.0000 
     24 CA         13.8610   -3.5880   11.9280 C.3       2 GLC5        0.0000 
     25 CA         15.2570   -5.2640   11.5560 C.3       6 GLL5        0.0000 
     26 CA         12.4650   -1.9120   12.3000 C.3       4 GLP5        0.0000 
     27 CA         17.1405   -7.2130   11.3725 C.3       2 GLC5        0.0000 
     28 CA         16.0610   -5.8260   12.5340 C.3       6 GLL5        0.0000 
     29 CA         18.2200   -8.6000   10.2110 C.3       4 GLP5        0.0000 
     30 CA         13.3675  -10.6650   16.1030 C.3       2 GLC5        0.0000 
     31 CA         15.5950  -10.8200   16.0950 C.3       6 GLL5        0.0000 
     32 CA         11.1400  -10.5100   16.1110 C.3       4 GLP5        0.0000 
     33 CA         15.4295  -10.7125   19.9540 C.3       2 GLC5        0.0000 
     34 CA         14.3750  -11.2700   18.4380 C.3       6 GLL5        0.0000 
     35 CA         16.4840  -10.1550   21.4700 C.3       4 GLP5        0.0000 
     36 CA         13.6925  -10.1100   19.7850 C.3       2 GLC5        0.0000 
     37 CA         13.0100   -8.9500   21.1320 C.3       4 GLP5        0.0000 
     38 CA         17.4965   -7.5555   19.9725 C.3       2 GLC5        0.0000 
     39 CA         16.9590   -6.5870   18.5110 C.3       6 GLL5        0.0000 
     40 CA         18.0340   -8.5240   21.4340 C.3       4 GLP5        0.0000 
     41 CA         15.2365   -7.1355   19.6860 C.3       2 GLC5        0.0000 
     42 CA         13.5140   -7.6840   20.8610 C.3       4 GLP5        0.0000 
     43 CA         18.5540   -5.4170   18.0740 C.3       2 GLC5        0.0000 
     44 CA         20.1490   -4.2470   17.6370 C.3       4 GLP5        0.0000 
     45 CA         17.1330   -4.9870   19.2235 C.3       2 GLC5        0.0000 
     46 CA         17.3070   -3.3870   19.9360 C.3       4 GLP5        0.0000 
     47 N          14.4235   -5.3915   20.3060 N.am      1 SEC2        0.0000 
     48 N          14.9920   -5.4030   19.0520 N.am      5 SEL2        0.0000 
     49 N          13.8550   -5.3800   21.5600 N.am      3 SEP2        0.0000 
     50 N          13.8160   -4.9370   18.6135 N.am      1 SEC2        0.0000 
     51 N          12.6400   -4.4710   18.1750 N.am      3 SEP2        0.0000 
     52 N          14.9450   -4.7340   15.8660 N.am      1 SEC2        0.0000 
     53 N          15.5110   -5.6740   16.8770 N.am      5 SEL2        0.0000 
     54 N          14.3790   -3.7940   14.8550 N.am      3 SEP2        0.0000 
     55 CA         18.9052   -6.2435   11.6950 C.3       2 GLC5        0.0000 
     56 CA         17.3890   -5.3910   12.7230 C.3       6 GLL5        0.0000 
     57 CA         19.9680   -6.8340   10.1240 C.3       4 GLP5        0.0000 
     58 CA         20.3515   -3.8787   12.0108 C.3       2 GLC5        0.0000 
     59 CA         17.8490   -4.4110   11.8550 C.3       6 GLL5        0.0000 
     60 CA         22.2270   -3.5740   12.0790 C.3       4 GLP5        0.0000 
     61 CA         18.8735   -5.4176   10.7621 C.3       2 GLC5        0.0000 
     62 CA         13.8625   -2.8865   11.1810 C.3       2 GLC5        0.0000 
     63 CA         15.7860   -4.2710   10.7260 C.3       6 GLL5        0.0000 
     64 CA         15.7387   -5.8187    9.3385 C.3       2 GLC5        0.0000 
     65 CA         15.9560   -6.8700    7.5360 C.3       4 GLP5        0.0000 
     66 CA         13.1260   -9.8010   17.9130 C.3       2 GLC5        0.0000 
     67 CA         15.3910  -10.3800   17.3840 C.3       6 GLL5        0.0000 
     68 CA         11.3690   -8.7770   17.9150 C.3       4 GLP5        0.0000 
@<TRIPOS>BOND
@<TRIPOS>SUBSTRUCTURE
     1 SEC2       47 GROUP        1 X    SEC  0     ROOT SEC X 2
     2 GLC5        1 GROUP        1 X    GLC  0     **** GLC X 6
     3 SEP2       49 GROUP        1 Y    SEP  0     ROOT SEP Y 9
     4 GLP5        3 GROUP        1 Y    GLP  0     **** GLP Y 13
     5 SEL2       48 GROUP        1 Z    SEL  0     ROOT SEL Z 16
     6 GLL5        2 GROUP        1 Z    GLL  0     **** GLL Z 20
@<TRIPOS>SET

