#    Name: 3lep_388_1_ligand
#    Modification time : Mon Mar 24 21:34:56 2014

@<TRIPOS>MOLECULE
3lep_388_1_ligand
   35    36     1     0     0
SMALL
NO_CHARGES


@<TRIPOS>ATOM
      1 C1         18.2960   -5.9150   13.8090 C.3       1 388600      0.0000 
      2 N10        17.6690   -6.7620   14.7810 N.am      1 388600      0.0000 
      3 C11        17.8020   -8.1210   14.6960 C.2       1 388600      0.0000 
      4 O12        18.4310   -8.6280   13.7890 O.2       1 388600      0.0000 
      5 C2         17.3890   -5.3910   12.7230 C.ar      1 388600      0.0000 
      6 C7         17.8490   -4.4110   11.8550 C.ar      1 388600      0.0000 
      7 F9         19.1030   -3.9560   12.0300 F         1 388600      0.0000 
      8 C6         17.0820   -3.8190   10.8580 C.ar      1 388600      0.0000 
      9 C5         15.7860   -4.2710   10.7260 C.ar      1 388600      0.0000 
     10 BR8        14.7340   -3.4510    9.3980 Br        1 388600      0.0000 
     11 C4         15.2570   -5.2640   11.5560 C.ar      1 388600      0.0000 
     12 C3         16.0610   -5.8260   12.5340 C.ar      1 388600      0.0000 
     13 C8         16.9770   -8.8590   15.6910 C.ar      1 388600      0.0000 
     14 C9         16.4300  -10.0450   15.2780 C.ar      1 388600      0.0000 
     15 C10        15.5950  -10.8200   16.0950 C.ar      1 388600      0.0000 
     16 C12        15.3910  -10.3800   17.3840 C.ar      1 388600      0.0000 
     17 CL1        14.3750  -11.2700   18.4380 Cl        1 388600      0.0000 
     18 C14        15.9790   -9.1960   17.8560 C.ar      1 388600      0.0000 
     19 C15        16.8010   -8.4560   17.0110 C.ar      1 388600      0.0000 
     20 O20        17.4790   -7.3480   17.4350 O.3       1 388600      0.0000 
     21 C21        16.9590   -6.5870   18.5110 C.3       1 388600      0.0000 
     22 C22        15.7180   -5.8290   18.0850 C.2       1 388600      0.0000 
     23 O24        14.9920   -5.4030   19.0520 O.co2     1 388600      0.0000 
     24 O23        15.5110   -5.6740   16.8770 O.co2     1 388600      0.0000 
     25 H          19.1478   -6.4492   13.3115 H         1 388600      0.0000 
     26 H          18.7753   -5.0313   14.3068 H         1 388600      0.0000 
     27 H          17.1255   -6.3199   15.5309 H         1 388600      0.0000 
     28 H          17.4586   -3.0975   10.2655 H         1 388600      0.0000 
     29 H          14.2880   -5.5675   11.4379 H         1 388600      0.0000 
     30 H          15.6917   -6.5769   13.1405 H         1 388600      0.0000 
     31 H          16.6364  -10.3997   14.3124 H         1 388600      0.0000 
     32 H          15.1669  -11.6631   15.7424 H         1 388600      0.0000 
     33 H          15.8017   -8.8844   18.8131 H         1 388600      0.0000 
     34 H          17.6922   -5.8507   18.8822 H         1 388600      0.0000 
     35 H          16.6855   -7.2257   19.3681 H         1 388600      0.0000 
@<TRIPOS>BOND
     1    2    1 1    
     2    5    1 1    
     3   25    1 1    
     4   26    1 1    
     5    3    2 am   
     6   27    2 1    
     7    4    3 2    
     8   13    3 1    
     9    6    5 ar   
    10   12    5 ar   
    11    7    6 1    
    12    8    6 ar   
    13    9    8 ar   
    14   28    8 1    
    15   10    9 1    
    16   11    9 ar   
    17   12   11 ar   
    18   29   11 1    
    19   30   12 1    
    20   14   13 ar   
    21   19   13 ar   
    22   15   14 ar   
    23   31   14 1    
    24   16   15 ar   
    25   32   15 1    
    26   17   16 1    
    27   18   16 ar   
    28   19   18 ar   
    29   33   18 1    
    30   20   19 1    
    31   21   20 1    
    32   22   21 1    
    33   34   21 1    
    34   35   21 1    
    35   23   22 ar   
    36   24   22 ar   
@<TRIPOS>SUBSTRUCTURE
     1 388600      1 GROUP   
@<TRIPOS>SET

