#    Name: 3u8l_09Q_1_INTS_M
#    Modification time : Mon Mar 24 21:45:14 2014

@<TRIPOS>MOLECULE
3u8l_09Q_1_INTS_M
   43     0     3     0     0
SMALL
NO_CHARGES


@<TRIPOS>ATOM
      1 CA         -3.5625   26.4450   31.3490 C.3       1 GLC5        0.0000 
      2 CA         -4.7900   25.2370   32.5140 C.3       3 GLL5        0.0000 
      3 CA         -2.3350   27.6530   30.1840 C.3       2 GLP5        0.0000 
      4 CA         -4.5255   24.7270   34.4680 C.3       1 GLC5        0.0000 
      5 CA         -4.2610   24.2170   36.4220 C.3       2 GLP5        0.0000 
      6 CA         -4.0560   27.4825   31.5010 C.3       1 GLC5        0.0000 
      7 CA         -5.7770   27.3120   32.8180 C.3       3 GLL5        0.0000 
      8 CA         -9.1975   25.1755   31.8600 C.3       1 GLC5        0.0000 
      9 CA         -7.0280   25.5650   31.7450 C.3       3 GLL5        0.0000 
     10 CA        -11.3670   24.7860   31.9750 C.3       2 GLP5        0.0000 
     11 CA         -9.2530   21.3260   29.3750 C.3       1 GLC5        0.0000 
     12 CA         -7.9770   22.9150   29.9330 C.3       3 GLL5        0.0000 
     13 CA        -10.5290   19.7370   28.8170 C.3       2 GLP5        0.0000 
     14 CA         -9.6720   23.8505   30.9540 C.3       1 GLC5        0.0000 
     15 CA         -8.6565   24.1865   28.8330 C.3       1 GLC5        0.0000 
     16 CA         -9.3360   25.4580   27.7330 C.3       2 GLP5        0.0000 
     17 CA         -6.0030   20.3505   28.1715 C.3       1 GLC5        0.0000 
     18 CA         -7.4690   21.8730   28.9170 C.3       3 GLL5        0.0000 
     19 CA         -4.5370   18.8280   27.4260 C.3       2 GLP5        0.0000 
     20 CA         -8.5120   20.5335   28.4520 C.3       1 GLC5        0.0000 
     21 CA         -9.5550   19.1940   27.9870 C.3       2 GLP5        0.0000 
     22 CA         -8.1985   22.5895   27.4725 C.3       1 GLC5        0.0000 
     23 CA         -8.9280   23.3060   26.0280 C.3       2 GLP5        0.0000 
     24 CA         -5.1300   19.7185   29.3525 C.3       1 GLC5        0.0000 
     25 CA         -5.3540   21.3360   30.1580 C.3       3 GLL5        0.0000 
     26 CA         -4.9060   18.1010   28.5470 C.3       2 GLP5        0.0000 
     27 CA         -3.4940   21.1455   29.9750 C.3       1 GLC5        0.0000 
     28 CA         -1.6340   20.9550   29.7920 C.3       2 GLP5        0.0000 
     29 CA         -5.4615   19.4085   31.3060 C.3       1 GLC5        0.0000 
     30 CA         -5.5690   17.4810   32.4540 C.3       2 GLP5        0.0000 
     31 CA         -3.2970   22.2730   31.5295 C.3       1 GLC5        0.0000 
     32 CA         -4.9480   22.4790   31.1180 C.3       3 GLL5        0.0000 
     33 CA         -1.6460   22.0670   31.9410 C.3       2 GLP5        0.0000 
     34 CA         -8.4025   30.2767   31.1271 C.3       1 GLC5        0.0000 
     35 CA         -8.3060   28.3480   30.7320 C.3       3 GLL5        0.0000 
     36 CA         -7.1260   31.5750   31.2840 C.3       2 GLP5        0.0000 
     37 CA        -10.4456   26.4844   32.2561 C.3       1 GLC5        0.0000 
     38 CA         -8.1650   27.7160   31.9910 C.3       3 GLL5        0.0000 
     39 CA         -9.9005   28.8498   34.7302 C.3       1 GLC5        0.0000 
     40 CA         -9.2160   27.8310   32.9280 C.3       3 GLL5        0.0000 
     41 CA        -10.0140   29.4880   36.6890 C.3       2 GLP5        0.0000 
     42 CA         -6.4210   29.2505   32.4305 C.3       1 GLC5        0.0000 
     43 CA         -6.1650   31.1970   32.3940 C.3       2 GLP5        0.0000 
@<TRIPOS>BOND
@<TRIPOS>SUBSTRUCTURE
     1 GLC5        1 GROUP        1 X    GLC  0     ROOT GLC X 6
     2 GLP5        3 GROUP        1 Y    GLP  0     ROOT GLP Y 13
     3 GLL5        2 GROUP        1 Z    GLL  0     ROOT GLL Z 20
@<TRIPOS>SET

