#    Name: 3u8l_09Q_1_ligand
#    Modification time : Mon Mar 24 21:45:14 2014

@<TRIPOS>MOLECULE
3u8l_09Q_1_ligand
   37    39     1     0     0
SMALL
NO_CHARGES


@<TRIPOS>ATOM
      1 C1         -8.1650   27.7160   31.9910 C.ar      1 09Q211      0.0000 
      2 C2         -8.3060   28.3480   30.7320 C.ar      1 09Q211      0.0000 
      3 C3         -9.4500   29.1080   30.4170 C.ar      1 09Q211      0.0000 
      4 C4        -10.4800   29.2290   31.3660 C.ar      1 09Q211      0.0000 
      5 C5        -10.3580   28.5920   32.6150 C.ar      1 09Q211      0.0000 
      6 C6         -9.2160   27.8310   32.9280 C.ar      1 09Q211      0.0000 
      7 C7         -4.7900   25.2370   32.5140 C.ar      1 09Q211      0.0000 
      8 C8         -5.7770   27.3120   32.8180 C.ar      1 09Q211      0.0000 
      9 C9         -6.9890   26.8760   32.2410 C.ar      1 09Q211      0.0000 
     10 C10        -7.0280   25.5650   31.7450 C.ar      1 09Q211      0.0000 
     11 C11        -5.9390   24.6840   31.8830 C.ar      1 09Q211      0.0000 
     12 C12        -7.3790   22.7160   31.3300 C.3       1 09Q211      0.0000 
     13 C13        -7.9770   22.9150   29.9330 C.3       1 09Q211      0.0000 
     14 C14        -7.4690   21.8730   28.9170 C.3       1 09Q211      0.0000 
     15 C15        -5.3540   21.3360   30.1580 C.3       1 09Q211      0.0000 
     16 C16        -4.9480   22.4790   31.1180 C.3       1 09Q211      0.0000 
     17 N1         -6.0670   23.3830   31.4600 N.3       1 09Q211      0.0000 
     18 N2         -5.9930   21.7980   28.9020 N.4       1 09Q211      0.0000 
     19 N3         -4.7010   26.5030   32.9760 N.ar      1 09Q211      0.0000 
     20 H          -7.5548   28.2484   30.0333 H         1 09Q211      0.0000 
     21 H          -9.5284   29.5646   29.5103 H         1 09Q211      0.0000 
     22 H         -11.3144   29.7772   31.1505 H         1 09Q211      0.0000 
     23 H         -11.1126   28.6836   33.3078 H         1 09Q211      0.0000 
     24 H          -9.1450   27.3608   33.8324 H         1 09Q211      0.0000 
     25 H          -3.9570   24.5841   32.6155 H         1 09Q211      0.0000 
     26 H          -5.7298   28.3150   33.1325 H         1 09Q211      0.0000 
     27 H          -7.8835   25.2325   31.2618 H         1 09Q211      0.0000 
     28 H          -7.2810   21.6383   31.5117 H         1 09Q211      0.0000 
     29 H          -8.0869   23.1154   32.0671 H         1 09Q211      0.0000 
     30 H          -7.7204   23.9155   29.5711 H         1 09Q211      0.0000 
     31 H          -9.0674   22.8452   29.9953 H         1 09Q211      0.0000 
     32 H          -7.8509   22.1498   27.9267 H         1 09Q211      0.0000 
     33 H          -7.9016   20.9007   29.1825 H         1 09Q211      0.0000 
     34 H          -6.0354   20.6602   30.7080 H         1 09Q211      0.0000 
     35 H          -4.4451   20.7478   29.9312 H         1 09Q211      0.0000 
     36 H          -4.1285   23.0434   30.6412 H         1 09Q211      0.0000 
     37 H          -4.5310   22.0196   32.0304 H         1 09Q211      0.0000 
@<TRIPOS>BOND
     1    2    1 ar   
     2    6    1 ar   
     3    9    1 1    
     4    3    2 ar   
     5   20    2 1    
     6    4    3 ar   
     7   21    3 1    
     8    5    4 ar   
     9   22    4 1    
    10    6    5 ar   
    11   23    5 1    
    12   24    6 1    
    13   11    7 ar   
    14   19    7 ar   
    15   25    7 1    
    16    9    8 ar   
    17   19    8 ar   
    18   26    8 1    
    19   10    9 ar   
    20   11   10 ar   
    21   27   10 1    
    22   17   11 1    
    23   13   12 1    
    24   17   12 1    
    25   28   12 1    
    26   29   12 1    
    27   14   13 1    
    28   30   13 1    
    29   31   13 1    
    30   18   14 1    
    31   32   14 1    
    32   33   14 1    
    33   16   15 1    
    34   18   15 1    
    35   34   15 1    
    36   35   15 1    
    37   17   16 1    
    38   36   16 1    
    39   37   16 1    
@<TRIPOS>SUBSTRUCTURE
     1 09Q211      1 GROUP   
@<TRIPOS>SET

