#    Name: 2bm9_SAM_5_INTS_M
#    Modification time : Mon Mar 24 21:11:44 2014

@<TRIPOS>MOLECULE
2bm9_SAM_5_INTS_M
   80     0    15     0     0
SMALL
NO_CHARGES


@<TRIPOS>ATOM
      1 OD1        15.5220   58.4090   88.5360 O.co2     3 ASC3        0.0000 
      2 OD1        15.5540   56.8580   88.4000 O.co2    13 ASL3        0.0000 
      3 OD1        15.4900   59.9600   88.6720 O.co2     8 ASP3        0.0000 
      4 O          15.5220   58.4090   88.5360 O.2       1 ALC1        0.0000 
      5 O          15.5540   56.8580   88.4000 O.2      11 ALL1        0.0000 
      6 O          15.4900   59.9600   88.6720 O.2       6 ALP1        0.0000 
      7 O          14.7255   57.3280   89.4625 O.2       1 ALC1        0.0000 
      8 O          13.8970   57.7980   90.5250 O.2       6 ALP1        0.0000 
      9 NZ         16.8235   57.8650   84.9710 N.4       4 LYC4        0.0000 
     10 NZ         16.3760   56.1180   84.9810 N.4      14 LYL4        0.0000 
     11 NZ         17.2710   59.6120   84.9610 N.4       9 LYP4        0.0000 
     12 NZ         17.1650   58.5975   85.6300 N.4       4 LYC4        0.0000 
     13 NZ         17.0590   57.5830   86.2990 N.4      14 LYL4        0.0000 
     14 N          17.1650   58.5975   85.6300 N.am      2 SEC2        0.0000 
     15 N          17.0590   57.5830   86.2990 N.am     12 SEL2        0.0000 
     16 N          17.2710   59.6120   84.9610 N.am      7 SEP2        0.0000 
     17 N          18.2885   57.4855   86.7305 N.am      2 SEC2        0.0000 
     18 N          19.5180   57.3880   87.1620 N.am      7 SEP2        0.0000 
     19 CA         12.3810   56.5100   89.5105 C.3       5 GLC5        0.0000 
     20 CA         13.1870   55.2420   87.9390 C.3      15 GLL5        0.0000 
     21 CA         11.5750   57.7780   91.0820 C.3      10 GLP5        0.0000 
     22 CA         14.0130   53.5990   89.1705 C.3       5 GLC5        0.0000 
     23 CA         14.8390   51.9560   90.4020 C.3      10 GLP5        0.0000 
     24 CA         12.7695   56.8325   87.0715 C.3       5 GLC5        0.0000 
     25 CA         12.3520   58.4230   86.2040 C.3      10 GLP5        0.0000 
     26 CA         11.9830   56.2315   86.0265 C.3       5 GLC5        0.0000 
     27 CA         11.6140   54.0400   85.8490 C.3      15 GLL5        0.0000 
     28 CA          9.1215   56.3825   87.9700 C.3       5 GLC5        0.0000 
     29 CA         10.4070   54.7340   88.2910 C.3      15 GLL5        0.0000 
     30 CA          7.8360   58.0310   87.6490 C.3      10 GLP5        0.0000 
     31 N          12.6170   53.4150   91.7705 N.am      2 SEC2        0.0000 
     32 N          11.0200   53.1300   91.4560 N.am     12 SEL2        0.0000 
     33 N          14.2140   53.7000   92.0850 N.am      7 SEP2        0.0000 
     34 N          10.9220   51.7200   92.3550 N.am      2 SEC2        0.0000 
     35 N          10.8240   50.3100   93.2540 N.am      7 SEP2        0.0000 
     36 O          10.9875   54.0705   92.3475 O.2       1 ALC1        0.0000 
     37 O          11.0200   53.1300   91.4560 O.2      11 ALL1        0.0000 
     38 O          10.9550   55.0110   93.2390 O.2       6 ALP1        0.0000 
     39 N           9.7480   51.5440   92.7530 N.am      2 SEC2        0.0000 
     40 N           8.6720   52.7780   92.2520 N.am     12 SEL2        0.0000 
     41 O           9.0675   53.7280   93.4805 O.2       1 ALC1        0.0000 
     42 O           8.6720   52.7780   92.2520 O.2      11 ALL1        0.0000 
     43 O           9.4630   54.6780   94.7090 O.2       6 ALP1        0.0000 
     44 O           9.8135   53.8945   92.7455 O.2       1 ALC1        0.0000 
     45 CA         10.0165   56.3490   91.1175 C.3       5 GLC5        0.0000 
     46 CA          8.4580   54.9200   91.1530 C.3      15 GLL5        0.0000 
     47 CA          7.9430   56.7105   90.0865 C.3       5 GLC5        0.0000 
     48 CA          7.4280   58.5010   89.0200 C.3      10 GLP5        0.0000 
     49 CA          3.7680   59.1295   91.8345 C.3       5 GLC5        0.0000 
     50 CA          4.2330   57.1520   91.9100 C.3      15 GLL5        0.0000 
     51 CA          3.3030   61.1070   91.7590 C.3      10 GLP5        0.0000 
     52 N           3.8280   59.1145   93.4415 N.am      2 SEC2        0.0000 
     53 N           4.7030   58.0320   92.8540 N.am     12 SEL2        0.0000 
     54 N           2.9530   60.1970   94.0290 N.am      7 SEP2        0.0000 
     55 CA          7.8305   57.8335   94.2555 C.3       5 GLC5        0.0000 
     56 CA          6.0270   58.0110   93.2260 C.3      15 GLL5        0.0000 
     57 CA          9.6340   57.6560   95.2850 C.3      10 GLP5        0.0000 
     58 CA          5.6795   56.3770   94.0315 C.3       5 GLC5        0.0000 
     59 CA          5.3320   54.7430   94.8370 C.3      10 GLP5        0.0000 
     60 CA          4.5980   58.4895   94.6720 C.3       5 GLC5        0.0000 
     61 CA          3.1690   58.9680   96.1180 C.3      10 GLP5        0.0000 
     62 CA          5.5440   59.6995   92.3405 C.3       5 GLC5        0.0000 
     63 CA          5.0610   61.3880   91.4550 C.3      10 GLP5        0.0000 
     64 CA          6.7275   58.2560   91.1230 C.3       5 GLC5        0.0000 
     65 N           7.2470   56.7720   94.2715 N.am      2 SEC2        0.0000 
     66 N           6.8800   57.0990   92.6460 N.am     12 SEL2        0.0000 
     67 N           7.6140   56.4450   95.8970 N.am      7 SEP2        0.0000 
     68 CA         15.6283   53.9410   86.6393 C.3       5 GLC5        0.0000 
     69 CA         14.2760   55.3640   86.8580 C.3      15 GLL5        0.0000 
     70 CA         16.2920   52.2480   86.2010 C.3      10 GLP5        0.0000 
     71 CA         13.6583   57.0285   86.6407 C.3       5 GLC5        0.0000 
     72 CA         11.9413   52.2515   86.9300 C.3       5 GLC5        0.0000 
     73 CA         11.9130   53.9740   87.6370 C.3      15 GLL5        0.0000 
     74 CA         12.1190   50.4960   87.1170 C.3      10 GLP5        0.0000 
     75 CA         10.9733   56.2602   90.0662 C.3       5 GLC5        0.0000 
     76 CA          6.5928   57.3693   90.2738 C.3       5 GLC5        0.0000 
     77 CA          5.0960   56.2430   91.3350 C.3      15 GLL5        0.0000 
     78 CA          3.6477   57.6352   90.0537 C.3       5 GLC5        0.0000 
     79 CA          2.6310   58.5730   88.4850 C.3      10 GLP5        0.0000 
     80 CA          5.4369   55.6039   93.2541 C.3       5 GLC5        0.0000 
@<TRIPOS>BOND
@<TRIPOS>SUBSTRUCTURE
     1 ALC1        4 GROUP        1 X    ALC  0     ROOT ALC X 1
     2 SEC2       14 GROUP        1 X    SEC  0     **** SEC X 2
     3 ASC3        1 GROUP        1 X    ASC  0     **** ASC X 3
     4 LYC4        9 GROUP        1 X    LYC  0     **** LYC X 4
     5 GLC5       19 GROUP        1 X    GLC  0     **** GLC X 6
     6 ALP1        6 GROUP        1 Y    ALP  0     ROOT ALP Y 8
     7 SEP2       16 GROUP        1 Y    SEP  0     **** SEP Y 9
     8 ASP3        3 GROUP        1 Y    ASP  0     **** ASP Y 10
     9 LYP4       11 GROUP        1 Y    LYP  0     **** LYP Y 11
    10 GLP5       21 GROUP        1 Y    GLP  0     **** GLP Y 13
    11 ALL1        5 GROUP        1 Z    ALL  0     ROOT ALL Z 15
    12 SEL2       15 GROUP        1 Z    SEL  0     **** SEL Z 16
    13 ASL3        2 GROUP        1 Z    ASL  0     **** ASL Z 17
    14 LYL4       10 GROUP        1 Z    LYL  0     **** LYL Z 18
    15 GLL5       20 GROUP        1 Z    GLL  0     **** GLL Z 20
@<TRIPOS>SET

