#    Name: 2bm9_SAM_5_ligand
#    Modification time : Mon Mar 24 21:11:44 2014

@<TRIPOS>MOLECULE
2bm9_SAM_5_ligand
   50    52     1     0     0
SMALL
NO_CHARGES


@<TRIPOS>ATOM
      1 N          15.5540   56.8580   88.4000 N.4       1 SAM301      0.0000 
      2 CA         15.6530   55.9040   87.2970 C.3       1 SAM301      0.0000 
      3 C          16.3960   56.5630   86.1300 C.2       1 SAM301      0.0000 
      4 O          16.3760   56.1180   84.9810 O.co2     1 SAM301      0.0000 
      5 OXT        17.0590   57.5830   86.2990 O.co2     1 SAM301      0.0000 
      6 CB         14.2760   55.3640   86.8580 C.3       1 SAM301      0.0000 
      7 CG         13.1870   55.2420   87.9390 C.3       1 SAM301      0.0000 
      8 SD         11.9130   53.9740   87.6370 S.3       1 SAM301      0.0000 
      9 CE         11.6140   54.0400   85.8490 C.3       1 SAM301      0.0000 
     10 C5'        10.4070   54.7340   88.2910 C.3       1 SAM301      0.0000 
     11 C4'        10.3360   54.7510   89.8100 C.3       1 SAM301      0.0000 
     12 O4'         9.2490   55.5650   90.1890 O.3       1 SAM301      0.0000 
     13 C3'        10.1020   53.3800   90.4240 C.3       1 SAM301      0.0000 
     14 O3'        11.0200   53.1300   91.4560 O.3       1 SAM301      0.0000 
     15 C2'         8.7180   53.4330   91.0100 C.3       1 SAM301      0.0000 
     16 O2'         8.6720   52.7780   92.2520 O.3       1 SAM301      0.0000 
     17 C1'         8.4580   54.9200   91.1530 C.3       1 SAM301      0.0000 
     18 N9          7.0370   55.2540   91.0060 N.pl3     1 SAM301      0.0000 
     19 C8          6.1030   54.6700   90.1940 C.2       1 SAM301      0.0000 
     20 N7          4.9220   55.2850   90.4080 N.2       1 SAM301      0.0000 
     21 C5          5.0960   56.2430   91.3350 C.ar      1 SAM301      0.0000 
     22 C6          4.2330   57.1520   91.9100 C.ar      1 SAM301      0.0000 
     23 N6          2.9630   57.1730   91.5480 N.pl3     1 SAM301      0.0000 
     24 N1          4.7030   58.0320   92.8540 N.ar      1 SAM301      0.0000 
     25 C2          6.0270   58.0110   93.2260 C.ar      1 SAM301      0.0000 
     26 N3          6.8800   57.0990   92.6460 N.ar      1 SAM301      0.0000 
     27 C4          6.4190   56.2320   91.7200 C.ar      1 SAM301      0.0000 
     28 H          16.2581   55.0437   87.6151 H         1 SAM301      0.0000 
     29 H          14.4246   54.3622   86.3918 H         1 SAM301      0.0000 
     30 H          13.8893   56.0141   86.0390 H         1 SAM301      0.0000 
     31 H          12.5921   56.1419   88.0470 H         1 SAM301      0.0000 
     32 H          13.5785   54.9463   88.9058 H         1 SAM301      0.0000 
     33 H           9.6320   54.1405   87.8305 H         1 SAM301      0.0000 
     34 H          10.4372   55.7189   87.8504 H         1 SAM301      0.0000 
     35 H          11.2607   55.1479   90.1976 H         1 SAM301      0.0000 
     36 H          10.1179   52.6532   89.6524 H         1 SAM301      0.0000 
     37 H           8.0352   53.0468   90.2890 H         1 SAM301      0.0000 
     38 H           8.7948   55.2005   92.1593 H         1 SAM301      0.0000 
     39 H           6.2707   53.9494   89.5831 H         1 SAM301      0.0000 
     40 H           2.6874   56.4917   90.8698 H         1 SAM301      0.0000 
     41 H           2.3923   57.8683   91.9850 H         1 SAM301      0.0000 
     42 H           6.3783   58.6721   93.9329 H         1 SAM301      0.0000 
     43 H          15.5203   57.8023   88.0724 H         1 SAM301      0.0000 
     44 H          14.7309   56.7082   88.9478 H         1 SAM301      0.0000 
     45 H          16.3353   56.7907   89.0205 H         1 SAM301      0.0000 
     46 H          12.4425   53.8392   85.3262 H         1 SAM301      0.0000 
     47 H          10.9200   53.3789   85.5638 H         1 SAM301      0.0000 
     48 H          11.2958   54.9425   85.5587 H         1 SAM301      0.0000 
     49 H          10.6251   53.5658   92.2647 H         1 SAM301      0.0000 
     50 H           8.8945   53.4835   92.9249 H         1 SAM301      0.0000 
@<TRIPOS>BOND
     1    2    1 1    
     2   43    1 1    
     3   44    1 1    
     4   45    1 1    
     5    3    2 1    
     6    6    2 1    
     7   28    2 1    
     8    4    3 ar   
     9    5    3 ar   
    10    7    6 1    
    11   29    6 1    
    12   30    6 1    
    13    8    7 1    
    14   31    7 1    
    15   32    7 1    
    16    9    8 1    
    17   10    8 1    
    18   46    9 1    
    19   47    9 1    
    20   48    9 1    
    21   11   10 1    
    22   33   10 1    
    23   34   10 1    
    24   12   11 1    
    25   13   11 1    
    26   35   11 1    
    27   17   12 1    
    28   14   13 1    
    29   15   13 1    
    30   36   13 1    
    31   49   14 1    
    32   16   15 1    
    33   17   15 1    
    34   37   15 1    
    35   50   16 1    
    36   18   17 1    
    37   38   17 1    
    38   19   18 1    
    39   27   18 1    
    40   20   19 2    
    41   39   19 1    
    42   21   20 1    
    43   22   21 ar   
    44   27   21 ar   
    45   23   22 1    
    46   24   22 ar   
    47   40   23 1    
    48   41   23 1    
    49   25   24 ar   
    50   26   25 ar   
    51   42   25 1    
    52   27   26 ar   
@<TRIPOS>SUBSTRUCTURE
     1 SAM301      1 GROUP   
@<TRIPOS>SET

