#    Name: 3uba_HC4_1_ligand
#    Modification time : Mon Mar 24 22:07:19 2014

@<TRIPOS>MOLECULE
3uba_HC4_1_ligand
   19    19     1     0     0
SMALL
NO_CHARGES


@<TRIPOS>ATOM
      1 C1          0.3780    5.4090   29.8370 C.2       1 HC4700      0.0000 
      2 O1         -0.3950    5.9750   29.0360 O.co2     1 HC4700      0.0000 
      3 O2          0.1520    5.3390   31.0610 O.co2     1 HC4700      0.0000 
      4 C2          1.5820    4.7910   29.2770 C.2       1 HC4700      0.0000 
      5 C3          2.9750    4.7510   29.8480 C.2       1 HC4700      0.0000 
      6 C1'         3.9370    4.0280   28.9870 C.ar      1 HC4700      0.0000 
      7 C2'         4.3580    2.7370   29.2700 C.ar      1 HC4700      0.0000 
      8 C3'         5.2380    2.1140   28.3860 C.ar      1 HC4700      0.0000 
      9 C4'         5.6920    2.7610   27.2340 C.ar      1 HC4700      0.0000 
     10 C5'         5.2590    4.0370   26.9500 C.ar      1 HC4700      0.0000 
     11 C6'         4.3800    4.6470   27.8270 C.ar      1 HC4700      0.0000 
     12 O4'         6.5620    2.1440   26.3810 O.3       1 HC4700      0.0000 
     13 H           1.4727    4.2998   28.3395 H         1 HC4700      0.0000 
     14 H           3.1985    5.1510   30.6732 H         1 HC4700      0.0000 
     15 H           4.0334    2.2520   30.1043 H         1 HC4700      0.0000 
     16 H           5.5630    1.1505   28.5867 H         1 HC4700      0.0000 
     17 H           5.5780    4.5248   26.1111 H         1 HC4700      0.0000 
     18 H           4.0354    5.6113   27.6088 H         1 HC4700      0.0000 
     19 H           7.1394    2.7214   26.9584 H         1 HC4700      0.0000 
@<TRIPOS>BOND
     1    2    1 ar   
     2    3    1 ar   
     3    4    1 1    
     4    5    4 2    
     5   13    4 1    
     6    6    5 1    
     7   14    5 1    
     8    7    6 ar   
     9   11    6 ar   
    10    8    7 ar   
    11   15    7 1    
    12    9    8 ar   
    13   16    8 1    
    14   10    9 ar   
    15   12    9 1    
    16   11   10 ar   
    17   17   10 1    
    18   18   11 1    
    19   19   12 1    
@<TRIPOS>SUBSTRUCTURE
     1 HC4700      1 GROUP   
@<TRIPOS>SET

