#    Name: 3FQJ_1_CAVITY_N1_6.mol2
#    Modification time : Mon Mar 10 16:59:40 2014

@<TRIPOS>MOLECULE
3FQJ_1_CAVITY_N1_6.mol2
  146     0     6     0     0
SMALL
NO_CHARGES


@<TRIPOS>ATOM
      1 N          -9.0002  -35.6141   18.2663 N.2       1 ALA2        0.0000 
      2 N          -7.0634  -33.6638   20.1885 N.2       1 ALA2        0.0000 
      3 N          -6.1832  -33.3750   19.0087 N.2       1 ALA2        0.0000 
      4 NZ         -5.3031  -33.0863   17.8289 N.2       3 LYS4        0.0000 
      5 CA         -9.0991  -34.2024   20.4451 C.3       5 GLY6        0.0000 
      6 N          -8.2189  -33.9136   19.2653 N.2       1 ALA2        0.0000 
      7 N          -7.3388  -33.6249   18.0855 N.2       1 ALA2        0.0000 
      8 N          -6.4586  -33.3362   16.9057 N.2       1 ALA2        0.0000 
      9 CA        -10.2546  -34.4522   19.5220 C.3       5 GLY6        0.0000 
     10 N          -9.3745  -34.1635   18.3421 N.2       1 ALA2        0.0000 
     11 N          -8.4943  -33.8748   17.1623 N.2       1 ALA2        0.0000 
     12 N         -10.5300  -34.4134   17.4189 N.2       1 ALA2        0.0000 
     13 N          -9.6499  -34.1246   16.2391 N.2       1 ALA2        0.0000 
     14 NZ         -6.2821  -31.9633   21.1875 N.2       3 LYS4        0.0000 
     15 NZ         -4.5218  -31.3858   18.8279 N.2       3 LYS4        0.0000 
     16 O          -8.3177  -32.5019   21.4441 O.2       1 ALA2        0.0000 
     17 NZ         -7.4376  -32.2132   20.2643 N.2       3 LYS4        0.0000 
     18 NZ         -6.5575  -31.9244   19.0845 N.2       3 LYS4        0.0000 
     19 O          -5.6773  -31.6357   17.9047 O.2       1 ALA2        0.0000 
     20 O          -9.4733  -32.7518   20.5210 O.2       1 ALA2        0.0000 
     21 DU         -8.5931  -32.4630   19.3411 H         6 CUB7        0.0000 
     22 DU         -7.7130  -32.1743   18.1613 H         6 CUB7        0.0000 
     23 DU         -6.8329  -31.8856   16.9815 H         6 CUB7        0.0000 
     24 O          -5.9527  -31.5969   15.8017 O.2       1 ALA2        0.0000 
     25 DU        -10.6288  -33.0017   19.5978 H         6 CUB7        0.0000 
     26 DU         -9.7487  -32.7129   18.4179 H         6 CUB7        0.0000 
     27 DU         -8.8685  -32.4242   17.2381 H         6 CUB7        0.0000 
     28 N          -7.9884  -32.1355   16.0583 N.2       1 ALA2        0.0000 
     29 CA         -7.1083  -31.8467   14.8785 C.3       5 GLY6        0.0000 
     30 CA        -10.9042  -32.9628   17.4948 C.3       5 GLY6        0.0000 
     31 NZ        -10.0241  -32.6741   16.3149 N.2       3 LYS4        0.0000 
     32 CA         -9.1439  -32.3853   15.1351 C.3       5 GLY6        0.0000 
     33 CZ         -3.1897  -29.7631   24.0329 C.ar      4 PHE5        0.0000 
     34 O          -2.3095  -29.4744   22.8531 O.2       1 ALA2        0.0000 
     35 CZ         -4.3452  -30.0130   23.1097 C.ar      4 PHE5        0.0000 
     36 O          -3.4651  -29.7242   21.9299 O.2       1 ALA2        0.0000 
     37 N          -6.3809  -30.5516   23.3663 N.2       1 ALA2        0.0000 
     38 NZ         -5.5007  -30.2629   22.1865 N.2       3 LYS4        0.0000 
     39 NZ         -4.6206  -29.9741   21.0067 N.2       3 LYS4        0.0000 
     40 O          -3.7405  -29.6854   19.8269 O.2       1 ALA2        0.0000 
     41 N          -7.5364  -30.8015   22.4431 N.2       1 ALA2        0.0000 
     42 NZ         -6.6563  -30.5127   21.2633 N.2       3 LYS4        0.0000 
     43 NZ         -5.7761  -30.2240   20.0835 N.2       3 LYS4        0.0000 
     44 O          -4.8960  -29.9353   18.9037 O.2       1 ALA2        0.0000 
     45 DU         -8.6920  -31.0513   21.5200 H         6 CUB7        0.0000 
     46 DU         -7.8118  -30.7626   20.3401 H         6 CUB7        0.0000 
     47 DU         -6.9317  -30.4739   19.1603 H         6 CUB7        0.0000 
     48 O          -6.0515  -30.1851   17.9805 O.2       1 ALA2        0.0000 
     49 DU         -9.8475  -31.3012   20.5968 H         6 CUB7        0.0000 
     50 DU         -7.2071  -30.4350   17.0573 H         6 CUB7        0.0000 
     51 DU        -11.0031  -31.5511   19.6736 H         6 CUB7        0.0000 
     52 DU         -8.3626  -30.6849   16.1341 H         6 CUB7        0.0000 
     53 CA        -11.2785  -31.5122   17.5706 C.3       5 GLY6        0.0000 
     54 DU        -10.3983  -31.2235   16.3908 H         6 CUB7        0.0000 
     55 DU         -9.5182  -30.9347   15.2109 H         6 CUB7        0.0000 
     56 NZ         -8.6380  -30.6460   14.0311 N.2       3 LYS4        0.0000 
     57 NZ        -11.5539  -31.4733   15.4676 N.2       3 LYS4        0.0000 
     58 NZ        -10.6737  -31.1846   14.2877 N.2       3 LYS4        0.0000 
     59 CA         -9.7936  -30.8959   13.1079 C.3       5 GLY6        0.0000 
     60 CA         -1.5282  -27.7739   23.8521 C.3       5 GLY6        0.0000 
     61 CA         -0.6480  -27.4852   22.6722 C.3       5 GLY6        0.0000 
     62 CZ         -3.5639  -28.3125   24.1087 C.ar      4 PHE5        0.0000 
     63 CZ         -2.6837  -28.0238   22.9289 C.ar      4 PHE5        0.0000 
     64 O          -1.8036  -27.7351   21.7491 O.2       1 ALA2        0.0000 
     65 CZ         -4.7194  -28.5624   23.1855 C.ar      4 PHE5        0.0000 
     66 DU         -3.8393  -28.2737   22.0057 H         6 CUB7        0.0000 
     67 O          -2.9591  -27.9849   20.8259 O.2       1 ALA2        0.0000 
     68 NZ         -2.0790  -27.6962   19.6461 N.2       3 LYS4        0.0000 
     69 O          -5.8750  -28.8123   22.2623 O.2       1 ALA2        0.0000 
     70 DU         -4.9948  -28.5235   21.0825 H         6 CUB7        0.0000 
     71 DU         -4.1147  -28.2348   19.9027 H         6 CUB7        0.0000 
     72 NZ         -3.2345  -27.9461   18.7229 N.2       3 LYS4        0.0000 
     73 O          -8.7908  -29.6396   23.6988 O.2       1 ALA2        0.0000 
     74 O          -7.9107  -29.3509   22.5190 O.2       1 ALA2        0.0000 
     75 DU         -7.0305  -29.0621   21.3391 H         6 CUB7        0.0000 
     76 DU         -6.1504  -28.7734   20.1593 H         6 CUB7        0.0000 
     77 DU         -5.2702  -28.4847   18.9795 H         6 CUB7        0.0000 
     78 O          -4.3901  -28.1959   17.7997 O.2       1 ALA2        0.0000 
     79 DU         -9.0662  -29.6007   21.5958 H         6 CUB7        0.0000 
     80 DU         -6.4258  -28.7345   18.0563 H         6 CUB7        0.0000 
     81 DU        -10.2218  -29.8506   20.6726 H         6 CUB7        0.0000 
     82 DU         -9.3416  -29.5619   19.4928 H         6 CUB7        0.0000 
     83 CA        -11.3773  -30.1005   19.7494 C.3       5 GLY6        0.0000 
     84 DU        -10.4972  -29.8117   18.5696 H         6 CUB7        0.0000 
     85 DU        -11.6527  -30.0616   17.6464 H         6 CUB7        0.0000 
     86 DU        -10.7726  -29.7729   16.4666 H         6 CUB7        0.0000 
     87 CA        -12.8083  -30.3115   16.7232 C.3       5 GLY6        0.0000 
     88 NZ        -11.9281  -30.0228   15.5434 N.2       3 LYS4        0.0000 
     89 NZ        -11.0480  -29.7340   14.3636 N.2       3 LYS4        0.0000 
     90 CA         -1.9024  -26.3233   23.9279 C.3       5 GLY6        0.0000 
     91 CZ         -3.0580  -26.5732   23.0047 C.ar      4 PHE5        0.0000 
     92 NZ         -2.1778  -26.2845   21.8249 N.2       3 LYS4        0.0000 
     93 CZ         -5.0937  -27.1118   23.2613 C.ar      4 PHE5        0.0000 
     94 DU         -4.2135  -26.8231   22.0815 H         6 CUB7        0.0000 
     95 NZ         -3.3334  -26.5343   20.9017 N.2       3 LYS4        0.0000 
     96 CA         -6.2492  -27.3617   22.3381 C.3       5 GLY6        0.0000 
     97 DU         -5.3691  -27.0729   21.1583 H         6 CUB7        0.0000 
     98 NZ         -4.4889  -26.7842   19.9785 N.2       3 LYS4        0.0000 
     99 NZ         -3.6088  -26.4955   18.7987 N.2       3 LYS4        0.0000 
    100 CA         -8.2849  -27.9003   22.5948 C.3       5 GLY6        0.0000 
    101 CA         -7.4048  -27.6116   21.4150 C.3       5 GLY6        0.0000 
    102 DU         -5.6445  -27.0341   19.0553 H         6 CUB7        0.0000 
    103 DU         -4.7643  -26.7454   17.8755 H         6 CUB7        0.0000 
    104 O          -3.8842  -26.4566   16.6957 O.2       1 ALA2        0.0000 
    105 N          -9.4405  -28.1502   21.6716 N.2       1 ALA2        0.0000 
    106 DU         -8.5603  -27.8614   20.4918 H         6 CUB7        0.0000 
    107 NZ         -9.7159  -28.1113   19.5686 N.2       3 LYS4        0.0000 
    108 DU         -8.8357  -27.8226   18.3888 H         6 CUB7        0.0000 
    109 NZ        -11.7516  -28.6499   19.8252 N.2       3 LYS4        0.0000 
    110 NZ        -10.8714  -28.3612   18.6454 N.2       3 LYS4        0.0000 
    111 NZ        -12.0270  -28.6110   17.7222 N.2       3 LYS4        0.0000 
    112 CZ         -3.4322  -25.1226   23.0805 C.ar      4 PHE5        0.0000 
    113 O          -2.5521  -24.8339   21.9007 O.2       1 ALA2        0.0000 
    114 CA         -5.4679  -25.6612   23.3371 C.3       5 GLY6        0.0000 
    115 DU         -4.5878  -25.3725   22.1573 H         6 CUB7        0.0000 
    116 NZ         -3.7076  -25.0838   20.9775 N.2       3 LYS4        0.0000 
    117 CA         -6.6235  -25.9111   22.4140 C.3       5 GLY6        0.0000 
    118 DU         -5.7433  -25.6224   21.2341 H         6 CUB7        0.0000 
    119 NZ         -4.8632  -25.3336   20.0543 N.2       3 LYS4        0.0000 
    120 NZ         -3.9830  -25.0449   18.8745 N.2       3 LYS4        0.0000 
    121 O          -7.7790  -26.1610   21.4908 O.2       1 ALA2        0.0000 
    122 DU         -6.8989  -25.8722   20.3109 H         6 CUB7        0.0000 
    123 DU         -6.0187  -25.5835   19.1311 H         6 CUB7        0.0000 
    124 DU         -5.1386  -25.2948   17.9513 H         6 CUB7        0.0000 
    125 O          -8.9346  -26.4108   20.5676 O.2       1 ALA2        0.0000 
    126 DU         -8.0544  -26.1221   19.3878 H         6 CUB7        0.0000 
    127 NZ        -10.0901  -26.6607   19.6444 N.2       3 LYS4        0.0000 
    128 OD1       -12.6766  -27.1216   15.6950 O.3       2 ASP3        0.0000 
    129 CA         -3.8065  -23.6720   23.1563 C.3       5 GLY6        0.0000 
    130 O          -4.9620  -23.9219   22.2331 O.2       1 ALA2        0.0000 
    131 O          -4.0819  -23.6332   21.0533 O.2       1 ALA2        0.0000 
    132 CA         -3.2017  -23.3444   19.8735 C.3       5 GLY6        0.0000 
    133 CA         -6.9977  -24.4605   22.4898 C.3       5 GLY6        0.0000 
    134 O          -6.1176  -24.1718   21.3099 O.2       1 ALA2        0.0000 
    135 DU         -5.2374  -23.8830   20.1301 H         6 CUB7        0.0000 
    136 NZ         -4.3573  -23.5943   18.9503 N.2       3 LYS4        0.0000 
    137 CA         -8.1532  -24.7104   21.5666 C.3       5 GLY6        0.0000 
    138 CA         -7.2731  -24.4216   20.3868 C.3       5 GLY6        0.0000 
    139 DU         -6.3930  -24.1329   19.2069 H         6 CUB7        0.0000 
    140 CA         -8.4286  -24.6715   19.4636 C.3       5 GLY6        0.0000 
    141 DU         -7.5485  -24.3828   18.2838 H         6 CUB7        0.0000 
    142 NZ        -10.4643  -25.2101   19.7202 N.2       3 LYS4        0.0000 
    143 O          -4.4561  -22.1826   21.1291 O.2       1 ALA2        0.0000 
    144 O          -5.6116  -22.4325   20.2059 O.2       1 ALA2        0.0000 
    145 O          -4.7315  -22.1437   19.0261 O.2       1 ALA2        0.0000 
    146 O          -5.8870  -22.3936   18.1029 O.2       1 ALA2        0.0000 
@<TRIPOS>BOND
@<TRIPOS>SUBSTRUCTURE
     1 ALA2        1 GROUP   
     2 ASP3      128 GROUP   
     3 LYS4        4 GROUP   
     4 PHE5       33 GROUP   
     5 GLY6        5 GROUP   
     6 CUB7       21 GROUP   
@<TRIPOS>SET

