#    Name: 3fqj_GDP_1_INTS_M
#    Modification time : Tue Mar 25 06:15:55 2014

@<TRIPOS>MOLECULE
3fqj_GDP_1_INTS_M
   40     0    12     0     0
SMALL
NO_CHARGES


@<TRIPOS>ATOM
      1 NZ         -4.3125  -20.6910   20.3325 N.4       3 LYC4        0.0000 
      2 NZ         -5.5960  -21.2540   19.7680 N.4      11 LYL4        0.0000 
      3 NZ         -3.8000  -19.2150   21.4740 N.4       7 LYP4        0.0000 
      4 N          -5.3380  -20.3735   20.7370 N.am      2 SEC2        0.0000 
      5 N          -5.5960  -21.2540   19.7680 N.am     10 SEL2        0.0000 
      6 N          -5.0800  -19.4930   21.7060 N.am      6 SEP2        0.0000 
      7 N          -4.3125  -20.6910   20.3325 N.am      2 SEC2        0.0000 
      8 N          -3.0290  -20.1280   20.8970 N.am      6 SEP2        0.0000 
      9 N          -4.9060  -20.3285   18.6410 N.am      2 SEC2        0.0000 
     10 N          -4.2160  -19.4030   17.5140 N.am      6 SEP2        0.0000 
     11 N          -7.0475  -22.6565   22.5275 N.am      2 SEC2        0.0000 
     12 N          -6.1780  -23.7300   22.2350 N.am     10 SEL2        0.0000 
     13 N          -7.9170  -21.5830   22.8200 N.am      6 SEP2        0.0000 
     14 NZ         -3.5120  -21.3395   21.4055 N.4       3 LYC4        0.0000 
     15 NZ         -3.9950  -22.5510   21.9140 N.4      11 LYL4        0.0000 
     16 N          -3.5120  -21.3395   21.4055 N.am      2 SEC2        0.0000 
     17 N          -3.9950  -22.5510   21.9140 N.am     10 SEL2        0.0000 
     18 N          -2.5630  -22.4775   22.2735 N.am      2 SEC2        0.0000 
     19 N          -1.1310  -22.4040   22.6330 N.am      6 SEP2        0.0000 
     20 CA         -3.1470  -23.5795   23.7555 C.3       4 GLC5        0.0000 
     21 CA         -3.8010  -25.5900   23.0830 C.3      12 GLL5        0.0000 
     22 CA         -2.4930  -21.5690   24.4280 C.3       8 GLP5        0.0000 
     23 CA         -1.1100  -25.0505   21.3370 C.3       4 GLC5        0.0000 
     24 CA         -1.8280  -26.9520   22.2320 C.3      12 GLL5        0.0000 
     25 CA         -0.3920  -23.1490   20.4420 C.3       8 GLP5        0.0000 
     26 N          -0.2085  -29.7435   19.8880 N.am      2 SEC2        0.0000 
     27 N          -1.0530  -28.2830   20.3240 N.am     10 SEL2        0.0000 
     28 N           0.6360  -31.2040   19.4520 N.am      6 SEP2        0.0000 
     29 N          -1.2175  -29.6990   20.4275 N.am      2 SEC2        0.0000 
     30 N          -1.3820  -31.1150   20.5310 N.am      6 SEP2        0.0000 
     31 N          -0.3825  -28.4210   19.0190 N.am      2 SEC2        0.0000 
     32 N           0.2880  -28.5590   17.7140 N.am      6 SEP2        0.0000 
     33 O          -4.3285  -32.7255   19.6010 O.2       1 ALC1        0.0000 
     34 O          -4.9950  -32.5380   18.2240 O.2       9 ALL1        0.0000 
     35 O          -3.6620  -32.9130   20.9780 O.2       5 ALP1        0.0000 
     36 CA         -4.0515  -26.2315   24.5732 C.3       4 GLC5        0.0000 
     37 CA         -3.1650  -26.9720   22.9560 C.3      12 GLL5        0.0000 
     38 CA         -4.6200  -26.1820   26.1270 C.3       8 GLP5        0.0000 
     39 CA         -0.9118  -26.3755   23.4790 C.3       4 GLC5        0.0000 
     40 CA          0.6730  -25.7890   24.3640 C.3       8 GLP5        0.0000 
@<TRIPOS>BOND
@<TRIPOS>SUBSTRUCTURE
     1 ALC1       33 GROUP        1 X    ALC  0     ROOT ALC X 1
     2 SEC2        4 GROUP        1 X    SEC  0     **** SEC X 2
     3 LYC4        1 GROUP        1 X    LYC  0     **** LYC X 4
     4 GLC5       20 GROUP        1 X    GLC  0     **** GLC X 6
     5 ALP1       35 GROUP        1 Y    ALP  0     ROOT ALP Y 8
     6 SEP2        6 GROUP        1 Y    SEP  0     **** SEP Y 9
     7 LYP4        3 GROUP        1 Y    LYP  0     **** LYP Y 11
     8 GLP5       22 GROUP        1 Y    GLP  0     **** GLP Y 13
     9 ALL1       34 GROUP        1 Z    ALL  0     ROOT ALL Z 15
    10 SEL2        5 GROUP        1 Z    SEL  0     **** SEL Z 16
    11 LYL4        2 GROUP        1 Z    LYL  0     **** LYL Z 18
    12 GLL5       21 GROUP        1 Z    GLL  0     **** GLL Z 20
@<TRIPOS>SET

