#    Name: 3fqj_GDP_1_ligand
#    Modification time : Tue Mar 25 06:15:55 2014

@<TRIPOS>MOLECULE
3fqj_GDP_1_ligand
   40    42     1     0     0
SMALL
NO_CHARGES


@<TRIPOS>ATOM
      1 PB         -5.3320  -22.5250   18.9950 P.3       1 GDP1001     0.0000 
      2 O1B        -5.5960  -21.2540   19.7680 O.co2     1 GDP1001     0.0000 
      3 O2B        -4.0790  -22.3200   18.1840 O.co2     1 GDP1001     0.0000 
      4 O3B        -6.5060  -22.8840   18.1170 O.co2     1 GDP1001     0.0000 
      5 O3A        -5.1120  -23.7970   19.9540 O.3       1 GDP1001     0.0000 
      6 PA         -4.8560  -23.7210   21.5320 P.3       1 GDP1001     0.0000 
      7 O1A        -6.1780  -23.7300   22.2350 O.co2     1 GDP1001     0.0000 
      8 O2A        -3.9950  -22.5510   21.9140 O.co2     1 GDP1001     0.0000 
      9 O5'        -4.1170  -25.1150   21.7810 O.3       1 GDP1001     0.0000 
     10 C5'        -3.8010  -25.5900   23.0830 C.3       1 GDP1001     0.0000 
     11 C4'        -3.1650  -26.9720   22.9560 C.3       1 GDP1001     0.0000 
     12 O4'        -4.0230  -27.8350   22.2150 O.3       1 GDP1001     0.0000 
     13 C3'        -1.8280  -26.9520   22.2320 C.3       1 GDP1001     0.0000 
     14 O3'        -0.9480  -27.8520   22.9140 O.3       1 GDP1001     0.0000 
     15 C2'        -2.1160  -27.4730   20.8400 C.3       1 GDP1001     0.0000 
     16 O2'        -1.0530  -28.2830   20.3240 O.3       1 GDP1001     0.0000 
     17 C1'        -3.3820  -28.2900   21.0240 C.3       1 GDP1001     0.0000 
     18 N9         -4.3130  -28.0930   19.8930 N.pl3     1 GDP1001     0.0000 
     19 C8         -4.8450  -26.9300   19.4650 C.2       1 GDP1001     0.0000 
     20 N7         -5.6690  -27.1310   18.4070 N.2       1 GDP1001     0.0000 
     21 C5         -5.6770  -28.4560   18.1520 C.2       1 GDP1001     0.0000 
     22 C6         -6.3340  -29.3630   17.1700 C.2       1 GDP1001     0.0000 
     23 O6         -7.1130  -28.9080   16.2930 O.2       1 GDP1001     0.0000 
     24 N1         -6.0590  -30.6830   17.2620 N.am      1 GDP1001     0.0000 
     25 C2         -5.2240  -31.2000   18.1990 C.2       1 GDP1001     0.0000 
     26 N2         -4.9950  -32.5380   18.2240 N.pl3     1 GDP1001     0.0000 
     27 N3         -4.5940  -30.4280   19.1240 N.2       1 GDP1001     0.0000 
     28 C4         -4.7800  -29.0840   19.1410 C.2       1 GDP1001     0.0000 
     29 H          -4.6897  -25.6880   23.7107 H         1 GDP1001     0.0000 
     30 H          -3.0875  -24.9400   23.5947 H         1 GDP1001     0.0000 
     31 H          -3.0022  -27.3714   23.9504 H         1 GDP1001     0.0000 
     32 H          -1.4740  -25.9715   22.1837 H         1 GDP1001     0.0000 
     33 H          -2.3540  -26.6406   20.2133 H         1 GDP1001     0.0000 
     34 H          -3.1147  -29.3232   21.1057 H         1 GDP1001     0.0000 
     35 H          -4.6624  -26.0519   19.8639 H         1 GDP1001     0.0000 
     36 H          -6.5150  -31.3471   16.5719 H         1 GDP1001     0.0000 
     37 H          -5.0249  -33.0061   17.3409 H         1 GDP1001     0.0000 
     38 H          -4.8166  -32.9371   19.1234 H         1 GDP1001     0.0000 
     39 H          -0.6993  -27.3796   23.7596 H         1 GDP1001     0.0000 
     40 H          -0.4405  -28.4314   21.1004 H         1 GDP1001     0.0000 
@<TRIPOS>BOND
     1    2    1 ar   
     2    3    1 ar   
     3    4    1 ar   
     4    5    1 1    
     5    6    5 1    
     6    7    6 ar   
     7    8    6 ar   
     8    9    6 1    
     9   10    9 1    
    10   11   10 1    
    11   29   10 1    
    12   30   10 1    
    13   12   11 1    
    14   13   11 1    
    15   31   11 1    
    16   17   12 1    
    17   14   13 1    
    18   15   13 1    
    19   32   13 1    
    20   39   14 1    
    21   16   15 1    
    22   17   15 1    
    23   33   15 1    
    24   40   16 1    
    25   18   17 1    
    26   34   17 1    
    27   19   18 1    
    28   28   18 1    
    29   20   19 2    
    30   35   19 1    
    31   21   20 1    
    32   22   21 1    
    33   28   21 2    
    34   23   22 2    
    35   24   22 am   
    36   25   24 1    
    37   36   24 1    
    38   26   25 1    
    39   27   25 2    
    40   37   26 1    
    41   38   26 1    
    42   28   27 1    
@<TRIPOS>SUBSTRUCTURE
     1 GDP1001     1 GROUP   
@<TRIPOS>SET

