#    Name: 2xyu_Q9G_1_INTS_M
#    Modification time : Tue Mar 25 07:11:51 2014

@<TRIPOS>MOLECULE
2xyu_Q9G_1_INTS_M
   58     0     9     0     0
SMALL
NO_CHARGES


@<TRIPOS>ATOM
      1 N           1.9955   13.1155   18.7115 N.am      2 SEC2        0.0000 
      2 N           3.0790   12.6700   19.5130 N.am      8 SEL2        0.0000 
      3 N           0.9120   13.5610   17.9100 N.am      5 SEP2        0.0000 
      4 CA          3.8320   12.9260   18.0580 C.3       3 GLC5        0.0000 
      5 CA          3.5370   11.3820   19.4220 C.3       9 GLL5        0.0000 
      6 CA          4.1270   14.4700   16.6940 C.3       6 GLP5        0.0000 
      7 O           2.7030   15.8050   19.7795 O.2       1 ALC1        0.0000 
      8 O           3.8730   14.9490   20.0050 O.2       7 ALL1        0.0000 
      9 O           1.5330   16.6610   19.5540 O.2       4 ALP1        0.0000 
     10 N           4.7065   16.8620   20.6235 N.am      2 SEC2        0.0000 
     11 N           4.9730   15.6220   20.3220 N.am      8 SEL2        0.0000 
     12 N           4.4400   18.1020   20.9250 N.am      5 SEP2        0.0000 
     13 O           7.2460   16.4095   21.4200 O.2       1 ALC1        0.0000 
     14 O           7.2900   14.9930   20.7220 O.2       7 ALL1        0.0000 
     15 O           7.2020   17.8260   22.1180 O.2       4 ALP1        0.0000 
     16 CA          2.6605   11.0110   21.6060 C.3       3 GLC5        0.0000 
     17 CA          1.9070    9.6300   20.1040 C.3       9 GLL5        0.0000 
     18 CA          3.4140   12.3920   23.1080 C.3       6 GLP5        0.0000 
     19 CA         -0.5680    9.5590   21.8240 C.3       3 GLC5        0.0000 
     20 CA          0.4120    8.0040   20.8550 C.3       9 GLL5        0.0000 
     21 CA         -1.5480   11.1140   22.7930 C.3       6 GLP5        0.0000 
     22 CA          1.1940    8.6405   22.8490 C.3       3 GLC5        0.0000 
     23 CA          1.9760    9.2770   24.8430 C.3       6 GLP5        0.0000 
     24 CA          0.9400    6.6795   22.3655 C.3       3 GLC5        0.0000 
     25 CA          1.4680    5.3550   23.8760 C.3       6 GLP5        0.0000 
     26 CA         -0.2985    9.0705   16.1720 C.3       3 GLC5        0.0000 
     27 CA          1.3180    8.9750   17.4820 C.3       9 GLL5        0.0000 
     28 CA         -1.9150    9.1660   14.8620 C.3       6 GLP5        0.0000 
     29 CA          4.9130   10.9120   16.2315 C.3       3 GLC5        0.0000 
     30 CA          2.9400   10.7130   16.6300 C.3       9 GLL5        0.0000 
     31 CA          6.8860   11.1110   15.8330 C.3       6 GLP5        0.0000 
     32 CA          3.5335   12.5915   16.6620 C.3       3 GLC5        0.0000 
     33 CA          4.0813   12.9300   21.5390 C.3       3 GLC5        0.0000 
     34 CA          4.0690   13.5860   19.8440 C.3       9 GLL5        0.0000 
     35 CA          4.7156   13.5915   18.3368 C.3       3 GLC5        0.0000 
     36 CA          5.8600   11.9580   19.9890 C.3       9 GLL5        0.0000 
     37 CA          3.8305   11.7918   21.3275 C.3       3 GLC5        0.0000 
     38 CA          4.9570   11.0010   19.6720 C.3       9 GLL5        0.0000 
     39 CA          0.5995   11.0458   18.7183 C.3       3 GLC5        0.0000 
     40 CA          2.5610   10.3110   19.0770 C.3       9 GLL5        0.0000 
     41 CA         -1.0350   12.1210   17.8460 C.3       6 GLP5        0.0000 
     42 CA          6.6191   11.3236   17.9351 C.3       3 GLC5        0.0000 
     43 CA          6.4253   11.6571   22.0511 C.3       3 GLC5        0.0000 
     44 CA          5.8400   12.3370   23.7050 C.3       6 GLP5        0.0000 
     45 CA          6.4730    8.9977   17.7407 C.3       3 GLC5        0.0000 
     46 CA          6.8230    9.2920   19.6680 C.3       9 GLL5        0.0000 
     47 CA          6.8540    8.5710   15.8700 C.3       6 GLP5        0.0000 
     48 CA         -0.0952   10.2960   18.5105 C.3       3 GLC5        0.0000 
     49 CA          0.9960    8.6390   19.8280 C.3       9 GLL5        0.0000 
     50 CA          1.9547    7.3655   16.7615 C.3       3 GLC5        0.0000 
     51 CA          0.6930    8.3030   18.5220 C.3       9 GLL5        0.0000 
     52 CA          2.9040    6.0920   15.5210 C.3       6 GLP5        0.0000 
     53 CA         -1.0487    8.7901   19.5019 C.3       3 GLC5        0.0000 
     54 CA         -2.7960    9.2680   19.5720 C.3       6 GLP5        0.0000 
     55 CA          2.7610    9.2325   15.6385 C.3       3 GLC5        0.0000 
     56 CA          2.2600    9.9850   17.7440 C.3       9 GLL5        0.0000 
     57 CA          2.9220    8.1160   14.0900 C.3       6 GLP5        0.0000 
     58 CA          0.6647   11.1088   17.4838 C.3       3 GLC5        0.0000 
@<TRIPOS>BOND
@<TRIPOS>SUBSTRUCTURE
     1 ALC1        7 GROUP        1 X    ALC  0     ROOT ALC X 1
     2 SEC2        1 GROUP        1 X    SEC  0     **** SEC X 2
     3 GLC5        4 GROUP        1 X    GLC  0     **** GLC X 6
     4 ALP1        9 GROUP        1 Y    ALP  0     ROOT ALP Y 8
     5 SEP2        3 GROUP        1 Y    SEP  0     **** SEP Y 9
     6 GLP5        6 GROUP        1 Y    GLP  0     **** GLP Y 13
     7 ALL1        8 GROUP        1 Z    ALL  0     ROOT ALL Z 15
     8 SEL2        2 GROUP        1 Z    SEL  0     **** SEL Z 16
     9 GLL5        5 GROUP        1 Z    GLL  0     **** GLL Z 20
@<TRIPOS>SET

