#    Name: 2xyu_Q9G_1_ligand
#    Modification time : Tue Mar 25 07:11:51 2014

@<TRIPOS>MOLECULE
2xyu_Q9G_1_ligand
   38    41     1     0     0
SMALL
NO_CHARGES


@<TRIPOS>ATOM
      1 N01         3.0790   12.6700   19.5130 N.ar      1 Q9G1898     0.0000 
      2 C02         4.0690   13.5860   19.8440 C.ar      1 Q9G1898     0.0000 
      3 C03         5.4280   13.3500   20.0960 C.ar      1 Q9G1898     0.0000 
      4 C04         5.8600   11.9580   19.9890 C.ar      1 Q9G1898     0.0000 
      5 C05         4.9570   11.0010   19.6720 C.ar      1 Q9G1898     0.0000 
      6 C06         3.5370   11.3820   19.4220 C.ar      1 Q9G1898     0.0000 
      7 C07         2.5610   10.3110   19.0770 C.ar      1 Q9G1898     0.0000 
      8 C08         7.2960   11.5930   20.2440 C.3       1 Q9G1898     0.0000 
      9 C09         7.4430   10.1790   20.6780 C.3       1 Q9G1898     0.0000 
     10 C10         6.8230    9.2920   19.6680 C.3       1 Q9G1898     0.0000 
     11 C11         5.3610    9.5570   19.5550 C.3       1 Q9G1898     0.0000 
     12 N12         3.8730   14.9490   20.0050 N.pl3     1 Q9G1898     0.0000 
     13 N13         4.9730   15.6220   20.3220 N.2       1 Q9G1898     0.0000 
     14 C14         5.9390   14.6600   20.3890 C.2       1 Q9G1898     0.0000 
     15 N15         7.2900   14.9930   20.7220 N.pl3     1 Q9G1898     0.0000 
     16 C16         1.9070    9.6300   20.1040 C.ar      1 Q9G1898     0.0000 
     17 C17         0.9960    8.6390   19.8280 C.ar      1 Q9G1898     0.0000 
     18 F18         0.4120    8.0040   20.8550 F         1 Q9G1898     0.0000 
     19 C19         0.6930    8.3030   18.5220 C.ar      1 Q9G1898     0.0000 
     20 C20         1.3180    8.9750   17.4820 C.ar      1 Q9G1898     0.0000 
     21 C21         2.2600    9.9850   17.7440 C.ar      1 Q9G1898     0.0000 
     22 C22         2.9400   10.7130   16.6300 C.3       1 Q9G1898     0.0000 
     23 H           7.7055   12.2631   21.0158 H         1 Q9G1898     0.0000 
     24 H           7.8784   11.7621   19.3249 H         1 Q9G1898     0.0000 
     25 H           6.9556   10.0389   21.6451 H         1 Q9G1898     0.0000 
     26 H           8.5021    9.9361   20.7861 H         1 Q9G1898     0.0000 
     27 H           6.9828    8.2418   19.9471 H         1 Q9G1898     0.0000 
     28 H           7.2991    9.4510   18.6911 H         1 Q9G1898     0.0000 
     29 H           4.9902    9.1602   18.5809 H         1 Q9G1898     0.0000 
     30 H           4.8203    8.9706   20.3345 H         1 Q9G1898     0.0000 
     31 H           2.9693   15.3610   19.8861 H         1 Q9G1898     0.0000 
     32 H           2.1179    9.8823   21.0878 H         1 Q9G1898     0.0000 
     33 H           0.0112    7.5624   18.3210 H         1 Q9G1898     0.0000 
     34 H           1.0950    8.7373   16.5037 H         1 Q9G1898     0.0000 
     35 H           3.9332   10.6020   16.6655 H         1 Q9G1898     0.0000 
     36 H           2.6402   10.3847   15.7343 H         1 Q9G1898     0.0000 
     37 H           2.7535   11.6950   16.6597 H         1 Q9G1898     0.0000 
     38 H           7.2317   15.8769   21.1860 H         1 Q9G1898     0.0000 
@<TRIPOS>BOND
     1    2    1 ar   
     2    6    1 ar   
     3    3    2 ar   
     4   12    2 1    
     5    4    3 ar   
     6   14    3 1    
     7    5    4 ar   
     8    8    4 1    
     9    6    5 ar   
    10   11    5 1    
    11    7    6 1    
    12   16    7 ar   
    13   21    7 ar   
    14    9    8 1    
    15   23    8 1    
    16   24    8 1    
    17   10    9 1    
    18   25    9 1    
    19   26    9 1    
    20   11   10 1    
    21   27   10 1    
    22   28   10 1    
    23   29   11 1    
    24   30   11 1    
    25   13   12 1    
    26   31   12 1    
    27   14   13 2    
    28   15   14 1    
    29   38   15 1    
    30   17   16 ar   
    31   32   16 1    
    32   18   17 1    
    33   19   17 ar   
    34   20   19 ar   
    35   33   19 1    
    36   21   20 ar   
    37   34   20 1    
    38   22   21 1    
    39   35   22 1    
    40   36   22 1    
    41   37   22 1    
@<TRIPOS>SUBSTRUCTURE
     1 Q9G1898     1 GROUP   
@<TRIPOS>SET

