#    Name: 1c1c_612_1_INTS_M
#    Modification time : Mon Mar 24 20:07:17 2014

@<TRIPOS>MOLECULE
1c1c_612_1_INTS_M
   64     0     6     0     0
SMALL
NO_CHARGES


@<TRIPOS>ATOM
      1 CA         -0.9265  -31.7035   24.5940 C.3       2 GLC5        0.0000 
      2 CA         -1.2620  -32.6740   26.3750 C.3       6 GLL5        0.0000 
      3 CA         -0.5910  -30.7330   22.8130 C.3       4 GLP5        0.0000 
      4 CA         -0.9380  -29.1740   28.5040 C.3       2 GLC5        0.0000 
      5 CA         -0.8790  -31.1280   28.2950 C.3       6 GLL5        0.0000 
      6 CA         -0.9970  -27.2200   28.7130 C.3       4 GLP5        0.0000 
      7 CA          3.0265  -31.5700   26.5095 C.3       2 GLC5        0.0000 
      8 CA          1.0500  -31.8890   26.8950 C.3       6 GLL5        0.0000 
      9 CA          5.0030  -31.2510   26.1240 C.3       4 GLP5        0.0000 
     10 CA         -0.3930  -34.8910   27.4945 C.3       2 GLC5        0.0000 
     11 CA          0.2150  -33.0430   26.3850 C.3       6 GLL5        0.0000 
     12 CA         -1.0010  -36.7390   28.6040 C.3       4 GLP5        0.0000 
     13 CA         -3.4795  -35.5510   26.2060 C.3       2 GLC5        0.0000 
     14 CA         -2.2330  -34.1690   25.9700 C.3       6 GLL5        0.0000 
     15 CA         -4.7260  -36.9330   26.4420 C.3       4 GLP5        0.0000 
     16 CA         -1.6170  -35.4540   27.2870 C.3       2 GLC5        0.0000 
     17 CA         -4.0220  -33.6510   27.0645 C.3       2 GLC5        0.0000 
     18 CA         -5.8110  -33.1330   28.1590 C.3       4 GLP5        0.0000 
     19 CA         -1.4365  -32.5430   23.4665 C.3       2 GLC5        0.0000 
     20 CA         -2.2820  -34.3530   24.1200 C.3       6 GLL5        0.0000 
     21 CA         -0.0940  -33.8345   23.1310 C.3       2 GLC5        0.0000 
     22 CA         -1.4720  -35.2730   23.4690 C.3       6 GLL5        0.0000 
     23 CA          1.2840  -32.3960   22.7930 C.3       4 GLP5        0.0000 
     24 CA         -2.8600  -36.7420   24.0585 C.3       2 GLC5        0.0000 
     25 CA         -0.7030  -36.4080   24.1710 C.3       6 GLL5        0.0000 
     26 CA         -5.0170  -37.0760   23.9460 C.3       4 GLP5        0.0000 
     27 CA         -3.1360  -37.1010   25.7620 C.3       2 GLC5        0.0000 
     28 CA         -1.5460  -37.2690   25.0820 C.3       6 GLL5        0.0000 
     29 CA         -1.6000  -39.2190   26.0405 C.3       2 GLC5        0.0000 
     30 CA         -1.6540  -41.1690   26.9990 C.3       4 GLP5        0.0000 
     31 CA         -2.3830  -38.9515   24.3500 C.3       2 GLC5        0.0000 
     32 CA         -3.2200  -40.6340   23.6180 C.3       4 GLP5        0.0000 
     33 CA          0.9390  -34.1875   23.7800 C.3       2 GLC5        0.0000 
     34 CA          0.5940  -35.9790   24.7670 C.3       6 GLL5        0.0000 
     35 CA          1.8700  -36.2755   26.0990 C.3       2 GLC5        0.0000 
     36 CA          3.1460  -36.5720   27.4310 C.3       4 GLP5        0.0000 
     37 O          -2.3000  -34.6060   20.0915 O.2       1 ALC1        0.0000 
     38 O          -2.3320  -34.4370   21.3710 O.2       5 ALL1        0.0000 
     39 O          -2.2680  -34.7750   18.8120 O.2       3 ALP1        0.0000 
     40 CA         -2.3170  -31.6335   23.4335 C.3       2 GLC5        0.0000 
     41 CA         -4.0430  -32.5340   24.0540 C.3       6 GLL5        0.0000 
     42 CA         -4.5215  -30.8285   24.7485 C.3       2 GLC5        0.0000 
     43 CA         -5.0000  -29.1230   25.4430 C.3       4 GLP5        0.0000 
     44 CA         -4.5040  -31.2525   22.4385 C.3       2 GLC5        0.0000 
     45 CA         -4.9650  -29.9710   20.8230 C.3       4 GLP5        0.0000 
     46 CA         -5.6685  -35.1175   24.0010 C.3       2 GLC5        0.0000 
     47 CA         -6.3200  -33.1590   24.0560 C.3       6 GLL5        0.0000 
     48 CA         -6.0655  -33.1460   26.1075 C.3       2 GLC5        0.0000 
     49 CA         -5.6600  -31.1410   24.7495 C.3       2 GLC5        0.0000 
     50 CA         -6.5575  -35.5190   25.0875 C.3       2 GLC5        0.0000 
     51 CA         -7.4360  -33.7350   24.8920 C.3       6 GLL5        0.0000 
     52 CA         -5.6790  -37.3030   25.2830 C.3       4 GLP5        0.0000 
     53 CA         -8.8340  -34.0750   26.1980 C.3       2 GLC5        0.0000 
     54 CA        -10.2320  -34.4150   27.5040 C.3       4 GLP5        0.0000 
     55 CA         -6.8635  -34.0850   26.5805 C.3       2 GLC5        0.0000 
     56 CA         -6.2910  -34.4350   28.2690 C.3       4 GLP5        0.0000 
     57 CA         -3.2815  -31.2908   28.5943 C.3       2 GLC5        0.0000 
     58 CA         -1.7130  -32.2670   27.7700 C.3       6 GLL5        0.0000 
     59 CA         -5.2670  -30.8840   29.1560 C.3       4 GLP5        0.0000 
     60 CA          0.9583  -32.4310   24.7165 C.3       2 GLC5        0.0000 
     61 CA         -3.4470  -35.9445   23.8703 C.3       2 GLC5        0.0000 
     62 CA         -0.6331  -36.5739   26.6504 C.3       2 GLC5        0.0000 
     63 CA         -8.1180  -33.2145   23.0425 C.3       2 GLC5        0.0000 
     64 CA         -9.3580  -32.9820   21.6110 C.3       4 GLP5        0.0000 
@<TRIPOS>BOND
@<TRIPOS>SUBSTRUCTURE
     1 ALC1       37 GROUP        1 X    ALC  0     ROOT ALC X 1
     2 GLC5        1 GROUP        1 X    GLC  0     **** GLC X 6
     3 ALP1       39 GROUP        1 Y    ALP  0     ROOT ALP Y 8
     4 GLP5        3 GROUP        1 Y    GLP  0     **** GLP Y 13
     5 ALL1       38 GROUP        1 Z    ALL  0     ROOT ALL Z 15
     6 GLL5        2 GROUP        1 Z    GLL  0     **** GLL Z 20
@<TRIPOS>SET

