#    Name: 1c1c_612_1_ligand
#    Modification time : Mon Mar 24 20:07:17 2014

@<TRIPOS>MOLECULE
1c1c_612_1_ligand
   42    43     1     0     0
SMALL
NO_CHARGES


@<TRIPOS>ATOM
      1 C1         -1.2620  -32.6740   26.3750 C.ar      1 612999      0.0000 
      2 C2         -1.7130  -32.2670   27.7700 C.ar      1 612999      0.0000 
      3 C3         -0.8790  -31.1280   28.2950 C.ar      1 612999      0.0000 
      4 C4          0.6010  -31.4980   28.2970 C.ar      1 612999      0.0000 
      5 C5          1.0500  -31.8890   26.8950 C.ar      1 612999      0.0000 
      6 C6          0.2150  -33.0430   26.3850 C.ar      1 612999      0.0000 
      7 S          -2.2330  -34.1690   25.9700 S.3       1 612999      0.0000 
      8 C7         -2.2820  -34.3530   24.1200 C.2       1 612999      0.0000 
      9 C12        -1.4720  -35.2730   23.4690 C.2       1 612999      0.0000 
     10 CF         -0.7030  -36.4080   24.1710 C.3       1 612999      0.0000 
     11 CH         -1.5460  -37.2690   25.0820 C.3       1 612999      0.0000 
     12 CI          0.5940  -35.9790   24.7670 C.3       1 612999      0.0000 
     13 C11        -1.4730  -35.3300   22.0170 C.2       1 612999      0.0000 
     14 O11        -0.7500  -36.0730   21.3660 O.2       1 612999      0.0000 
     15 N8         -3.1220  -33.4910   23.3900 N.am      1 612999      0.0000 
     16 C9         -3.1730  -33.5190   21.9820 C.2       1 612999      0.0000 
     17 O9         -3.9160  -32.7880   21.3300 O.2       1 612999      0.0000 
     18 N10        -2.3320  -34.4370   21.3710 N.am      1 612999      0.0000 
     19 CA         -4.0430  -32.5340   24.0540 C.3       1 612999      0.0000 
     20 OB         -5.0780  -33.2040   24.7650 O.3       1 612999      0.0000 
     21 CC         -6.3200  -33.1590   24.0560 C.3       1 612999      0.0000 
     22 CD         -7.4360  -33.7350   24.8920 C.3       1 612999      0.0000 
     23 H          -2.4042  -32.6683   28.2254 H         1 612999      0.0000 
     24 H          -1.2064  -30.3186   28.5774 H         1 612999      0.0000 
     25 H           1.1386  -31.4864   29.0325 H         1 612999      0.0000 
     26 H           1.7245  -31.4832   26.4346 H         1 612999      0.0000 
     27 H           0.5475  -33.8539   26.1179 H         1 612999      0.0000 
     28 H          -0.4051  -37.1196   23.2939 H         1 612999      0.0000 
     29 H          -2.3386  -34.4676   20.2988 H         1 612999      0.0000 
     30 H          -4.4653  -31.8587   23.2815 H         1 612999      0.0000 
     31 H          -3.4492  -31.8880   24.7330 H         1 612999      0.0000 
     32 H          -6.2648  -33.7315   23.1158 H         1 612999      0.0000 
     33 H          -6.5904  -32.1246   23.7882 H         1 612999      0.0000 
     34 H          -1.0069  -37.9929   25.5125 H         1 612999      0.0000 
     35 H          -1.9608  -36.7350   25.8187 H         1 612999      0.0000 
     36 H          -2.2920  -37.7142   24.5868 H         1 612999      0.0000 
     37 H           1.0654  -36.7380   25.2162 H         1 612999      0.0000 
     38 H           1.2179  -35.6144   24.0757 H         1 612999      0.0000 
     39 H           0.4683  -35.2639   25.4547 H         1 612999      0.0000 
     40 H          -7.2625  -34.6890   25.1365 H         1 612999      0.0000 
     41 H          -7.5578  -33.2308   25.7470 H         1 612999      0.0000 
     42 H          -8.3118  -33.7106   24.4099 H         1 612999      0.0000 
@<TRIPOS>BOND
     1    2    1 ar   
     2    6    1 ar   
     3    7    1 1    
     4    3    2 ar   
     5   23    2 1    
     6    4    3 ar   
     7   24    3 1    
     8    5    4 ar   
     9   25    4 1    
    10    6    5 ar   
    11   26    5 1    
    12   27    6 1    
    13    8    7 1    
    14    9    8 2    
    15   15    8 1    
    16   10    9 1    
    17   13    9 1    
    18   11   10 1    
    19   12   10 1    
    20   28   10 1    
    21   34   11 1    
    22   35   11 1    
    23   36   11 1    
    24   37   12 1    
    25   38   12 1    
    26   39   12 1    
    27   14   13 2    
    28   18   13 1    
    29   16   15 1    
    30   19   15 1    
    31   17   16 2    
    32   18   16 1    
    33   29   18 1    
    34   20   19 1    
    35   30   19 1    
    36   31   19 1    
    37   21   20 1    
    38   22   21 1    
    39   32   21 1    
    40   33   21 1    
    41   40   22 1    
    42   41   22 1    
    43   42   22 1    
@<TRIPOS>SUBSTRUCTURE
     1 612999      1 GROUP   
@<TRIPOS>SET

