#    Name: 4a8v_2AN_1_INTS_M
#    Modification time : Tue Mar 25 05:16:02 2014

@<TRIPOS>MOLECULE
4a8v_2AN_1_INTS_M
   59     0     6     0     0
SMALL
NO_CHARGES


@<TRIPOS>ATOM
      1 CA          4.8805    7.4620    6.1225 C.3       2 GLC5        0.0000 
      2 CA          4.9370    6.9340    8.0410 C.3       6 GLL5        0.0000 
      3 CA          4.8240    7.9900    4.2040 C.3       4 GLP5        0.0000 
      4 CA          5.8635    6.9170    5.7800 C.3       2 GLC5        0.0000 
      5 CA          6.9030    5.8440    7.3560 C.3       6 GLL5        0.0000 
      6 CA          7.7870    7.2130    5.9245 C.3       2 GLC5        0.0000 
      7 CA          8.6710    8.5820    4.4930 C.3       4 GLP5        0.0000 
      8 CA          7.8350    1.8460    7.5260 C.3       2 GLC5        0.0000 
      9 CA          7.6150    3.7820    8.3500 C.3       6 GLL5        0.0000 
     10 CA          8.0550   -0.0900    6.7020 C.3       4 GLP5        0.0000 
     11 CA          1.5395    5.1860   11.3990 C.3       2 GLC5        0.0000 
     12 CA          1.8020    3.5550   10.4140 C.3       6 GLL5        0.0000 
     13 CA          1.2770    6.8170   12.3840 C.3       4 GLP5        0.0000 
     14 N           7.9440    0.2265   10.9460 N.am      1 SEC2        0.0000 
     15 N           7.6640    1.6330    9.9780 N.am      5 SEL2        0.0000 
     16 N           8.2240   -1.1800   11.9140 N.am      3 SEP2        0.0000 
     17 N           3.9650    0.7095   10.4545 N.am      1 SEC2        0.0000 
     18 N           5.2600    1.6460   10.0940 N.am      5 SEL2        0.0000 
     19 N           2.6700   -0.2270   10.8150 N.am      3 SEP2        0.0000 
     20 CA          3.9680    4.8072    7.8342 C.3       2 GLC5        0.0000 
     21 CA          3.5430    6.0340    9.7350 C.3       6 GLL5        0.0000 
     22 CA          3.9610    4.1290    5.8580 C.3       4 GLP5        0.0000 
     23 CA          2.2828    5.7189    8.5131 C.3       2 GLC5        0.0000 
     24 CA          4.4070    4.9370    9.8860 C.3       6 GLL5        0.0000 
     25 CA          0.6760    5.1790    7.7130 C.3       4 GLP5        0.0000 
     26 CA          4.1658    5.5560    7.1433 C.3       2 GLC5        0.0000 
     27 CA          3.8040    7.0320    8.8160 C.3       6 GLL5        0.0000 
     28 CA          3.7997    6.7554   11.1416 C.3       2 GLC5        0.0000 
     29 CA          3.7100    7.2520   12.9700 C.3       4 GLP5        0.0000 
     30 CA          4.9763    8.7300    8.8277 C.3       2 GLC5        0.0000 
     31 CA          5.5820   10.4770    9.2270 C.3       4 GLP5        0.0000 
     32 CA          5.1572    4.9897    6.8155 C.3       2 GLC5        0.0000 
     33 CA          5.8040    5.8570    8.1900 C.3       6 GLL5        0.0000 
     34 CA          7.3863    6.0892    9.4665 C.3       2 GLC5        0.0000 
     35 CA          8.4190    6.3280   11.1600 C.3       4 GLP5        0.0000 
     36 CA          5.8390    4.2125    6.8772 C.3       2 GLC5        0.0000 
     37 CA          7.8190    4.8100    7.4430 C.3       6 GLL5        0.0000 
     38 CA          8.0680    5.3120    9.5282 C.3       2 GLC5        0.0000 
     39 CA          4.9992    4.2037    7.5095 C.3       2 GLC5        0.0000 
     40 CA          6.5060    3.7410    9.2060 C.3       6 GLL5        0.0000 
     41 CA          7.0830    5.3184   10.2568 C.3       2 GLC5        0.0000 
     42 CA          3.0750    3.5410   14.4140 C.3       2 GLC5        0.0000 
     43 CA          2.7600    3.4520   12.6190 C.3       6 GLL5        0.0000 
     44 CA          4.0140    3.7940   15.9570 C.3       4 GLP5        0.0000 
     45 CA         -0.3783    3.9650   13.7282 C.3       2 GLC5        0.0000 
     46 CA          0.4050    3.0060   12.2840 C.3       6 GLL5        0.0000 
     47 CA         -1.7150    4.8650   14.7530 C.3       4 GLP5        0.0000 
     48 CA          1.7235    5.0819   12.4596 C.3       2 GLC5        0.0000 
     49 CA          1.5120    3.1240   13.1230 C.3       6 GLL5        0.0000 
     50 CA         -1.3257    2.1710   11.7795 C.3       2 GLC5        0.0000 
     51 CA         -3.1300    1.2320   11.9590 C.3       4 GLP5        0.0000 
     52 CA         -0.2868    4.8105   11.6010 C.3       2 GLC5        0.0000 
     53 CA         -1.0520    6.5110   11.6020 C.3       4 GLP5        0.0000 
     54 CA          1.0633    4.2983    9.2967 C.3       2 GLC5        0.0000 
     55 CA          0.5520    3.2140   10.9160 C.3       6 GLL5        0.0000 
     56 CA          2.2492    2.4617    9.3603 C.3       2 GLC5        0.0000 
     57 CA          3.0480    1.5060    7.8400 C.3       4 GLP5        0.0000 
     58 CA          0.7711    1.0582   11.9929 C.3       2 GLC5        0.0000 
     59 CA          0.7870   -1.0230   12.1760 C.3       4 GLP5        0.0000 
@<TRIPOS>BOND
@<TRIPOS>SUBSTRUCTURE
     1 SEC2       14 GROUP        1 X    SEC  0     ROOT SEC X 2
     2 GLC5        1 GROUP        1 X    GLC  0     **** GLC X 6
     3 SEP2       16 GROUP        1 Y    SEP  0     ROOT SEP Y 9
     4 GLP5        3 GROUP        1 Y    GLP  0     **** GLP Y 13
     5 SEL2       15 GROUP        1 Z    SEL  0     ROOT SEL Z 16
     6 GLL5        2 GROUP        1 Z    GLL  0     **** GLL Z 20
@<TRIPOS>SET

