#    Name: 4a8v_2AN_1_ligand
#    Modification time : Tue Mar 25 05:16:02 2014

@<TRIPOS>MOLECULE
4a8v_2AN_1_ligand
   33    35     1     0     0
SMALL
NO_CHARGES


@<TRIPOS>ATOM
      1 C1          4.4070    4.9370    9.8860 C.ar      1 2AN1160     0.0000 
      2 C2          3.5430    6.0340    9.7350 C.ar      1 2AN1160     0.0000 
      3 C3          3.8040    7.0320    8.8160 C.ar      1 2AN1160     0.0000 
      4 C4          4.9370    6.9340    8.0410 C.ar      1 2AN1160     0.0000 
      5 C5          5.8040    5.8570    8.1900 C.ar      1 2AN1160     0.0000 
      6 C6          6.9030    5.8440    7.3560 C.ar      1 2AN1160     0.0000 
      7 C7          7.8190    4.8100    7.4430 C.ar      1 2AN1160     0.0000 
      8 C8          7.6150    3.7820    8.3500 C.ar      1 2AN1160     0.0000 
      9 N           4.1910    3.9510   10.8410 N.pl3     1 2AN1160     0.0000 
     10 S           6.4470    2.4520   10.2100 S.o2      1 2AN1160     0.0000 
     11 C9          6.5060    3.7410    9.2060 C.ar      1 2AN1160     0.0000 
     12 C10         5.5690    4.8160    9.1160 C.ar      1 2AN1160     0.0000 
     13 C11         2.8960    3.6870   11.2760 C.ar      1 2AN1160     0.0000 
     14 C12         2.7600    3.4520   12.6190 C.ar      1 2AN1160     0.0000 
     15 C13         1.5120    3.1240   13.1230 C.ar      1 2AN1160     0.0000 
     16 C14         0.4050    3.0060   12.2840 C.ar      1 2AN1160     0.0000 
     17 C15         0.5520    3.2140   10.9160 C.ar      1 2AN1160     0.0000 
     18 C16         1.8020    3.5550   10.4140 C.ar      1 2AN1160     0.0000 
     19 O1          7.6640    1.6330    9.9780 O.co2     1 2AN1160     0.0000 
     20 O2          5.2600    1.6460   10.0940 O.co2     1 2AN1160     0.0000 
     21 O3          6.5650    2.9800   11.7570 O.co2     1 2AN1160     0.0000 
     22 H           2.6954    6.0868   10.3295 H         1 2AN1160     0.0000 
     23 H           3.1673    7.8257    8.7156 H         1 2AN1160     0.0000 
     24 H           5.1511    7.6641    7.3402 H         1 2AN1160     0.0000 
     25 H           7.0430    6.5995    6.6710 H         1 2AN1160     0.0000 
     26 H           8.6500    4.8037    6.8360 H         1 2AN1160     0.0000 
     27 H           8.3113    3.0044    8.4026 H         1 2AN1160     0.0000 
     28 H           4.9810    3.4205   11.2235 H         1 2AN1160     0.0000 
     29 H           3.5678    3.5164   13.2490 H         1 2AN1160     0.0000 
     30 H           1.3955    2.9629   14.1400 H         1 2AN1160     0.0000 
     31 H          -0.5126    2.7671   12.6741 H         1 2AN1160     0.0000 
     32 H          -0.2497    3.1170   10.2892 H         1 2AN1160     0.0000 
     33 H           1.9278    3.7119    9.4049 H         1 2AN1160     0.0000 
@<TRIPOS>BOND
     1    2    1 ar   
     2    9    1 1    
     3   12    1 ar   
     4    3    2 ar   
     5   22    2 1    
     6    4    3 ar   
     7   23    3 1    
     8    5    4 ar   
     9   24    4 1    
    10    6    5 ar   
    11   12    5 ar   
    12    7    6 ar   
    13   25    6 1    
    14    8    7 ar   
    15   26    7 1    
    16   11    8 ar   
    17   27    8 1    
    18   13    9 1    
    19   28    9 1    
    20   11   10 1    
    21   19   10 ar   
    22   20   10 ar   
    23   21   10 ar   
    24   12   11 ar   
    25   14   13 ar   
    26   18   13 ar   
    27   15   14 ar   
    28   29   14 1    
    29   16   15 ar   
    30   30   15 1    
    31   17   16 ar   
    32   31   16 1    
    33   18   17 ar   
    34   32   17 1    
    35   33   18 1    
@<TRIPOS>SUBSTRUCTURE
     1 2AN1160     1 GROUP   
@<TRIPOS>SET

