#    Name: 2bil_BI1_1_INTS_M
#    Modification time : Mon Mar 24 21:02:25 2014

@<TRIPOS>MOLECULE
2bil_BI1_1_INTS_M
   65     0     6     0     0
SMALL
NO_CHARGES


@<TRIPOS>ATOM
      1 CA        -36.3660    3.3570   -4.7560 C.3       2 GLC5        0.0000 
      2 CA        -37.5210    4.4970   -6.1060 C.3       6 GLL5        0.0000 
      3 CA        -35.2110    2.2170   -3.4060 C.3       4 GLP5        0.0000 
      4 CA        -36.6905    3.3290   -3.5570 C.3       2 GLC5        0.0000 
      5 CA        -38.1700    4.4410   -3.7080 C.3       6 GLL5        0.0000 
      6 CA        -37.5620    2.4195   -3.0520 C.3       2 GLC5        0.0000 
      7 CA        -39.0990    3.7730   -2.6760 C.3       6 GLL5        0.0000 
      8 CA        -36.0250    1.0660   -3.4280 C.3       4 GLP5        0.0000 
      9 CA        -36.8065    2.9970   -2.3620 C.3       2 GLC5        0.0000 
     10 CA        -38.4020    3.7770   -1.3180 C.3       6 GLL5        0.0000 
     11 CA        -37.3875    5.1150    0.0750 C.3       2 GLC5        0.0000 
     12 CA        -36.3730    6.4530    1.4680 C.3       4 GLP5        0.0000 
     13 CA        -39.8775    4.3905    0.3265 C.3       2 GLC5        0.0000 
     14 CA        -38.5730    2.8190    0.9410 C.3       6 GLL5        0.0000 
     15 CA        -41.1820    5.9620   -0.2880 C.3       4 GLP5        0.0000 
     16 CA        -36.7495    4.4050    2.8020 C.3       2 GLC5        0.0000 
     17 CA        -36.8490    2.4850    2.6130 C.3       6 GLL5        0.0000 
     18 CA        -36.6500    6.3250    2.9910 C.3       4 GLP5        0.0000 
     19 CA        -40.1830    4.3335    2.0035 C.3       2 GLC5        0.0000 
     20 CA        -39.5420    2.3090    1.8140 C.3       6 GLL5        0.0000 
     21 CA        -40.8240    6.3580    2.1930 C.3       4 GLP5        0.0000 
     22 CA        -42.1880    3.9595    2.0890 C.3       2 GLC5        0.0000 
     23 CA        -42.1210    1.9370    1.5990 C.3       6 GLL5        0.0000 
     24 CA        -42.2550    5.9820    2.5790 C.3       4 GLP5        0.0000 
     25 O         -44.7150    1.4200    4.3240 O.2       1 ALC1        0.0000 
     26 O         -43.9110    1.6410    3.1770 O.2       5 ALL1        0.0000 
     27 O         -45.5190    1.1990    5.4710 O.2       3 ALP1        0.0000 
     28 CA        -39.6770   -1.0825   -1.1470 C.3       2 GLC5        0.0000 
     29 CA        -40.3370    0.2470   -2.2840 C.3       6 GLL5        0.0000 
     30 CA        -39.0170   -2.4120   -0.0100 C.3       4 GLP5        0.0000 
     31 CA        -46.8275    2.0480   -1.7070 C.3       2 GLC5        0.0000 
     32 CA        -44.6810    1.7780   -1.2050 C.3       6 GLL5        0.0000 
     33 CA        -48.9740    2.3180   -2.2090 C.3       4 GLP5        0.0000 
     34 CA        -39.9663    4.8685   -1.1425 C.3       2 GLC5        0.0000 
     35 CA        -40.9060    4.2882    0.0940 C.3       2 GLC5        0.0000 
     36 CA        -40.5110    2.8980   -0.1480 C.3       6 GLL5        0.0000 
     37 CA        -37.1412    4.6613    1.3073 C.3       2 GLC5        0.0000 
     38 CA        -35.4627    2.4173    1.0713 C.3       2 GLC5        0.0000 
     39 CA        -37.2460    2.9200    1.3520 C.3       6 GLL5        0.0000 
     40 CA        -33.8780    2.1320    0.1600 C.3       4 GLP5        0.0000 
     41 CA        -36.6305    0.3065    3.3995 C.3       2 GLC5        0.0000 
     42 CA        -35.9370   -1.6100    3.7550 C.3       4 GLP5        0.0000 
     43 CA        -39.1510    1.0348    4.7922 C.3       2 GLC5        0.0000 
     44 CA        -37.7990    1.9610    3.4750 C.3       6 GLL5        0.0000 
     45 CA        -39.8270    0.1540    6.3080 C.3       4 GLP5        0.0000 
     46 CA        -38.4916    0.3640    1.3304 C.3       2 GLC5        0.0000 
     47 CA        -39.1510    1.8700    3.0780 C.3       6 GLL5        0.0000 
     48 CA        -37.8790   -1.4890    0.4330 C.3       4 GLP5        0.0000 
     49 CA        -43.0735   -0.0698    2.3298 C.3       2 GLC5        0.0000 
     50 CA        -43.4170   -1.8620    3.4100 C.3       4 GLP5        0.0000 
     51 CA        -43.5980   -0.7683   -0.9275 C.3       2 GLC5        0.0000 
     52 CA        -43.5160    1.4010   -0.5540 C.3       6 GLL5        0.0000 
     53 CA        -44.2000   -2.7480   -0.8760 C.3       4 GLP5        0.0000 
     54 CA        -41.0547   -0.6740   -0.2465 C.3       2 GLC5        0.0000 
     55 CA        -42.4760    1.0220   -1.4040 C.3       6 GLL5        0.0000 
     56 CA        -40.3070   -2.1530    0.8050 C.3       4 GLP5        0.0000 
     57 CA        -41.6920   -1.2783   -2.3190 C.3       2 GLC5        0.0000 
     58 CA        -41.1290    0.5880   -1.1920 C.3       6 GLL5        0.0000 
     59 CA        -42.6510   -2.9740   -2.9000 C.3       4 GLP5        0.0000 
     60 CA        -39.7130   -1.1707   -4.1032 C.3       2 GLC5        0.0000 
     61 CA        -38.8040   -2.6340   -5.2810 C.3       4 GLP5        0.0000 
     62 CA        -42.4852   -1.0590   -3.0344 C.3       2 GLC5        0.0000 
     63 CA        -40.9070    0.3380   -3.5670 C.3       6 GLL5        0.0000 
     64 CA        -44.8741    3.1686    0.1190 C.3       2 GLC5        0.0000 
     65 CA        -45.6940    4.7210    0.7540 C.3       4 GLP5        0.0000 
@<TRIPOS>BOND
@<TRIPOS>SUBSTRUCTURE
     1 ALC1       25 GROUP        1 X    ALC  0     ROOT ALC X 1
     2 GLC5        1 GROUP        1 X    GLC  0     **** GLC X 6
     3 ALP1       27 GROUP        1 Y    ALP  0     ROOT ALP Y 8
     4 GLP5        3 GROUP        1 Y    GLP  0     **** GLP Y 13
     5 ALL1       26 GROUP        1 Z    ALL  0     ROOT ALL Z 15
     6 GLL5        2 GROUP        1 Z    GLL  0     **** GLL Z 20
@<TRIPOS>SET

