#    Name: 2bil_BI1_1_ligand
#    Modification time : Mon Mar 24 21:02:25 2014

@<TRIPOS>MOLECULE
2bil_BI1_1_ligand
   56    60     1     0     0
SMALL
NO_CHARGES


@<TRIPOS>ATOM
      1 CBD       -37.5210    4.4970   -6.1060 C.3       1 BI11307     0.0000 
      2 NBC       -38.4330    4.0060   -5.0940 N.4       1 BI11307     0.0000 
      3 CBE       -39.5560    3.1400   -5.4940 C.3       1 BI11307     0.0000 
      4 CBB       -38.1700    4.4410   -3.7080 C.3       1 BI11307     0.0000 
      5 CBA       -39.0990    3.7730   -2.6760 C.3       1 BI11307     0.0000 
      6 CAY       -38.4020    3.7770   -1.3180 C.3       1 BI11307     0.0000 
      7 NAH       -39.1690    3.1600   -0.2220 N.pl3     1 BI11307     0.0000 
      8 CAW       -40.5110    2.8980   -0.1480 C.2       1 BI11307     0.0000 
      9 CAE       -38.5730    2.8190    0.9410 C.ar      1 BI11307     0.0000 
     10 CAF       -37.2460    2.9200    1.3520 C.ar      1 BI11307     0.0000 
     11 CAA       -36.8490    2.4850    2.6130 C.ar      1 BI11307     0.0000 
     12 CAB       -37.7990    1.9610    3.4750 C.ar      1 BI11307     0.0000 
     13 CAC       -39.1510    1.8700    3.0780 C.ar      1 BI11307     0.0000 
     14 CAD       -39.5420    2.3090    1.8140 C.ar      1 BI11307     0.0000 
     15 CAG       -40.7490    2.3310    1.1000 C.2       1 BI11307     0.0000 
     16 CAI       -42.1210    1.9370    1.5990 C.2       1 BI11307     0.0000 
     17 CAT       -42.5910    1.9830    3.0080 C.2       1 BI11307     0.0000 
     18 OAZ       -41.8320    2.2970    3.9960 O.2       1 BI11307     0.0000 
     19 NAU       -43.9110    1.6410    3.1770 N.am      1 BI11307     0.0000 
     20 CAV       -44.3860    1.3800    1.9320 C.2       1 BI11307     0.0000 
     21 OAX       -45.6160    1.0380    1.7120 O.2       1 BI11307     0.0000 
     22 CAJ       -43.3390    1.5080    0.9000 C.2       1 BI11307     0.0000 
     23 CAK       -43.5160    1.4010   -0.5540 C.2       1 BI11307     0.0000 
     24 CAM       -42.4760    1.0220   -1.4040 C.ar      1 BI11307     0.0000 
     25 CAP       -41.1290    0.5880   -1.1920 C.ar      1 BI11307     0.0000 
     26 CAQ       -40.3370    0.2470   -2.2840 C.ar      1 BI11307     0.0000 
     27 CAR       -40.9070    0.3380   -3.5670 C.ar      1 BI11307     0.0000 
     28 CAS       -42.2470    0.7860   -3.7660 C.ar      1 BI11307     0.0000 
     29 CAN       -43.0620    1.1500   -2.6710 C.ar      1 BI11307     0.0000 
     30 NAO       -44.3650    1.6020   -2.5160 N.pl3     1 BI11307     0.0000 
     31 CAL       -44.6810    1.7780   -1.2050 C.2       1 BI11307     0.0000 
     32 H         -37.5876    2.8552   -4.9002 H         1 BI11307     0.0000 
     33 H         -38.2935    5.5337   -3.6173 H         1 BI11307     0.0000 
     34 H         -37.1286    4.2126   -3.4237 H         1 BI11307     0.0000 
     35 H         -39.2942    2.7575   -2.9815 H         1 BI11307     0.0000 
     36 H         -40.0187    4.3324   -2.6143 H         1 BI11307     0.0000 
     37 H         -38.1543    4.8321   -1.0630 H         1 BI11307     0.0000 
     38 H         -37.4218    3.2619   -1.4344 H         1 BI11307     0.0000 
     39 H         -41.1627    3.0657   -0.8117 H         1 BI11307     0.0000 
     40 H         -36.5436    3.3255    0.7084 H         1 BI11307     0.0000 
     41 H         -35.8689    2.5523    2.8969 H         1 BI11307     0.0000 
     42 H         -37.5295    1.6333    4.4118 H         1 BI11307     0.0000 
     43 H         -39.8415    1.4784    3.7275 H         1 BI11307     0.0000 
     44 H         -44.3806    1.5992    3.9927 H         1 BI11307     0.0000 
     45 H         -40.7687    0.5350   -0.2407 H         1 BI11307     0.0000 
     46 H         -39.3799   -0.0578   -2.1666 H         1 BI11307     0.0000 
     47 H         -40.3465    0.0750   -4.3938 H         1 BI11307     0.0000 
     48 H         -42.6183    0.8425   -4.7203 H         1 BI11307     0.0000 
     49 H         -44.9688    1.7686   -3.2658 H         1 BI11307     0.0000 
     50 H         -45.4670    2.0729   -0.8265 H         1 BI11307     0.0000 
     51 H         -36.8062    5.0752   -5.7127 H         1 BI11307     0.0000 
     52 H         -37.0622    3.7496   -6.5865 H         1 BI11307     0.0000 
     53 H         -37.9930    5.0440   -6.7974 H         1 BI11307     0.0000 
     54 H         -39.2387    2.2999   -5.9340 H         1 BI11307     0.0000 
     55 H         -40.1128    2.8676   -4.7093 H         1 BI11307     0.0000 
     56 H         -40.1656    3.5976   -6.1412 H         1 BI11307     0.0000 
@<TRIPOS>BOND
     1    2    1 1    
     2   51    1 1    
     3   52    1 1    
     4   53    1 1    
     5    3    2 1    
     6    4    2 1    
     7   32    2 1    
     8   54    3 1    
     9   55    3 1    
    10   56    3 1    
    11    5    4 1    
    12   33    4 1    
    13   34    4 1    
    14    6    5 1    
    15   35    5 1    
    16   36    5 1    
    17    7    6 1    
    18   37    6 1    
    19   38    6 1    
    20    8    7 1    
    21    9    7 1    
    22   15    8 2    
    23   39    8 1    
    24   10    9 ar   
    25   14    9 ar   
    26   11   10 ar   
    27   40   10 1    
    28   12   11 ar   
    29   41   11 1    
    30   13   12 ar   
    31   42   12 1    
    32   14   13 ar   
    33   43   13 1    
    34   15   14 1    
    35   16   15 1    
    36   17   16 1    
    37   22   16 2    
    38   18   17 2    
    39   19   17 am   
    40   20   19 am   
    41   44   19 1    
    42   21   20 2    
    43   22   20 1    
    44   23   22 1    
    45   24   23 1    
    46   31   23 2    
    47   25   24 ar   
    48   29   24 ar   
    49   26   25 ar   
    50   45   25 1    
    51   27   26 ar   
    52   46   26 1    
    53   28   27 ar   
    54   47   27 1    
    55   29   28 ar   
    56   48   28 1    
    57   30   29 1    
    58   31   30 1    
    59   49   30 1    
    60   50   31 1    
@<TRIPOS>SUBSTRUCTURE
     1 BI11307     1 GROUP   
@<TRIPOS>SET

