#    Name: 1xf0_ASD_1_INTS_M
#    Modification time : Mon Apr  7 15:17:06 2014

@<TRIPOS>MOLECULE
1xf0_ASD_1_INTS_M
   66     0     6     0     0
SMALL
NO_CHARGES


@<TRIPOS>ATOM
      1 CA         14.6000   30.9500   10.2485 C.3       2 GLC5        0.0000 
      2 CA         15.5740   31.1860   11.8510 C.3       6 GLL5        0.0000 
      3 CA         13.6260   30.7140    8.6460 C.3       4 GLP5        0.0000 
      4 CA         16.6310   29.6250   13.0150 C.3       2 GLC5        0.0000 
      5 CA         17.6880   28.0640   14.1790 C.3       4 GLP5        0.0000 
      6 CA         20.4240   29.3830    9.1255 C.3       2 GLC5        0.0000 
      7 CA         19.8210   30.9920   10.3110 C.3       6 GLL5        0.0000 
      8 CA         21.0270   27.7740    7.9400 C.3       4 GLP5        0.0000 
      9 CA         20.9730   31.2850   13.8745 C.3       2 GLC5        0.0000 
     10 CA         20.7410   32.4930   11.9950 C.3       6 GLL5        0.0000 
     11 CA         21.2050   30.0770   15.7540 C.3       4 GLP5        0.0000 
     12 CA         22.8860   30.9385   11.6680 C.3       2 GLC5        0.0000 
     13 CA         22.9570   32.9620   11.5140 C.3       6 GLL5        0.0000 
     14 CA         22.8150   28.9150   11.8220 C.3       4 GLP5        0.0000 
     15 CA         24.8600   32.1490   10.7530 C.3       2 GLC5        0.0000 
     16 CA         26.7630   31.3360    9.9920 C.3       4 GLP5        0.0000 
     17 CA         20.6880   34.8490    8.1260 C.3       2 GLC5        0.0000 
     18 CA         20.3960   33.3920    9.6220 C.3       6 GLL5        0.0000 
     19 CA         20.9800   36.3060    6.6300 C.3       4 GLP5        0.0000 
     20 CA         19.8690   35.2585   10.6885 C.3       2 GLC5        0.0000 
     21 CA         19.3420   37.1250   11.7550 C.3       4 GLP5        0.0000 
     22 CA         15.2610   34.6970   13.0145 C.3       2 GLC5        0.0000 
     23 CA         16.2450   33.5710   11.7360 C.3       6 GLL5        0.0000 
     24 CA         14.2770   35.8230   14.2930 C.3       4 GLP5        0.0000 
     25 CA         16.6290   35.1680   11.4355 C.3       2 GLC5        0.0000 
     26 CA         17.0130   36.7650   11.1350 C.3       4 GLP5        0.0000 
     27 CA         13.4010   29.7580   11.2760 C.3       2 GLC5        0.0000 
     28 CA         14.5860   30.4990   12.8250 C.3       6 GLL5        0.0000 
     29 CA         12.2160   29.0170    9.7270 C.3       4 GLP5        0.0000 
     30 CA         13.7105   32.2450   13.7675 C.3       2 GLC5        0.0000 
     31 CA         12.8350   33.9910   14.7100 C.3       4 GLP5        0.0000 
     32 CA         16.0740   29.7555   14.0155 C.3       2 GLC5        0.0000 
     33 CA         17.5620   29.0120   15.2060 C.3       4 GLP5        0.0000 
     34 CA         14.7320   32.6670   15.2695 C.3       2 GLC5        0.0000 
     35 CA         15.8500   31.7100   14.7090 C.3       6 GLL5        0.0000 
     36 CA         13.6140   33.6240   15.8300 C.3       4 GLP5        0.0000 
     37 CA         15.7165   33.3595   15.0435 C.3       2 GLC5        0.0000 
     38 CA         16.6920   32.3720   13.9140 C.3       6 GLL5        0.0000 
     39 CA         14.7410   34.3470   16.1730 C.3       4 GLP5        0.0000 
     40 CA         16.4090   34.4055   14.9485 C.3       2 GLC5        0.0000 
     41 CA         17.7350   33.3370   14.4970 C.3       6 GLL5        0.0000 
     42 CA         15.0830   35.4740   15.4000 C.3       4 GLP5        0.0000 
     43 CA         18.6875   34.6855   12.1710 C.3       2 GLC5        0.0000 
     44 CA         19.2510   32.9010   12.3960 C.3       6 GLL5        0.0000 
     45 CA         18.1240   36.4700   11.9460 C.3       4 GLP5        0.0000 
     46 CA         17.8705   30.3890   13.5730 C.3       2 GLC5        0.0000 
     47 CA         18.1790   31.7660   11.9400 C.3       6 GLL5        0.0000 
     48 N          13.7175   28.8130   15.4010 N.am      1 SEC2        0.0000 
     49 N          14.0430   30.2840   15.1380 N.am      5 SEL2        0.0000 
     50 N          13.3920   27.3420   15.6640 N.am      3 SEP2        0.0000 
     51 CA         15.5290   29.2643   11.2700 C.3       2 GLC5        0.0000 
     52 CA         15.9780   27.6860   10.2020 C.3       4 GLP5        0.0000 
     53 CA         21.6705   30.4824   11.5204 C.3       2 GLC5        0.0000 
     54 CA         20.8922   34.9395   12.3975 C.3       2 GLC5        0.0000 
     55 CA         20.5400   36.8340   12.6550 C.3       4 GLP5        0.0000 
     56 CA         23.6752   32.7218   13.3742 C.3       2 GLC5        0.0000 
     57 CA         21.7480   33.5970   12.2850 C.3       6 GLL5        0.0000 
     58 CA         24.9980   32.1640   14.8490 C.3       4 GLP5        0.0000 
     59 CA         24.0023   34.3828   11.7308 C.3       2 GLC5        0.0000 
     60 CA         25.6520   35.4860   11.5620 C.3       4 GLP5        0.0000 
     61 CA         16.9149   30.5069   14.5633 C.3       2 GLC5        0.0000 
     62 CA         16.6790   32.2150   12.3500 C.3       6 GLL5        0.0000 
     63 CA         18.2780   34.8505   13.0910 C.3       2 GLC5        0.0000 
     64 CA         18.5725   31.4540   14.9730 C.3       2 GLC5        0.0000 
     65 CA         19.1290   33.1250   13.9750 C.3       6 GLL5        0.0000 
     66 CA         18.7130   29.6770   15.7100 C.3       4 GLP5        0.0000 
@<TRIPOS>BOND
@<TRIPOS>SUBSTRUCTURE
     1 SEC2       48 GROUP        1 X    SEC  0     ROOT SEC X 2
     2 GLC5        1 GROUP        1 X    GLC  0     **** GLC X 6
     3 SEP2       50 GROUP        1 Y    SEP  0     ROOT SEP Y 9
     4 GLP5        3 GROUP        1 Y    GLP  0     **** GLP Y 13
     5 SEL2       49 GROUP        1 Z    SEL  0     ROOT SEL Z 16
     6 GLL5        2 GROUP        1 Z    GLL  0     **** GLL Z 20
@<TRIPOS>SET

