#    Name: 1xf0_ASD_1_ligand
#    Modification time : Mon Apr  7 15:17:06 2014

@<TRIPOS>MOLECULE
1xf0_ASD_1_ligand
   47    50     1     0     0
SMALL
NO_CHARGES


@<TRIPOS>ATOM
      1 C1         15.5740   31.1860   11.8510 C.3       1 ASD600      0.0000 
      2 C10        16.6790   32.2150   12.3500 C.3       1 ASD600      0.0000 
      3 C11        18.3590   31.5100   10.3470 C.3       1 ASD600      0.0000 
      4 C12        19.8210   30.9920   10.3110 C.3       1 ASD600      0.0000 
      5 C13        20.8010   32.2210   10.5740 C.3       1 ASD600      0.0000 
      6 C14        20.7410   32.4930   11.9950 C.3       1 ASD600      0.0000 
      7 C15        21.7480   33.5970   12.2850 C.3       1 ASD600      0.0000 
      8 C16        22.9570   32.9620   11.5140 C.3       1 ASD600      0.0000 
      9 C17        22.2930   32.0470   10.3910 C.2       1 ASD600      0.0000 
     10 C18        20.3960   33.3920    9.6220 C.3       1 ASD600      0.0000 
     11 C19        16.2450   33.5710   11.7360 C.3       1 ASD600      0.0000 
     12 C2         14.5860   30.4990   12.8250 C.3       1 ASD600      0.0000 
     13 C3         14.7600   30.8020   14.3020 C.2       1 ASD600      0.0000 
     14 C4         15.8500   31.7100   14.7090 C.2       1 ASD600      0.0000 
     15 C5         16.6920   32.3720   13.9140 C.2       1 ASD600      0.0000 
     16 C6         17.7350   33.3370   14.4970 C.3       1 ASD600      0.0000 
     17 C7         19.1290   33.1250   13.9750 C.3       1 ASD600      0.0000 
     18 C8         19.2510   32.9010   12.3960 C.3       1 ASD600      0.0000 
     19 C9         18.1790   31.7660   11.9400 C.3       1 ASD600      0.0000 
     20 O1         14.0430   30.2840   15.1380 O.2       1 ASD600      0.0000 
     21 O2         22.8710   31.3050    9.6060 O.2       1 ASD600      0.0000 
     22 H          16.1178   30.3806   11.2690 H         1 ASD600      0.0000 
     23 H          14.9734   31.7157   11.0499 H         1 ASD600      0.0000 
     24 H          17.6987   30.7633   10.0700 H         1 ASD600      0.0000 
     25 H          18.2823   32.4243    9.8690 H         1 ASD600      0.0000 
     26 H          20.0413   30.5891    9.3451 H         1 ASD600      0.0000 
     27 H          19.9718   30.2717   11.0871 H         1 ASD600      0.0000 
     28 H          21.0004   31.6198   12.5601 H         1 ASD600      0.0000 
     29 H          21.9744   33.6311   13.2912 H         1 ASD600      0.0000 
     30 H          21.4755   34.4741   11.8146 H         1 ASD600      0.0000 
     31 H          23.5112   32.3481   12.1657 H         1 ASD600      0.0000 
     32 H          23.5168   33.7202   11.0444 H         1 ASD600      0.0000 
     33 H          14.6582   29.3985   12.6674 H         1 ASD600      0.0000 
     34 H          13.5519   30.7743   12.5155 H         1 ASD600      0.0000 
     35 H          15.9321   31.8153   15.7791 H         1 ASD600      0.0000 
     36 H          17.7309   33.2296   15.5968 H         1 ASD600      0.0000 
     37 H          17.4112   34.3709   14.2796 H         1 ASD600      0.0000 
     38 H          19.5916   32.2440   14.4570 H         1 ASD600      0.0000 
     39 H          19.7696   33.9914   14.2229 H         1 ASD600      0.0000 
     40 H          18.9911   33.8090   11.9067 H         1 ASD600      0.0000 
     41 H          18.4280   30.8687   12.4541 H         1 ASD600      0.0000 
     42 H          20.9851   34.1907    9.7443 H         1 ASD600      0.0000 
     43 H          20.4578   33.1267    8.6598 H         1 ASD600      0.0000 
     44 H          19.4563   33.6935    9.7831 H         1 ASD600      0.0000 
     45 H          16.8712   34.3094   11.9862 H         1 ASD600      0.0000 
     46 H          16.2187   33.5349   10.7370 H         1 ASD600      0.0000 
     47 H          15.3332   33.8431   12.0436 H         1 ASD600      0.0000 
@<TRIPOS>BOND
     1    2    1 1    
     2   12    1 1    
     3   22    1 1    
     4   23    1 1    
     5   11    2 1    
     6   15    2 1    
     7   19    2 1    
     8    4    3 1    
     9   19    3 1    
    10   24    3 1    
    11   25    3 1    
    12    5    4 1    
    13   26    4 1    
    14   27    4 1    
    15    6    5 1    
    16    9    5 1    
    17   10    5 1    
    18    7    6 1    
    19   18    6 1    
    20   28    6 1    
    21    8    7 1    
    22   29    7 1    
    23   30    7 1    
    24    9    8 1    
    25   31    8 1    
    26   32    8 1    
    27   21    9 2    
    28   42   10 1    
    29   43   10 1    
    30   44   10 1    
    31   45   11 1    
    32   46   11 1    
    33   47   11 1    
    34   13   12 1    
    35   33   12 1    
    36   34   12 1    
    37   14   13 1    
    38   20   13 2    
    39   15   14 2    
    40   35   14 1    
    41   16   15 1    
    42   17   16 1    
    43   36   16 1    
    44   37   16 1    
    45   18   17 1    
    46   38   17 1    
    47   39   17 1    
    48   19   18 1    
    49   40   18 1    
    50   41   19 1    
@<TRIPOS>SUBSTRUCTURE
     1 ASD600      1 GROUP   
@<TRIPOS>SET

