#    Name: 3O2N_1_CAVITY_N1_6.mol2
#    Modification time : Tue Mar 11 19:02:08 2014

@<TRIPOS>MOLECULE
3O2N_1_CAVITY_N1_6.mol2
  126     0     5     0     0
SMALL
NO_CHARGES


@<TRIPOS>ATOM
      1 CZ         28.3419  -23.7497  -11.8024 C.ar      3 PHE5        0.0000 
      2 CA         28.9278  -22.8994  -12.8904 C.3       4 GLY6        0.0000 
      3 CZ         28.2837  -21.1532  -11.8725 C.ar      3 PHE5        0.0000 
      4 CA         28.8695  -20.3030  -12.9606 C.3       4 GLY6        0.0000 
      5 CA         30.0412  -18.6024  -15.1366 C.3       4 GLY6        0.0000 
      6 CZ         27.6840  -22.0612  -12.9050 C.ar      3 PHE5        0.0000 
      7 DU         28.2698  -21.2109  -13.9930 H         5 CUB7        0.0000 
      8 DU         28.8556  -20.3606  -15.0811 H         5 CUB7        0.0000 
      9 DU         29.4415  -19.5103  -16.1691 H         5 CUB7        0.0000 
     10 DU         30.0273  -18.6600  -17.2571 H         5 CUB7        0.0000 
     11 CZ         27.0842  -22.9691  -13.9375 C.ar      3 PHE5        0.0000 
     12 DU         27.6701  -22.1188  -15.0255 H         5 CUB7        0.0000 
     13 DU         28.2559  -21.2685  -16.1135 H         5 CUB7        0.0000 
     14 DU         28.8417  -20.4182  -17.2016 H         5 CUB7        0.0000 
     15 N          31.1686  -14.2477  -15.2623 N.2       1 ALA2        0.0000 
     16 N          27.6396  -19.4071  -10.8547 N.2       1 ALA2        0.0000 
     17 N          28.2255  -18.5568  -11.9427 N.2       1 ALA2        0.0000 
     18 CA         28.8113  -17.7065  -13.0307 C.3       4 GLY6        0.0000 
     19 N          29.3971  -16.8562  -14.1188 N.2       1 ALA2        0.0000 
     20 N          29.9830  -16.0059  -15.2068 N.2       1 ALA2        0.0000 
     21 N          30.5688  -15.1556  -16.2948 N.2       1 ALA2        0.0000 
     22 CA         31.1547  -14.3053  -17.3828 C.3       4 GLY6        0.0000 
     23 CA         31.7405  -13.4550  -18.4709 C.3       4 GLY6        0.0000 
     24 CZ         27.0399  -20.3150  -11.8872 C.ar      3 PHE5        0.0000 
     25 DU         27.6257  -19.4647  -12.9752 H         5 CUB7        0.0000 
     26 DU         28.2116  -18.6144  -14.0632 H         5 CUB7        0.0000 
     27 DU         28.7974  -17.7641  -15.1512 H         5 CUB7        0.0000 
     28 DU         29.3832  -16.9138  -16.2393 H         5 CUB7        0.0000 
     29 DU         29.9691  -16.0635  -17.3273 H         5 CUB7        0.0000 
     30 NZ         30.5549  -15.2132  -18.4153 N.2       2 LYS4        0.0000 
     31 NZ         31.1407  -14.3629  -19.5033 N.2       2 LYS4        0.0000 
     32 CZ         26.4401  -21.2229  -12.9196 C.ar      3 PHE5        0.0000 
     33 DU         27.0260  -20.3726  -14.0077 H         5 CUB7        0.0000 
     34 DU         28.1977  -18.6720  -16.1837 H         5 CUB7        0.0000 
     35 DU         28.7835  -17.8217  -17.2717 H         5 CUB7        0.0000 
     36 DU         29.3693  -16.9714  -18.3598 H         5 CUB7        0.0000 
     37 NZ         29.9552  -16.1211  -19.4478 N.2       2 LYS4        0.0000 
     38 CZ         25.8404  -22.1308  -13.9521 C.ar      3 PHE5        0.0000 
     39 DU         26.4262  -21.2805  -15.0401 H         5 CUB7        0.0000 
     40 DU         27.0121  -20.4302  -16.1282 H         5 CUB7        0.0000 
     41 N          27.5979  -19.5799  -17.2162 N.2       1 ALA2        0.0000 
     42 N          28.1838  -18.7296  -18.3042 N.2       1 ALA2        0.0000 
     43 CA         24.6548  -23.8890  -13.8966 C.3       4 GLY6        0.0000 
     44 CA         25.2407  -23.0387  -14.9846 C.3       4 GLY6        0.0000 
     45 CA         25.8265  -22.1884  -16.0726 C.3       4 GLY6        0.0000 
     46 CA         26.4123  -21.3381  -17.1606 C.3       4 GLY6        0.0000 
     47 N          26.9982  -20.4879  -18.2486 N.2       1 ALA2        0.0000 
     48 N          29.9247  -13.4094  -15.2770 N.2       1 ALA2        0.0000 
     49 CA         30.5106  -12.5591  -16.3650 C.3       4 GLY6        0.0000 
     50 CZ         26.9816  -17.7185  -11.9574 C.ar      3 PHE5        0.0000 
     51 CZ         27.5675  -16.8682  -13.0454 C.ar      3 PHE5        0.0000 
     52 N          28.1533  -16.0179  -14.1334 N.2       1 ALA2        0.0000 
     53 N          28.7391  -15.1676  -15.2214 N.2       1 ALA2        0.0000 
     54 N          29.3250  -14.3173  -16.3094 N.2       1 ALA2        0.0000 
     55 CA         29.9108  -13.4670  -17.3975 C.3       4 GLY6        0.0000 
     56 CA         30.4967  -12.6167  -18.4855 C.3       4 GLY6        0.0000 
     57 CZ         25.7960  -19.4767  -11.9018 C.ar      3 PHE5        0.0000 
     58 CZ         26.3819  -18.6264  -12.9898 C.ar      3 PHE5        0.0000 
     59 DU         26.9677  -17.7761  -14.0778 H         5 CUB7        0.0000 
     60 DU         27.5536  -16.9258  -15.1659 H         5 CUB7        0.0000 
     61 DU         28.1394  -16.0755  -16.2539 H         5 CUB7        0.0000 
     62 DU         28.7252  -15.2252  -17.3419 H         5 CUB7        0.0000 
     63 NZ         29.3111  -14.3750  -18.4299 N.2       2 LYS4        0.0000 
     64 CZ         24.6105  -21.2349  -11.8462 C.ar      3 PHE5        0.0000 
     65 CZ         25.1963  -20.3846  -12.9343 C.ar      3 PHE5        0.0000 
     66 DU         25.7821  -19.5343  -14.0223 H         5 CUB7        0.0000 
     67 DU         26.9538  -17.8338  -16.1983 H         5 CUB7        0.0000 
     68 DU         27.5397  -16.9835  -17.2864 H         5 CUB7        0.0000 
     69 NZ         28.1255  -16.1332  -18.3744 N.2       2 LYS4        0.0000 
     70 CZ         24.0107  -22.1429  -12.8787 C.ar      3 PHE5        0.0000 
     71 DU         24.5966  -21.2926  -13.9667 H         5 CUB7        0.0000 
     72 DU         25.1824  -20.4423  -15.0548 H         5 CUB7        0.0000 
     73 N          25.7682  -19.5920  -16.1428 N.2       1 ALA2        0.0000 
     74 N          26.3541  -18.7417  -17.2308 N.2       1 ALA2        0.0000 
     75 N          26.9399  -17.8914  -18.3188 N.2       1 ALA2        0.0000 
     76 CA         23.4110  -23.0508  -13.9112 C.3       4 GLY6        0.0000 
     77 CA         23.9968  -22.2005  -14.9992 C.3       4 GLY6        0.0000 
     78 CA         24.5827  -21.3502  -16.0872 C.3       4 GLY6        0.0000 
     79 CA         25.1685  -20.4999  -17.1753 C.3       4 GLY6        0.0000 
     80 N          28.6809  -12.5711  -15.2916 N.2       1 ALA2        0.0000 
     81 CZ         26.9095  -15.1797  -14.1480 C.ar      3 PHE5        0.0000 
     82 N          27.4953  -14.3294  -15.2360 N.2       1 ALA2        0.0000 
     83 N          28.0812  -13.4791  -16.3241 N.2       1 ALA2        0.0000 
     84 NZ         28.6670  -12.6288  -17.4121 N.2       2 LYS4        0.0000 
     85 CZ         25.1381  -17.7882  -13.0044 C.ar      3 PHE5        0.0000 
     86 CZ         25.7239  -16.9379  -14.0925 C.ar      3 PHE5        0.0000 
     87 DU         26.3097  -16.0876  -15.1805 H         5 CUB7        0.0000 
     88 DU         26.8956  -15.2373  -16.2685 H         5 CUB7        0.0000 
     89 NZ         27.4814  -14.3870  -17.3565 N.2       2 LYS4        0.0000 
     90 NZ         28.0673  -13.5367  -18.4446 N.2       2 LYS4        0.0000 
     91 CZ         24.5383  -18.6961  -14.0369 C.ar      3 PHE5        0.0000 
     92 DU         25.1242  -17.8458  -15.1249 H         5 CUB7        0.0000 
     93 CA         25.7100  -16.9955  -16.2130 C.3       4 GLY6        0.0000 
     94 CA         26.2958  -16.1452  -17.3010 C.3       4 GLY6        0.0000 
     95 NZ         26.8817  -15.2949  -18.3890 N.2       2 LYS4        0.0000 
     96 CZ         22.7669  -21.3046  -12.8933 C.ar      3 PHE5        0.0000 
     97 CZ         23.3527  -20.4543  -13.9814 C.ar      3 PHE5        0.0000 
     98 DU         23.9386  -19.6040  -15.0694 H         5 CUB7        0.0000 
     99 O          24.5244  -18.7537  -16.1574 O.2       1 ALA2        0.0000 
    100 CA         25.1103  -17.9034  -17.2454 C.3       4 GLY6        0.0000 
    101 O          22.7530  -21.3622  -15.0138 O.2       1 ALA2        0.0000 
    102 CA         23.3388  -20.5119  -16.1019 C.3       4 GLY6        0.0000 
    103 CA         27.4510  -11.6753  -13.1857 C.3       4 GLY6        0.0000 
    104 CZ         26.8512  -12.5832  -14.2182 C.ar      3 PHE5        0.0000 
    105 CZ         25.6657  -14.3414  -14.1626 C.ar      3 PHE5        0.0000 
    106 CZ         26.2515  -13.4911  -15.2507 C.ar      3 PHE5        0.0000 
    107 CZ         26.8373  -12.6408  -16.3387 C.ar      3 PHE5        0.0000 
    108 CZ         23.8942  -16.9499  -13.0191 C.ar      3 PHE5        0.0000 
    109 CZ         24.4801  -16.0996  -14.1071 C.ar      3 PHE5        0.0000 
    110 CA         25.0659  -15.2493  -15.1951 C.3       4 GLY6        0.0000 
    111 CA         25.6518  -14.3990  -16.2831 C.3       4 GLY6        0.0000 
    112 CA         26.2376  -13.5487  -17.3712 C.3       4 GLY6        0.0000 
    113 CZ         23.2945  -17.8578  -14.0515 C.ar      3 PHE5        0.0000 
    114 N          23.8803  -17.0075  -15.1396 N.2       1 ALA2        0.0000 
    115 N          24.4662  -16.1572  -16.2276 N.2       1 ALA2        0.0000 
    116 CZ         22.1089  -19.6160  -13.9960 C.ar      3 PHE5        0.0000 
    117 N          22.6948  -18.7657  -15.0840 N.2       1 ALA2        0.0000 
    118 N          23.2806  -17.9154  -16.1720 N.2       1 ALA2        0.0000 
    119 N          22.0950  -19.6737  -16.1165 N.2       1 ALA2        0.0000 
    120 CZ         23.2502  -15.2037  -12.0012 C.ar      3 PHE5        0.0000 
    121 CZ         23.8360  -14.3534  -13.0892 C.ar      3 PHE5        0.0000 
    122 CZ         22.6504  -16.1116  -13.0337 C.ar      3 PHE5        0.0000 
    123 N          23.2362  -15.2613  -14.1217 N.2       1 ALA2        0.0000 
    124 CZ         22.0507  -17.0196  -14.0662 C.ar      3 PHE5        0.0000 
    125 N          22.6365  -16.1693  -15.1542 N.2       1 ALA2        0.0000 
    126 O          21.4509  -17.9275  -15.0986 O.2       1 ALA2        0.0000 
@<TRIPOS>BOND
@<TRIPOS>SUBSTRUCTURE
     1 ALA2       15 GROUP   
     2 LYS4       30 GROUP   
     3 PHE5        1 GROUP   
     4 GLY6        2 GROUP   
     5 CUB7        7 GROUP   
@<TRIPOS>SET

