#    Name: 3o2n_MZX_1_INTS_M
#    Modification time : Tue Mar 25 03:11:22 2014

@<TRIPOS>MOLECULE
3o2n_MZX_1_INTS_M
   20     0     3     0     0
SMALL
NO_CHARGES


@<TRIPOS>ATOM
      1 CA         24.9340  -22.6390  -16.0990 C.3       1 GLC5        0.0000 
      2 CA         25.7990  -21.0870  -15.3250 C.3       3 GLL5        0.0000 
      3 CA         24.0690  -24.1910  -16.8730 C.3       2 GLP5        0.0000 
      4 CA         24.8270  -20.9800  -17.7895 C.3       1 GLC5        0.0000 
      5 CA         26.5110  -21.0380  -16.5260 C.3       3 GLL5        0.0000 
      6 CA         23.1430  -20.9220  -19.0530 C.3       2 GLP5        0.0000 
      7 CA         25.9095  -22.5485  -17.3005 C.3       1 GLC5        0.0000 
      8 CA         25.3080  -24.0590  -18.0750 C.3       2 GLP5        0.0000 
      9 CA         30.6560  -18.3505  -13.2105 C.3       1 GLC5        0.0000 
     10 CA         29.4970  -17.6500  -14.5340 C.3       3 GLL5        0.0000 
     11 CA         31.8150  -19.0510  -11.8870 C.3       2 GLP5        0.0000 
     12 CA         24.3250  -22.4870  -11.5610 C.3       1 GLC5        0.0000 
     13 CA         24.4560  -21.4360  -12.8980 C.3       3 GLL5        0.0000 
     14 CA         24.1940  -23.5380  -10.2240 C.3       2 GLP5        0.0000 
     15 CA         23.2445  -20.3980  -11.9915 C.3       1 GLC5        0.0000 
     16 CA         22.0330  -19.3600  -11.0850 C.3       2 GLP5        0.0000 
     17 CA         26.6945  -22.6435  -18.4600 C.3       1 GLC5        0.0000 
     18 CA         28.0810  -21.2280  -18.8450 C.3       3 GLL5        0.0000 
     19 CA         28.8450  -22.1140  -20.3915 C.3       1 GLC5        0.0000 
     20 CA         29.6090  -23.0000  -21.9380 C.3       2 GLP5        0.0000 
@<TRIPOS>BOND
@<TRIPOS>SUBSTRUCTURE
     1 GLC5        1 GROUP        1 X    GLC  0     ROOT GLC X 6
     2 GLP5        3 GROUP        1 Y    GLP  0     ROOT GLP Y 13
     3 GLL5        2 GROUP        1 Z    GLL  0     ROOT GLL Z 20
@<TRIPOS>SET

