#    Name: 3o2n_MZX_1_ligand
#    Modification time : Tue Mar 25 03:11:22 2014

@<TRIPOS>MOLECULE
3o2n_MZX_1_ligand
   29    30     1     0     0
SMALL
NO_CHARGES


@<TRIPOS>ATOM
      1 C1         27.6120  -20.2010  -16.7030 C.ar      1 MZX233      0.0000 
      2 C2         28.0480  -19.3300  -15.5810 C.ar      1 MZX233      0.0000 
      3 C3         27.2990  -19.3780  -14.3100 C.ar      1 MZX233      0.0000 
      4 C4         26.1390  -20.3050  -14.2220 C.ar      1 MZX233      0.0000 
      5 C5         25.7990  -21.0870  -15.3250 C.ar      1 MZX233      0.0000 
      6 C6         26.5110  -21.0380  -16.5260 C.ar      1 MZX233      0.0000 
      7 C7         29.2030  -18.4050  -15.6630 C.2       1 MZX233      0.0000 
      8 C8         29.4970  -17.6500  -14.5340 C.2       1 MZX233      0.0000 
      9 C9         28.7260  -17.7670  -13.3750 C.2       1 MZX233      0.0000 
     10 N10        27.6760  -18.6020  -13.2860 N.am      1 MZX233      0.0000 
     11 O11        28.2830  -20.1830  -17.8970 O.3       1 MZX233      0.0000 
     12 O12        25.4090  -20.3890  -13.0650 O.3       1 MZX233      0.0000 
     13 C13        24.4560  -21.4360  -12.8980 C.3       1 MZX233      0.0000 
     14 C14        28.0810  -21.2280  -18.8450 C.3       1 MZX233      0.0000 
     15 C15        30.0250  -18.2890  -16.9190 C.3       1 MZX233      0.0000 
     16 O17        29.0250  -17.0690  -12.3820 O.2       1 MZX233      0.0000 
     17 H          24.9827  -21.7332  -15.2520 H         1 MZX233      0.0000 
     18 H          26.2083  -21.6476  -17.3150 H         1 MZX233      0.0000 
     19 H          30.2944  -16.9936  -14.5488 H         1 MZX233      0.0000 
     20 H          27.1332  -18.6454  -12.3791 H         1 MZX233      0.0000 
     21 H          24.8830  -22.3387  -12.9507 H         1 MZX233      0.0000 
     22 H          23.9952  -21.3810  -12.0122 H         1 MZX233      0.0000 
     23 H          23.7450  -21.4066  -13.6006 H         1 MZX233      0.0000 
     24 H          28.6275  -21.0907  -19.6712 H         1 MZX233      0.0000 
     25 H          28.3324  -22.1212  -18.4723 H         1 MZX233      0.0000 
     26 H          27.1252  -21.2889  -19.1326 H         1 MZX233      0.0000 
     27 H          30.7637  -17.6224  -16.8192 H         1 MZX233      0.0000 
     28 H          30.4481  -19.1603  -17.1677 H         1 MZX233      0.0000 
     29 H          29.4715  -17.9985  -17.6996 H         1 MZX233      0.0000 
@<TRIPOS>BOND
     1    2    1 ar   
     2    6    1 ar   
     3   11    1 1    
     4    3    2 ar   
     5    7    2 1    
     6    4    3 ar   
     7   10    3 1    
     8    5    4 ar   
     9   12    4 1    
    10    6    5 ar   
    11   17    5 1    
    12   18    6 1    
    13    8    7 2    
    14   15    7 1    
    15    9    8 1    
    16   19    8 1    
    17   10    9 am   
    18   16    9 2    
    19   20   10 1    
    20   14   11 1    
    21   13   12 1    
    22   21   13 1    
    23   22   13 1    
    24   23   13 1    
    25   24   14 1    
    26   25   14 1    
    27   26   14 1    
    28   27   15 1    
    29   28   15 1    
    30   29   15 1    
@<TRIPOS>SUBSTRUCTURE
     1 MZX233      1 GROUP   
@<TRIPOS>SET

