#    Name: 4eki_0QK_1_INTS_M
#    Modification time : Mon Mar 24 18:07:33 2014

@<TRIPOS>MOLECULE
4eki_0QK_1_INTS_M
  102     0     9     0     0
SMALL
NO_CHARGES


@<TRIPOS>ATOM
      1 CA         43.1800   46.6210   11.5450 C.3       3 GLC5        0.0000 
      2 CA         43.2670   45.3050   13.1980 C.3       9 GLL5        0.0000 
      3 CA         43.0930   47.9370    9.8920 C.3       6 GLP5        0.0000 
      4 CA         41.5470   46.0690   13.1435 C.3       3 GLC5        0.0000 
      5 CA         39.8270   46.8330   13.0890 C.3       6 GLP5        0.0000 
      6 CA         43.0405   45.4725   14.9500 C.3       3 GLC5        0.0000 
      7 CA         42.8140   45.6400   16.7020 C.3       6 GLP5        0.0000 
      8 CA         43.2780   43.5110   14.0520 C.3       3 GLC5        0.0000 
      9 CA         43.2890   41.7170   14.9060 C.3       6 GLP5        0.0000 
     10 CA         43.8780   47.5775   11.5025 C.3       3 GLC5        0.0000 
     11 CA         44.6630   47.2180   13.1130 C.3       9 GLL5        0.0000 
     12 CA         44.2700   46.9670   14.8140 C.3       3 GLC5        0.0000 
     13 CA         43.8770   46.7160   16.5150 C.3       6 GLP5        0.0000 
     14 CA         44.4550   43.4235   14.1350 C.3       3 GLC5        0.0000 
     15 CA         45.6210   45.1300   13.3640 C.3       9 GLL5        0.0000 
     16 CA         45.8630   55.6545   -1.7560 C.3       3 GLC5        0.0000 
     17 CA         46.0590   53.9200   -1.0250 C.3       9 GLL5        0.0000 
     18 CA         45.6670   57.3890   -2.4870 C.3       6 GLP5        0.0000 
     19 CA         45.4585   53.4035   -2.9105 C.3       3 GLC5        0.0000 
     20 CA         44.8580   52.8870   -4.7960 C.3       6 GLP5        0.0000 
     21 CA         47.9850   52.2775    2.5220 C.3       3 GLC5        0.0000 
     22 CA         47.8670   53.2330    0.5290 C.3       9 GLL5        0.0000 
     23 CA         48.1030   51.3220    4.5150 C.3       6 GLP5        0.0000 
     24 CA         49.8315   53.3390    1.1980 C.3       3 GLC5        0.0000 
     25 CA         51.7960   53.4450    1.8670 C.3       6 GLP5        0.0000 
     26 CA         49.1700   54.1255   -0.5780 C.3       3 GLC5        0.0000 
     27 CA         50.4730   55.0180   -1.6850 C.3       6 GLP5        0.0000 
     28 CA         45.7920   52.2395   -2.8975 C.3       3 GLC5        0.0000 
     29 CA         46.7260   51.5920   -0.9990 C.3       9 GLL5        0.0000 
     30 CA         47.1220   50.4625   -2.4670 C.3       3 GLC5        0.0000 
     31 CA         47.5180   49.3330   -3.9350 C.3       6 GLP5        0.0000 
     32 CA         48.4375   50.4315   -0.4820 C.3       3 GLC5        0.0000 
     33 CA         50.1490   49.2710    0.0350 C.3       6 GLP5        0.0000 
     34 O          42.5615   50.5570    4.3320 O.2       1 ALC1        0.0000 
     35 O          42.7840   51.9780    4.0180 O.2       7 ALL1        0.0000 
     36 O          42.3390   49.1360    4.6460 O.2       4 ALP1        0.0000 
     37 O          41.6300   51.0360    4.6490 O.2       1 ALC1        0.0000 
     38 O          40.4760   50.0940    5.2800 O.2       4 ALP1        0.0000 
     39 O          41.0690   51.3145    5.6310 O.2       1 ALC1        0.0000 
     40 O          41.6620   52.5350    5.9820 O.2       7 ALL1        0.0000 
     41 CA         40.7455   51.3810    7.8145 C.3       3 GLC5        0.0000 
     42 CA         41.5090   53.2900    7.2450 C.3       9 GLL5        0.0000 
     43 CA         39.9820   49.4720    8.3840 C.3       6 GLP5        0.0000 
     44 CA         40.5740   52.8765    8.9935 C.3       3 GLC5        0.0000 
     45 CA         39.6390   52.4630   10.7420 C.3       6 GLP5        0.0000 
     46 CA         41.4975   52.8365    9.9125 C.3       3 GLC5        0.0000 
     47 CA         43.3560   53.2100    9.0830 C.3       9 GLL5        0.0000 
     48 O          43.5640   51.0665    9.0180 O.2       1 ALC1        0.0000 
     49 O          44.3800   52.1620    9.3560 O.2       7 ALL1        0.0000 
     50 O          42.7480   49.9710    8.6800 O.2       4 ALP1        0.0000 
     51 CA         44.7465   49.3710    9.4155 C.3       3 GLC5        0.0000 
     52 CA         46.4000   50.8050    8.9390 C.3       9 GLL5        0.0000 
     53 CA         47.8075   49.5280    9.2095 C.3       3 GLC5        0.0000 
     54 CA         49.2150   48.2510    9.4800 C.3       6 GLP5        0.0000 
     55 CA         43.3765   49.6705   10.7435 C.3       3 GLC5        0.0000 
     56 CA         43.6600   51.4040   11.5950 C.3       9 GLL5        0.0000 
     57 CA         41.6495   51.9335   11.1685 C.3       3 GLC5        0.0000 
     58 CA         42.8390   53.8915   13.4340 C.3       3 GLC5        0.0000 
     59 CA         43.6650   51.8500   13.0420 C.3       9 GLL5        0.0000 
     60 CA         42.0130   55.9330   13.8260 C.3       6 GLP5        0.0000 
     61 O          41.5635   51.0370   13.0475 O.2       1 ALC1        0.0000 
     62 O          42.3210   51.9980   13.4600 O.2       7 ALL1        0.0000 
     63 O          40.8060   50.0760   12.6350 O.2       4 ALP1        0.0000 
     64 O          42.4720   50.1640   14.9095 O.2       1 ALC1        0.0000 
     65 O          43.6970   50.4530   15.0480 O.2       7 ALL1        0.0000 
     66 O          41.2470   49.8750   14.7710 O.2       4 ALP1        0.0000 
     67 CA         43.5760   48.7435   11.3835 C.3       3 GLC5        0.0000 
     68 CA         44.0590   49.5500   12.8750 C.3       9 GLL5        0.0000 
     69 N          42.2655   46.6455   14.1235 N.am      2 SEC2        0.0000 
     70 N          43.4260   46.6820   13.0940 N.am      8 SEL2        0.0000 
     71 N          41.1050   46.6090   15.1530 N.am      5 SEP2        0.0000 
     72 N          44.3525   42.9935   13.0220 N.am      2 SEC2        0.0000 
     73 N          44.4220   44.5290   13.3340 N.am      8 SEL2        0.0000 
     74 N          44.2830   41.4580   12.7100 N.am      5 SEP2        0.0000 
     75 O          46.4825   42.9750   14.1630 O.2       1 ALC1        0.0000 
     76 O          46.7390   44.4080   13.4920 O.2       7 ALL1        0.0000 
     77 O          46.2260   41.5420   14.8340 O.2       4 ALP1        0.0000 
     78 CA         45.4783   45.9982   15.0717 C.3       3 GLC5        0.0000 
     79 CA         45.2700   46.2010   16.8390 C.3       6 GLP5        0.0000 
     80 CA         46.3360   52.2103    3.0400 C.3       3 GLC5        0.0000 
     81 CA         45.3850   51.3010    1.4870 C.3       9 GLL5        0.0000 
     82 CA         47.1820   52.4810    4.8650 C.3       6 GLP5        0.0000 
     83 CA         44.1392   49.6570    1.2672 C.3       3 GLC5        0.0000 
     84 CA         43.3630   48.0950    0.5340 C.3       6 GLP5        0.0000 
     85 CA         45.8847   49.5635    2.7942 C.3       3 GLC5        0.0000 
     86 CA         44.4460   51.1370    2.5140 C.3       9 GLL5        0.0000 
     87 CA         46.8540   47.9080    3.5880 C.3       6 GLP5        0.0000 
     88 CA         45.6275   52.0778    3.8207 C.3       3 GLC5        0.0000 
     89 CA         42.8007   54.3323    0.7043 C.3       3 GLC5        0.0000 
     90 CA         43.9130   53.4830    2.4900 C.3       9 GLL5        0.0000 
     91 CA         41.2210   55.0930   -0.5680 C.3       6 GLP5        0.0000 
     92 CA         45.7812   53.0262    3.4207 C.3       3 GLC5        0.0000 
     93 CA         41.9097   53.3323    2.7737 C.3       3 GLC5        0.0000 
     94 CA         40.0130   53.8170    2.7830 C.3       6 GLP5        0.0000 
     95 CA         43.3685   55.3510    9.0517 C.3       3 GLC5        0.0000 
     96 CA         43.0040   53.5020    7.6360 C.3       9 GLL5        0.0000 
     97 CA         43.5570   57.3460    9.7440 C.3       6 GLP5        0.0000 
     98 CA         46.7636   52.4325    6.9131 C.3       3 GLC5        0.0000 
     99 CA         45.6910   52.1550    8.6740 C.3       9 GLL5        0.0000 
    100 CA         46.4405   47.6283   15.0457 C.3       3 GLC5        0.0000 
    101 CA         46.4020   48.5390   13.0940 C.3       9 GLL5        0.0000 
    102 CA         46.2710   47.3480   16.9310 C.3       6 GLP5        0.0000 
@<TRIPOS>BOND
@<TRIPOS>SUBSTRUCTURE
     1 ALC1       34 GROUP        1 X    ALC  0     ROOT ALC X 1
     2 SEC2       69 GROUP        1 X    SEC  0     **** SEC X 2
     3 GLC5        1 GROUP        1 X    GLC  0     **** GLC X 6
     4 ALP1       36 GROUP        1 Y    ALP  0     ROOT ALP Y 8
     5 SEP2       71 GROUP        1 Y    SEP  0     **** SEP Y 9
     6 GLP5        3 GROUP        1 Y    GLP  0     **** GLP Y 13
     7 ALL1       35 GROUP        1 Z    ALL  0     ROOT ALL Z 15
     8 SEL2       70 GROUP        1 Z    SEL  0     **** SEL Z 16
     9 GLL5        2 GROUP        1 Z    GLL  0     **** GLL Z 20
@<TRIPOS>SET

