#    Name: 4eki_0QK_1_ligand
#    Modification time : Mon Mar 24 18:07:33 2014

@<TRIPOS>MOLECULE
4eki_0QK_1_ligand
   81    84     1     0     0
SMALL
NO_CHARGES


@<TRIPOS>ATOM
      1 C2         43.2670   45.3050   13.1980 C.ar      1 0QK501      0.0000 
      2 C4         44.6630   47.2180   13.1130 C.ar      1 0QK501      0.0000 
      3 C5         45.7520   46.4610   13.2450 C.ar      1 0QK501      0.0000 
      4 C6         45.6210   45.1300   13.3640 C.ar      1 0QK501      0.0000 
      5 CBI        46.0590   53.9200   -1.0250 C.3       1 0QK501      0.0000 
      6 CBH        46.5340   52.8090   -0.0990 C.3       1 0QK501      0.0000 
      7 CBJ        47.8670   53.2330    0.5290 C.3       1 0QK501      0.0000 
      8 CBK        46.7260   51.5920   -0.9990 C.3       1 0QK501      0.0000 
      9 CBE        45.5950   52.5780    0.9430 C.ar      1 0QK501      0.0000 
     10 CBF        45.3850   51.3010    1.4870 C.ar      1 0QK501      0.0000 
     11 CBG        44.4460   51.1370    2.5140 C.ar      1 0QK501      0.0000 
     12 CBD        44.8480   53.6600    1.4630 C.ar      1 0QK501      0.0000 
     13 CBC        43.9130   53.4830    2.4900 C.ar      1 0QK501      0.0000 
     14 CBB        43.7000   52.2120    3.0390 C.ar      1 0QK501      0.0000 
     15 NAZ        42.7840   51.9780    4.0180 N.am      1 0QK501      0.0000 
     16 CAY        42.6410   52.8300    5.0590 C.2       1 0QK501      0.0000 
     17 OBA        43.3660   53.8380    5.1570 O.2       1 0QK501      0.0000 
     18 NAX        41.6620   52.5350    5.9820 N.am      1 0QK501      0.0000 
     19 CAW        41.5090   53.2900    7.2450 C.3       1 0QK501      0.0000 
     20 CAV        43.0040   53.5020    7.6360 C.3       1 0QK501      0.0000 
     21 CAT        43.3560   53.2100    9.0830 C.3       1 0QK501      0.0000 
     22 NAS        44.3800   52.1620    9.3560 N.4       1 0QK501      0.0000 
     23 CAU        45.6910   52.1550    8.6740 C.3       1 0QK501      0.0000 
     24 CBM        46.4000   50.8050    8.9390 C.3       1 0QK501      0.0000 
     25 CBL        46.6450   53.2880    9.1160 C.3       1 0QK501      0.0000 
     26 CAR        44.6420   52.2650   10.8050 C.3       1 0QK501      0.0000 
     27 CAN        43.6600   51.4040   11.5950 C.3       1 0QK501      0.0000 
     28 OAO        44.2090   50.0820   11.5550 O.3       1 0QK501      0.0000 
     29 CAM        43.6650   51.8500   13.0420 C.3       1 0QK501      0.0000 
     30 OAQ        42.3210   51.9980   13.4600 O.3       1 0QK501      0.0000 
     31 CAL        44.3310   50.6990   13.7870 C.3       1 0QK501      0.0000 
     32 OAP        43.6970   50.4530   15.0480 O.3       1 0QK501      0.0000 
     33 CAK        44.0590   49.5500   12.8750 C.3       1 0QK501      0.0000 
     34 NAG        45.0660   48.4880   13.0300 N.pl3     1 0QK501      0.0000 
     35 CAH        46.4020   48.5390   13.0940 C.2       1 0QK501      0.0000 
     36 CAI        46.8180   47.2780   13.2270 C.2       1 0QK501      0.0000 
     37 N3         43.4260   46.6820   13.0940 N.ar      1 0QK501      0.0000 
     38 N1         44.4220   44.5290   13.3340 N.ar      1 0QK501      0.0000 
     39 NAJ        46.7390   44.4080   13.4920 N.pl3     1 0QK501      0.0000 
     40 H          42.3523   44.8771   13.1765 H         1 0QK501      0.0000 
     41 H          45.9117   50.5007    1.1371 H         1 0QK501      0.0000 
     42 H          44.2904   50.1852    2.9074 H         1 0QK501      0.0000 
     43 H          45.0006   54.6054    1.0702 H         1 0QK501      0.0000 
     44 H          43.3813   54.2876    2.8423 H         1 0QK501      0.0000 
     45 H          42.1817   51.1234    3.9613 H         1 0QK501      0.0000 
     46 H          40.9887   51.7657    5.8258 H         1 0QK501      0.0000 
     47 H          41.0502   52.7099    7.9914 H         1 0QK501      0.0000 
     48 H          41.0716   54.2319    7.0842 H         1 0QK501      0.0000 
     49 H          43.2716   54.5504    7.3956 H         1 0QK501      0.0000 
     50 H          43.6216   52.8661    6.9705 H         1 0QK501      0.0000 
     51 H          42.4058   52.9455    9.6257 H         1 0QK501      0.0000 
     52 H          43.6805   54.1749    9.5637 H         1 0QK501      0.0000 
     53 H          43.8963   51.1668    9.2247 H         1 0QK501      0.0000 
     54 H          45.5599   52.2296    7.5972 H         1 0QK501      0.0000 
     55 H          44.5409   53.3022   11.1398 H         1 0QK501      0.0000 
     56 H          45.6587   51.9312   11.0351 H         1 0QK501      0.0000 
     57 H          42.7145   51.4654   11.1833 H         1 0QK501      0.0000 
     58 H          44.2476   52.7115   13.1355 H         1 0QK501      0.0000 
     59 H          45.3575   50.8705   13.8400 H         1 0QK501      0.0000 
     60 H          43.0841   49.1848   13.0286 H         1 0QK501      0.0000 
     61 H          46.9477   49.3243   13.0524 H         1 0QK501      0.0000 
     62 H          47.7465   46.9905   13.2999 H         1 0QK501      0.0000 
     63 H          46.6715   43.5898   14.0631 H         1 0QK501      0.0000 
     64 H          47.5424   44.7509   13.0052 H         1 0QK501      0.0000 
     65 H          46.7176   54.1018   -1.7552 H         1 0QK501      0.0000 
     66 H          45.1902   53.6914   -1.4642 H         1 0QK501      0.0000 
     67 H          45.9216   54.7799   -0.5334 H         1 0QK501      0.0000 
     68 H          48.2220   52.5365    1.1526 H         1 0QK501      0.0000 
     69 H          48.5702   53.3917   -0.1640 H         1 0QK501      0.0000 
     70 H          47.7774   54.0789    1.0548 H         1 0QK501      0.0000 
     71 H          47.4006   51.7637   -1.7169 H         1 0QK501      0.0000 
     72 H          47.0425   50.7954   -0.4839 H         1 0QK501      0.0000 
     73 H          45.8751   51.3281   -1.4533 H         1 0QK501      0.0000 
     74 H          47.2941   50.7613    8.4933 H         1 0QK501      0.0000 
     75 H          46.5513   50.6503    9.9153 H         1 0QK501      0.0000 
     76 H          45.8650   50.0315    8.5992 H         1 0QK501      0.0000 
     77 H          47.5191   53.2476    8.6319 H         1 0QK501      0.0000 
     78 H          46.2545   54.1918    8.9409 H         1 0QK501      0.0000 
     79 H          46.8491   53.2413   10.0938 H         1 0QK501      0.0000 
     80 H          41.7768   51.5743   12.7359 H         1 0QK501      0.0000 
     81 H          42.7403   50.7098   14.9110 H         1 0QK501      0.0000 
@<TRIPOS>BOND
     1   37    1 ar   
     2   38    1 ar   
     3   40    1 1    
     4    3    2 ar   
     5   34    2 1    
     6   37    2 ar   
     7    4    3 ar   
     8   36    3 1    
     9   38    4 ar   
    10   39    4 1    
    11    6    5 1    
    12   65    5 1    
    13   66    5 1    
    14   67    5 1    
    15    7    6 1    
    16    8    6 1    
    17    9    6 1    
    18   68    7 1    
    19   69    7 1    
    20   70    7 1    
    21   71    8 1    
    22   72    8 1    
    23   73    8 1    
    24   10    9 ar   
    25   12    9 ar   
    26   11   10 ar   
    27   41   10 1    
    28   14   11 ar   
    29   42   11 1    
    30   13   12 ar   
    31   43   12 1    
    32   14   13 ar   
    33   44   13 1    
    34   15   14 1    
    35   16   15 am   
    36   45   15 1    
    37   17   16 2    
    38   18   16 am   
    39   19   18 1    
    40   46   18 1    
    41   20   19 1    
    42   47   19 1    
    43   48   19 1    
    44   21   20 1    
    45   49   20 1    
    46   50   20 1    
    47   22   21 1    
    48   51   21 1    
    49   52   21 1    
    50   23   22 1    
    51   26   22 1    
    52   53   22 1    
    53   24   23 1    
    54   25   23 1    
    55   54   23 1    
    56   74   24 1    
    57   75   24 1    
    58   76   24 1    
    59   77   25 1    
    60   78   25 1    
    61   79   25 1    
    62   27   26 1    
    63   55   26 1    
    64   56   26 1    
    65   28   27 1    
    66   29   27 1    
    67   57   27 1    
    68   33   28 1    
    69   30   29 1    
    70   31   29 1    
    71   58   29 1    
    72   80   30 1    
    73   32   31 1    
    74   33   31 1    
    75   59   31 1    
    76   81   32 1    
    77   34   33 1    
    78   60   33 1    
    79   35   34 1    
    80   36   35 2    
    81   61   35 1    
    82   62   36 1    
    83   63   39 1    
    84   64   39 1    
@<TRIPOS>SUBSTRUCTURE
     1 0QK501      1 GROUP   
@<TRIPOS>SET

