#    Name: 1ej3_CZH_2_INTS_M
#    Modification time : Mon Mar 24 23:59:33 2014

@<TRIPOS>MOLECULE
1ej3_CZH_2_INTS_M
   76     0     9     0     0
SMALL
NO_CHARGES


@<TRIPOS>ATOM
      1 N          49.5325   -4.8175   33.9410 N.am      2 SEC2        0.0000 
      2 N          48.9850   -4.9490   32.7570 N.am      8 SEL2        0.0000 
      3 N          50.0800   -4.6860   35.1250 N.am      5 SEP2        0.0000 
      4 CA         49.9570   -3.3050   33.3755 C.3       3 GLC5        0.0000 
      5 CA         48.4100   -3.7040   32.3450 C.3       9 GLL5        0.0000 
      6 CA         51.5040   -2.9060   34.4060 C.3       6 GLP5        0.0000 
      7 CA         49.3310   -3.3710   34.4745 C.3       3 GLC5        0.0000 
      8 CA         47.6490   -3.0270   33.5300 C.3       9 GLL5        0.0000 
      9 CA         51.0130   -3.7150   35.4190 C.3       6 GLP5        0.0000 
     10 N          44.2285  -12.4975   27.8105 N.am      2 SEC2        0.0000 
     11 N          44.4650  -11.5610   26.9500 N.am      8 SEL2        0.0000 
     12 N          43.9920  -13.4340   28.6710 N.am      5 SEP2        0.0000 
     13 O          44.0895  -10.9970   25.7505 O.2       1 ALC1        0.0000 
     14 O          44.4650  -11.5610   26.9500 O.2       7 ALL1        0.0000 
     15 O          43.7140  -10.4330   24.5510 O.2       4 ALP1        0.0000 
     16 CA         50.8425   -9.4870   32.0315 C.3       3 GLC5        0.0000 
     17 CA         49.6530   -8.0440   32.9650 C.3       9 GLL5        0.0000 
     18 CA         52.0320  -10.9300   31.0980 C.3       6 GLP5        0.0000 
     19 CA         47.6550   -7.2765   33.5875 C.3       3 GLC5        0.0000 
     20 CA         45.6570   -6.5090   34.2100 C.3       6 GLP5        0.0000 
     21 CA         50.3240   -7.1605   31.0255 C.3       3 GLC5        0.0000 
     22 CA         50.9950   -6.2770   29.0860 C.3       6 GLP5        0.0000 
     23 CA         48.5345   -8.7400   38.4970 C.3       3 GLC5        0.0000 
     24 CA         48.6170   -8.5690   36.6400 C.3       9 GLL5        0.0000 
     25 CA         48.4520   -8.9110   40.3540 C.3       6 GLP5        0.0000 
     26 CA         47.3355   -9.2090   38.3425 C.3       3 GLC5        0.0000 
     27 CA         47.7210   -9.6770   36.5330 C.3       9 GLL5        0.0000 
     28 CA         46.9500   -8.7410   40.1520 C.3       6 GLP5        0.0000 
     29 CA         45.7250   -9.5435   37.2820 C.3       3 GLC5        0.0000 
     30 CA         43.7290   -9.4100   38.0310 C.3       6 GLP5        0.0000 
     31 CA         46.7185  -12.3320   34.9895 C.3       3 GLC5        0.0000 
     32 CA         47.4530  -10.2520   35.2510 C.3       9 GLL5        0.0000 
     33 CA         45.9840  -14.4120   34.7280 C.3       6 GLP5        0.0000 
     34 CA         49.9075  -10.3845   34.7070 C.3       3 GLC5        0.0000 
     35 CA         48.0780   -9.7240   34.0830 C.3       9 GLL5        0.0000 
     36 CA         51.7370  -11.0450   35.3310 C.3       6 GLP5        0.0000 
     37 N          49.2515   -2.5190   29.4320 N.am      2 SEC2        0.0000 
     38 N          49.5130   -2.3800   30.6190 N.am      8 SEL2        0.0000 
     39 N          48.9900   -2.6580   28.2450 N.am      5 SEP2        0.0000 
     40 CA         47.0677   -4.6067   34.1313 C.3       3 GLC5        0.0000 
     41 CA         46.1060   -5.8480   35.3250 C.3       6 GLP5        0.0000 
     42 CA         48.9237   -6.6300   29.6258 C.3       3 GLC5        0.0000 
     43 CA         46.7290   -6.3100   30.1430 C.3       9 GLL5        0.0000 
     44 CA         48.1007   -1.6753   34.8410 C.3       3 GLC5        0.0000 
     45 CA         48.8330   -1.0080   36.3150 C.3       6 GLP5        0.0000 
     46 CA         48.2587   -0.4430   34.5785 C.3       3 GLC5        0.0000 
     47 CA         47.9570   -0.5170   32.9980 C.3       9 GLL5        0.0000 
     48 CA         47.0222    1.9642   31.1613 C.3       3 GLC5        0.0000 
     49 CA         47.4120    0.7610   32.6860 C.3       9 GLL5        0.0000 
     50 CA         47.3380    3.0860   29.6920 C.3       6 GLP5        0.0000 
     51 CA         43.9180   -1.8373   31.8780 C.3       3 GLC5        0.0000 
     52 CA         45.1170   -0.2010   32.7760 C.3       9 GLL5        0.0000 
     53 CA         42.4450   -2.8320   30.8230 C.3       6 GLP5        0.0000 
     54 CA         44.7365    0.4089   34.1659 C.3       3 GLC5        0.0000 
     55 CA         45.6650   -1.4840   33.0900 C.3       9 GLL5        0.0000 
     56 CA         43.8610    1.3790   35.4490 C.3       6 GLP5        0.0000 
     57 CA         48.0320   -9.2535   29.0429 C.3       3 GLC5        0.0000 
     58 CA         46.9760   -7.6560   30.1880 C.3       9 GLL5        0.0000 
     59 CA         49.6420   -9.4490   28.3180 C.3       6 GLP5        0.0000 
     60 CA         46.4728  -12.0823   30.4247 C.3       3 GLC5        0.0000 
     61 CA         46.1980   -9.9730   29.7820 C.3       9 GLL5        0.0000 
     62 CA         47.0610  -13.7030   31.4740 C.3       6 GLP5        0.0000 
     63 CA         46.7323  -11.2775   27.4478 C.3       3 GLC5        0.0000 
     64 CA         45.5710  -10.9500   28.9690 C.3       9 GLL5        0.0000 
     65 CA         48.1500  -11.7810   26.5650 C.3       6 GLP5        0.0000 
     66 CA         46.9622   -9.5968   26.7858 C.3       3 GLC5        0.0000 
     67 CA         45.1690   -9.2630   27.2130 C.3       9 GLL5        0.0000 
     68 CA         48.4440  -10.4210   25.9580 C.3       6 GLP5        0.0000 
     69 CA         50.5101   -9.6120   34.9261 C.3       3 GLC5        0.0000 
     70 CA         49.2480   -8.0330   35.4680 C.3       9 GLL5        0.0000 
     71 CA         50.7122   -8.1770   37.1205 C.3       3 GLC5        0.0000 
     72 CA         52.4920   -8.0530   38.1870 C.3       6 GLP5        0.0000 
     73 CA         48.5267  -11.5180   33.5240 C.3       3 GLC5        0.0000 
     74 CA         49.2880  -13.0480   32.3810 C.3       6 GLP5        0.0000 
     75 CA         49.3420  -10.8227   36.0639 C.3       3 GLC5        0.0000 
     76 CA         50.8730  -11.9580   36.2090 C.3       6 GLP5        0.0000 
@<TRIPOS>BOND
@<TRIPOS>SUBSTRUCTURE
     1 ALC1       13 GROUP        1 X    ALC  0     ROOT ALC X 1
     2 SEC2        1 GROUP        1 X    SEC  0     **** SEC X 2
     3 GLC5        4 GROUP        1 X    GLC  0     **** GLC X 6
     4 ALP1       15 GROUP        1 Y    ALP  0     ROOT ALP Y 8
     5 SEP2        3 GROUP        1 Y    SEP  0     **** SEP Y 9
     6 GLP5        6 GROUP        1 Y    GLP  0     **** GLP Y 13
     7 ALL1       14 GROUP        1 Z    ALL  0     ROOT ALL Z 15
     8 SEL2        2 GROUP        1 Z    SEL  0     **** SEL Z 16
     9 GLL5        5 GROUP        1 Z    GLL  0     **** GLL Z 20
@<TRIPOS>SET

