#    Name: 1ej3_CZH_2_ligand
#    Modification time : Mon Mar 24 23:59:33 2014

@<TRIPOS>MOLECULE
1ej3_CZH_2_ligand
   55    59     1     0     0
SMALL
NO_CHARGES


@<TRIPOS>ATOM
      1 N1         48.9850   -4.9490   32.7570 N.2       1 CZH301      0.0000 
      2 C2         48.4100   -3.7040   32.3450 C.3       1 CZH301      0.0000 
      3 C3         47.4100   -4.1380   31.2110 C.2       1 CZH301      0.0000 
      4 N4         47.4920   -5.4430   31.0880 N.am      1 CZH301      0.0000 
      5 C5         46.7290   -6.3100   30.1430 C.2       1 CZH301      0.0000 
      6 C6         46.9760   -7.6560   30.1880 C.2       1 CZH301      0.0000 
      7 N7         47.9810   -8.1770   31.1680 N.2       1 CZH301      0.0000 
      8 C8         48.6630   -7.3750   32.0210 C.2       1 CZH301      0.0000 
      9 C9         48.4090   -5.8840   31.9940 C.2       1 CZH301      0.0000 
     10 C10        47.6490   -3.0270   33.5300 C.3       1 CZH301      0.0000 
     11 C11        47.0880   -1.6580   33.2040 C.ar      1 CZH301      0.0000 
     12 C12        47.9570   -0.5170   32.9980 C.ar      1 CZH301      0.0000 
     13 C13        47.4120    0.7610   32.6860 C.ar      1 CZH301      0.0000 
     14 C14        46.0010    0.9240   32.5750 C.ar      1 CZH301      0.0000 
     15 C15        45.1170   -0.2010   32.7760 C.ar      1 CZH301      0.0000 
     16 C16        45.6650   -1.4840   33.0900 C.ar      1 CZH301      0.0000 
     17 O17        45.5200    2.1670   32.2740 O.3       1 CZH301      0.0000 
     18 O18        46.6930   -3.3730   30.5660 O.2       1 CZH301      0.0000 
     19 C19        46.3160   -8.6300   29.3190 C.ar      1 CZH301      0.0000 
     20 C20        46.1980   -9.9730   29.7820 C.ar      1 CZH301      0.0000 
     21 C21        45.5710  -10.9500   28.9690 C.ar      1 CZH301      0.0000 
     22 C22        45.0580  -10.5980   27.6920 C.ar      1 CZH301      0.0000 
     23 C23        45.1690   -9.2630   27.2130 C.ar      1 CZH301      0.0000 
     24 C24        45.7920   -8.2820   28.0140 C.ar      1 CZH301      0.0000 
     25 O25        44.4650  -11.5610   26.9500 O.3       1 CZH301      0.0000 
     26 C26        49.6530   -8.0440   32.9650 C.3       1 CZH301      0.0000 
     27 C27        48.9840   -8.6060   34.1840 C.ar      1 CZH301      0.0000 
     28 C28        49.2480   -8.0330   35.4680 C.ar      1 CZH301      0.0000 
     29 C29        48.6170   -8.5690   36.6400 C.ar      1 CZH301      0.0000 
     30 C30        47.7210   -9.6770   36.5330 C.ar      1 CZH301      0.0000 
     31 C31        47.4530  -10.2520   35.2510 C.ar      1 CZH301      0.0000 
     32 C32        48.0780   -9.7240   34.0830 C.ar      1 CZH301      0.0000 
     33 O33        49.5570   -2.8880   31.9480 O.3       1 CZH301      0.0000 
     34 O34        49.5130   -2.3800   30.6190 O.3       1 CZH301      0.0000 
     35 H          46.0793   -5.8717   29.5270 H         1 CZH301      0.0000 
     36 H          48.3450   -2.9513   34.3796 H         1 CZH301      0.0000 
     37 H          46.8335   -3.7000   33.8366 H         1 CZH301      0.0000 
     38 H          48.9632   -0.6411   33.0793 H         1 CZH301      0.0000 
     39 H          48.0286    1.5562   32.5426 H         1 CZH301      0.0000 
     40 H          44.1181   -0.0752   32.6937 H         1 CZH301      0.0000 
     41 H          45.0487   -2.2791   33.2340 H         1 CZH301      0.0000 
     42 H          46.5651  -10.2266   30.6969 H         1 CZH301      0.0000 
     43 H          45.4869  -11.9117   29.3014 H         1 CZH301      0.0000 
     44 H          44.7993   -9.0215   26.2964 H         1 CZH301      0.0000 
     45 H          45.8814   -7.3225   27.6885 H         1 CZH301      0.0000 
     46 H          50.4096   -7.3062   33.2649 H         1 CZH301      0.0000 
     47 H          50.1707   -8.8473   32.4233 H         1 CZH301      0.0000 
     48 H          49.8830   -7.2453   35.5522 H         1 CZH301      0.0000 
     49 H          48.8099   -8.1570   37.5490 H         1 CZH301      0.0000 
     50 H          47.2767  -10.0545   37.3620 H         1 CZH301      0.0000 
     51 H          46.8143  -11.0400   35.1742 H         1 CZH301      0.0000 
     52 H          47.8890  -10.1322   33.1719 H         1 CZH301      0.0000 
     53 H          44.5686    2.0180   32.0046 H         1 CZH301      0.0000 
     54 H          44.4022  -11.1762   26.0291 H         1 CZH301      0.0000 
     55 H          48.5862   -2.5751   30.2980 H         1 CZH301      0.0000 
@<TRIPOS>BOND
     1    2    1 1    
     2    9    1 2    
     3    3    2 1    
     4   10    2 1    
     5   33    2 1    
     6    4    3 am   
     7   18    3 2    
     8    5    4 1    
     9    9    4 1    
    10    6    5 2    
    11   35    5 1    
    12    7    6 1    
    13   19    6 1    
    14    8    7 2    
    15    9    8 1    
    16   26    8 1    
    17   11   10 1    
    18   36   10 1    
    19   37   10 1    
    20   12   11 ar   
    21   16   11 ar   
    22   13   12 ar   
    23   38   12 1    
    24   14   13 ar   
    25   39   13 1    
    26   15   14 ar   
    27   17   14 1    
    28   16   15 ar   
    29   40   15 1    
    30   41   16 1    
    31   53   17 1    
    32   20   19 ar   
    33   24   19 ar   
    34   21   20 ar   
    35   42   20 1    
    36   22   21 ar   
    37   43   21 1    
    38   23   22 ar   
    39   25   22 1    
    40   24   23 ar   
    41   44   23 1    
    42   45   24 1    
    43   54   25 1    
    44   27   26 1    
    45   46   26 1    
    46   47   26 1    
    47   28   27 ar   
    48   32   27 ar   
    49   29   28 ar   
    50   48   28 1    
    51   30   29 ar   
    52   49   29 1    
    53   31   30 ar   
    54   50   30 1    
    55   32   31 ar   
    56   51   31 1    
    57   52   32 1    
    58   34   33 1    
    59   55   34 1    
@<TRIPOS>SUBSTRUCTURE
     1 CZH301      1 GROUP   
@<TRIPOS>SET

