#    Name: 1w4l_GL8_1_INTS_M
#    Modification time : Tue Mar 25 08:36:33 2014

@<TRIPOS>MOLECULE
1w4l_GL8_1_INTS_M
   77     0     9     0     0
SMALL
NO_CHARGES


@<TRIPOS>ATOM
      1 CA          3.9055   70.0620   61.5185 C.3       3 GLC5        0.0000 
      2 CA          4.1320   68.3020   61.4100 C.3       9 GLL5        0.0000 
      3 CA          3.6790   71.8220   61.6270 C.3       6 GLP5        0.0000 
      4 CA          5.1350   70.2605   62.3535 C.3       3 GLC5        0.0000 
      5 CA          5.2970   68.3180   62.5910 C.3       9 GLL5        0.0000 
      6 CA          4.9730   72.2030   62.1160 C.3       6 GLP5        0.0000 
      7 CA          6.9985   69.3280   62.0675 C.3       3 GLC5        0.0000 
      8 CA          8.7000   70.3380   61.5440 C.3       6 GLP5        0.0000 
      9 CA          0.7190   64.1430   66.6045 C.3       3 GLC5        0.0000 
     10 CA          1.9870   65.7690   66.5040 C.3       9 GLL5        0.0000 
     11 CA         -0.5490   62.5170   66.7050 C.3       6 GLP5        0.0000 
     12 CA          3.8995   69.0020   67.2440 C.3       3 GLC5        0.0000 
     13 CA          2.2390   68.2480   66.1490 C.3       9 GLL5        0.0000 
     14 CA          5.5600   69.7560   68.3390 C.3       6 GLP5        0.0000 
     15 CA          5.0335   68.8785   66.3580 C.3       3 GLC5        0.0000 
     16 CA          3.6250   68.2300   65.4320 C.3       9 GLL5        0.0000 
     17 CA          6.4420   69.5270   67.2840 C.3       6 GLP5        0.0000 
     18 CA          3.7510   61.4090   62.5285 C.3       3 GLC5        0.0000 
     19 CA          5.7100   61.6650   63.0940 C.3       9 GLL5        0.0000 
     20 CA          1.7920   61.1530   61.9630 C.3       6 GLP5        0.0000 
     21 CA          5.9525   60.7270   61.2055 C.3       3 GLC5        0.0000 
     22 CA          6.1950   59.7890   59.3170 C.3       6 GLP5        0.0000 
     23 CA          6.9585   60.6140   63.5500 C.3       3 GLC5        0.0000 
     24 CA          8.2070   59.5630   64.0060 C.3       6 GLP5        0.0000 
     25 CA          4.9620   60.2430   63.6925 C.3       3 GLC5        0.0000 
     26 CA          4.2140   58.8210   64.2910 C.3       6 GLP5        0.0000 
     27 CA          6.5600   62.5225   64.5170 C.3       3 GLC5        0.0000 
     28 CA          7.4100   63.3800   65.9400 C.3       6 GLP5        0.0000 
     29 CA          2.8445   65.4005   71.4120 C.3       3 GLC5        0.0000 
     30 CA          2.8790   65.0570   69.6490 C.3       9 GLL5        0.0000 
     31 CA          2.8100   65.7440   73.1750 C.3       6 GLP5        0.0000 
     32 CA          4.1525   64.8520   71.5095 C.3       3 GLC5        0.0000 
     33 CA          4.1040   64.1260   69.7210 C.3       9 GLL5        0.0000 
     34 CA          4.2010   65.5780   73.2980 C.3       6 GLP5        0.0000 
     35 CA          0.5720   60.5930   69.7545 C.3       3 GLC5        0.0000 
     36 CA          1.7820   61.6910   70.6310 C.3       9 GLL5        0.0000 
     37 CA         -0.6380   59.4950   68.8780 C.3       6 GLP5        0.0000 
     38 N           6.0465   63.3085   61.5930 N.am      2 SEC2        0.0000 
     39 N           5.4730   63.0580   62.8690 N.am      8 SEL2        0.0000 
     40 N           6.6200   63.5590   60.3170 N.am      5 SEP2        0.0000 
     41 N           6.9850   63.7660   62.3955 N.am      2 SEC2        0.0000 
     42 N           8.4970   64.4740   61.9220 N.am      5 SEP2        0.0000 
     43 O           5.1985   67.4715   59.7045 O.2       1 ALC1        0.0000 
     44 O           4.1590   67.1110   60.5120 O.2       7 ALL1        0.0000 
     45 O           6.2380   67.8320   58.8970 O.2       4 ALP1        0.0000 
     46 CA          2.6180   69.7050   62.5637 C.3       3 GLC5        0.0000 
     47 CA          2.7100   68.0920   62.0010 C.3       9 GLL5        0.0000 
     48 CA          2.6130   71.5880   62.5130 C.3       6 GLP5        0.0000 
     49 CA          1.6750   66.3200   61.9922 C.3       3 GLC5        0.0000 
     50 CA          0.7270   64.8180   61.3700 C.3       6 GLP5        0.0000 
     51 CA          6.7897   66.5165   63.0198 C.3       3 GLC5        0.0000 
     52 CA          5.0440   67.0660   63.5100 C.3       9 GLL5        0.0000 
     53 CA          8.4090   65.3410   62.9890 C.3       6 GLP5        0.0000 
     54 CA          6.4280   64.8407   63.3342 C.3       3 GLC5        0.0000 
     55 CA          4.4880   63.6460   63.6910 C.3       9 GLL5        0.0000 
     56 CA          2.6295   62.3195   63.4031 C.3       3 GLC5        0.0000 
     57 CA          2.4760   69.9090   65.4267 C.3       3 GLC5        0.0000 
     58 CA          2.0200   71.5790   65.0630 C.3       6 GLP5        0.0000 
     59 CA          2.3598   65.1100   62.7408 C.3       3 GLC5        0.0000 
     60 CA          3.5790   65.7690   64.5550 C.3       9 GLL5        0.0000 
     61 CA         -0.2230   67.9582   69.6510 C.3       3 GLC5        0.0000 
     62 CA          1.0430   67.1130   68.1070 C.3       9 GLL5        0.0000 
     63 CA         -1.9860   68.6350   70.6050 C.3       6 GLP5        0.0000 
     64 CA          4.1665   67.9925   69.4163 C.3       3 GLC5        0.0000 
     65 CA          2.0370   67.4500   69.2870 C.3       9 GLL5        0.0000 
     66 CA          5.6560   69.0080   69.4950 C.3       6 GLP5        0.0000 
     67 CA          2.8915   67.5475   71.0002 C.3       3 GLC5        0.0000 
     68 CA          3.3170   66.5040   69.3880 C.3       9 GLL5        0.0000 
     69 CA          3.1060   68.1180   72.6630 C.3       6 GLP5        0.0000 
     70 CA          5.4565   62.7145   68.7925 C.3       3 GLC5        0.0000 
     71 CA          7.0530   62.0480   67.9200 C.3       6 GLP5        0.0000 
     72 CA          4.0710   63.3110   71.9532 C.3       3 GLC5        0.0000 
     73 CA          3.6160   62.6360   69.6090 C.3       9 GLL5        0.0000 
     74 CA          4.7870   64.2240   73.6010 C.3       6 GLP5        0.0000 
     75 CA         -2.6812   57.7059   72.8734 C.3       3 GLC5        0.0000 
     76 CA         -2.6640   59.7760   74.0900 C.3       9 GLL5        0.0000 
     77 CA         -3.8980   56.5800   71.9810 C.3       6 GLP5        0.0000 
@<TRIPOS>BOND
@<TRIPOS>SUBSTRUCTURE
     1 ALC1       43 GROUP        1 X    ALC  0     ROOT ALC X 1
     2 SEC2       38 GROUP        1 X    SEC  0     **** SEC X 2
     3 GLC5        1 GROUP        1 X    GLC  0     **** GLC X 6
     4 ALP1       45 GROUP        1 Y    ALP  0     ROOT ALP Y 8
     5 SEP2       40 GROUP        1 Y    SEP  0     **** SEP Y 9
     6 GLP5        3 GROUP        1 Y    GLP  0     **** GLP Y 13
     7 ALL1       44 GROUP        1 Z    ALL  0     ROOT ALL Z 15
     8 SEL2       39 GROUP        1 Z    SEL  0     **** SEL Z 16
     9 GLL5        2 GROUP        1 Z    GLL  0     **** GLL Z 20
@<TRIPOS>SET

