#    Name: 1w4l_GL8_1_ligand
#    Modification time : Tue Mar 25 08:36:34 2014

@<TRIPOS>MOLECULE
1w4l_GL8_1_ligand
   76    81     1     0     0
SMALL
NO_CHARGES


@<TRIPOS>ATOM
      1 C1          2.5360   67.5520   63.2280 C.2       1 GL81540     0.0000 
      2 C2          2.7100   68.0920   62.0010 C.2       1 GL81540     0.0000 
      3 C3          4.1320   68.3020   61.4100 C.3       1 GL81540     0.0000 
      4 C4          5.2970   68.3180   62.5910 C.3       1 GL81540     0.0000 
      5 C5          5.0440   67.0660   63.5100 C.3       1 GL81540     0.0000 
      6 C6          3.6920   67.1980   64.2430 C.3       1 GL81540     0.0000 
      7 C7          4.4880   63.6460   63.6910 C.ar      1 GL81540     0.0000 
      8 C8          3.6700   62.9440   64.6380 C.ar      1 GL81540     0.0000 
      9 C9          2.8550   63.6770   65.5220 C.ar      1 GL81540     0.0000 
     10 C10         1.9870   65.7690   66.5040 C.2       1 GL81540     0.0000 
     11 C11         2.2390   68.2480   66.1490 C.3       1 GL81540     0.0000 
     12 C12         3.6250   68.2300   65.4320 C.3       1 GL81540     0.0000 
     13 C13         4.4060   65.0350   63.6680 C.ar      1 GL81540     0.0000 
     14 C14         3.5790   65.7690   64.5550 C.ar      1 GL81540     0.0000 
     15 C15         2.8100   65.1200   65.4940 C.ar      1 GL81540     0.0000 
     16 C16         5.7100   61.6650   63.0940 C.3       1 GL81540     0.0000 
     17 C17         1.0430   67.1130   68.1070 C.3       1 GL81540     0.0000 
     18 C18         2.0370   67.4500   69.2870 C.3       1 GL81540     0.0000 
     19 C19         3.3170   66.5040   69.3880 C.3       1 GL81540     0.0000 
     20 C20         2.8790   65.0570   69.6490 C.3       1 GL81540     0.0000 
     21 C21         4.1040   64.1260   69.7210 C.3       1 GL81540     0.0000 
     22 C22         3.6160   62.6360   69.6090 C.3       1 GL81540     0.0000 
     23 C23         3.0940   62.1600   71.0020 C.3       1 GL81540     0.0000 
     24 C24         1.7820   61.6910   70.6310 C.3       1 GL81540     0.0000 
     25 C25        -0.1760   61.7490   72.0520 C.2       1 GL81540     0.0000 
     26 C26        -0.9030   60.8300   72.7950 C.ar      1 GL81540     0.0000 
     27 C27        -2.1520   60.9480   73.4290 C.ar      1 GL81540     0.0000 
     28 C28        -2.6640   59.7760   74.0900 C.ar      1 GL81540     0.0000 
     29 C29        -1.9120   58.5710   74.0890 C.ar      1 GL81540     0.0000 
     30 C30        -0.6410   58.4900   73.4420 C.ar      1 GL81540     0.0000 
     31 C31        -0.1780   59.6540   72.7990 C.ar      1 GL81540     0.0000 
     32 C32         0.9650   59.8740   72.0410 C.2       1 GL81540     0.0000 
     33 O1          5.1150   65.8430   62.7910 O.3       1 GL81540     0.0000 
     34 O2          5.4730   63.0580   62.8690 O.3       1 GL81540     0.0000 
     35 O3          4.1590   67.1110   60.5120 O.3       1 GL81540     0.0000 
     36 O25        -0.4610   62.9940   71.8990 O.2       1 GL81540     0.0000 
     37 O32         1.9030   59.0260   71.8380 O.2       1 GL81540     0.0000 
     38 N1          1.7570   66.9850   66.8270 N.pl3     1 GL81540     0.0000 
     39 N2          0.9000   61.1240   71.6040 N.am      1 GL81540     0.0000 
     40 H           1.5915   67.3173   63.6172 H         1 GL81540     0.0000 
     41 H           1.9540   68.3938   61.3870 H         1 GL81540     0.0000 
     42 H           4.1458   69.1887   60.8756 H         1 GL81540     0.0000 
     43 H           5.1692   69.2100   63.1393 H         1 GL81540     0.0000 
     44 H           6.2302   68.2371   62.1059 H         1 GL81540     0.0000 
     45 H           5.8251   67.1032   64.2909 H         1 GL81540     0.0000 
     46 H           3.6871   61.9313   64.6609 H         1 GL81540     0.0000 
     47 H           2.2705   63.1854   66.2117 H         1 GL81540     0.0000 
     48 H           1.4493   64.9692   67.1157 H         1 GL81540     0.0000 
     49 H           1.4764   68.5746   65.3934 H         1 GL81540     0.0000 
     50 H           2.2616   69.0829   66.8984 H         1 GL81540     0.0000 
     51 H           3.8337   69.2241   65.0374 H         1 GL81540     0.0000 
     52 H           4.3965   67.9710   66.1567 H         1 GL81540     0.0000 
     53 H           0.3032   67.9157   68.0717 H         1 GL81540     0.0000 
     54 H           0.5326   66.1846   68.3728 H         1 GL81540     0.0000 
     55 H           1.4912   67.3851   70.2345 H         1 GL81540     0.0000 
     56 H           2.3857   68.4815   69.1679 H         1 GL81540     0.0000 
     57 H           3.9278   66.8610   70.2004 H         1 GL81540     0.0000 
     58 H           3.8502   66.5696   68.4542 H         1 GL81540     0.0000 
     59 H           2.2294   64.7274   68.8443 H         1 GL81540     0.0000 
     60 H           2.3405   65.0087   70.5903 H         1 GL81540     0.0000 
     61 H           4.6032   64.2526   70.6637 H         1 GL81540     0.0000 
     62 H           4.7668   64.3315   68.9010 H         1 GL81540     0.0000 
     63 H           4.4437   62.0208   69.3115 H         1 GL81540     0.0000 
     64 H           2.8165   62.5850   68.8946 H         1 GL81540     0.0000 
     65 H           3.0618   62.9995   71.6375 H         1 GL81540     0.0000 
     66 H           3.7249   61.3845   71.3341 H         1 GL81540     0.0000 
     67 H           1.9001   60.9426   69.7605 H         1 GL81540     0.0000 
     68 H           1.2318   62.5501   70.0915 H         1 GL81540     0.0000 
     69 H          -2.6725   61.7980   73.4300 H         1 GL81540     0.0000 
     70 H          -3.5660   59.8195   74.5558 H         1 GL81540     0.0000 
     71 H          -2.2861   57.7402   74.5615 H         1 GL81540     0.0000 
     72 H          -0.1135   57.6438   73.4508 H         1 GL81540     0.0000 
     73 H           6.4155   61.3049   62.4835 H         1 GL81540     0.0000 
     74 H           6.0133   61.4863   64.0300 H         1 GL81540     0.0000 
     75 H           4.8858   61.1190   62.9437 H         1 GL81540     0.0000 
     76 H           4.9202   67.2769   59.8851 H         1 GL81540     0.0000 
@<TRIPOS>BOND
     1    2    1 2    
     2    6    1 1    
     3   40    1 1    
     4    3    2 1    
     5   41    2 1    
     6    4    3 1    
     7   35    3 1    
     8   42    3 1    
     9    5    4 1    
    10   43    4 1    
    11   44    4 1    
    12    6    5 1    
    13   33    5 1    
    14   45    5 1    
    15   12    6 1    
    16   14    6 1    
    17    8    7 ar   
    18   13    7 ar   
    19   34    7 1    
    20    9    8 ar   
    21   46    8 1    
    22   15    9 ar   
    23   47    9 1    
    24   15   10 1    
    25   38   10 2    
    26   48   10 1    
    27   12   11 1    
    28   38   11 1    
    29   49   11 1    
    30   50   11 1    
    31   51   12 1    
    32   52   12 1    
    33   14   13 ar   
    34   33   13 1    
    35   15   14 ar   
    36   34   16 1    
    37   73   16 1    
    38   74   16 1    
    39   75   16 1    
    40   18   17 1    
    41   38   17 1    
    42   53   17 1    
    43   54   17 1    
    44   19   18 1    
    45   55   18 1    
    46   56   18 1    
    47   20   19 1    
    48   57   19 1    
    49   58   19 1    
    50   21   20 1    
    51   59   20 1    
    52   60   20 1    
    53   22   21 1    
    54   61   21 1    
    55   62   21 1    
    56   23   22 1    
    57   63   22 1    
    58   64   22 1    
    59   24   23 1    
    60   65   23 1    
    61   66   23 1    
    62   39   24 1    
    63   67   24 1    
    64   68   24 1    
    65   26   25 1    
    66   36   25 2    
    67   39   25 am   
    68   27   26 ar   
    69   31   26 ar   
    70   28   27 ar   
    71   69   27 1    
    72   29   28 ar   
    73   70   28 1    
    74   30   29 ar   
    75   71   29 1    
    76   31   30 ar   
    77   72   30 1    
    78   32   31 1    
    79   37   32 2    
    80   39   32 am   
    81   76   35 1    
@<TRIPOS>SUBSTRUCTURE
     1 GL81540     1 GROUP   
@<TRIPOS>SET

