#    Name: 4gpj_0Q1_1_INTS_M
#    Modification time : Mon Mar 24 23:30:04 2014

@<TRIPOS>MOLECULE
4gpj_0Q1_1_INTS_M
   50     0     6     0     0
SMALL
NO_CHARGES


@<TRIPOS>ATOM
      1 CA         33.1340   13.2090   -0.5930 C.3       2 GLC5        0.0000 
      2 CA         32.9220   14.8880   -1.0770 C.3       6 GLL5        0.0000 
      3 CA         33.3460   11.5300   -0.1090 C.3       4 GLP5        0.0000 
      4 CA         34.8815   14.2300   -1.2095 C.3       2 GLC5        0.0000 
      5 CA         36.8410   13.5720   -1.3420 C.3       4 GLP5        0.0000 
      6 N          34.4880   17.6035   -0.9880 N.am      1 SEC2        0.0000 
      7 N          33.5890   16.9660    0.0910 N.am      5 SEL2        0.0000 
      8 N          35.3870   18.2410   -2.0670 N.am      3 SEP2        0.0000 
      9 CA         28.7580   18.9370    0.7710 C.3       2 GLC5        0.0000 
     10 CA         30.7590   18.8380    1.5090 C.3       6 GLL5        0.0000 
     11 CA         26.7570   19.0360    0.0330 C.3       4 GLP5        0.0000 
     12 CA         30.7005   20.5910    1.3330 C.3       2 GLC5        0.0000 
     13 CA         30.6420   22.3440    1.1570 C.3       4 GLP5        0.0000 
     14 CA         31.3645   17.4510    2.8440 C.3       2 GLC5        0.0000 
     15 CA         31.9700   16.0640    4.1790 C.3       4 GLP5        0.0000 
     16 CA         30.0920   19.1115   -0.3325 C.3       2 GLC5        0.0000 
     17 CA         29.4250   19.3850   -2.1740 C.3       4 GLP5        0.0000 
     18 CA         30.5705   16.0380    2.5505 C.3       2 GLC5        0.0000 
     19 CA         29.1710   16.0120    0.9220 C.3       6 GLL5        0.0000 
     20 CA         29.0395   18.9670   -5.2910 C.3       2 GLC5        0.0000 
     21 CA         27.3270   17.6360   -5.7210 C.3       6 GLL5        0.0000 
     22 CA         30.7520   20.2980   -4.8610 C.3       4 GLP5        0.0000 
     23 CA         31.9710   16.2165    2.0543 C.3       2 GLC5        0.0000 
     24 CA         31.3610   16.6140    0.1370 C.3       6 GLL5        0.0000 
     25 CA         31.4425   17.8505   -1.3088 C.3       2 GLC5        0.0000 
     26 CA         30.9130   19.3320   -2.5470 C.3       4 GLP5        0.0000 
     27 CA         28.1960   17.5308    0.2173 C.3       2 GLC5        0.0000 
     28 CA         30.0990   16.0390   -0.1190 C.3       6 GLL5        0.0000 
     29 CA         29.7777   14.0128    0.1532 C.3       2 GLC5        0.0000 
     30 CA         29.6360   12.2020    1.0510 C.3       4 GLP5        0.0000 
     31 CA         28.8173   13.6242    0.0197 C.3       2 GLC5        0.0000 
     32 CA         28.4470   15.0830   -1.5420 C.3       6 GLL5        0.0000 
     33 CA         29.3041   17.4191   -1.6586 C.3       2 GLC5        0.0000 
     34 CA         29.0862   13.9722    0.9485 C.3       2 GLC5        0.0000 
     35 CA         27.2415   17.1388    0.0888 C.3       2 GLC5        0.0000 
     36 CA         27.9020   15.4730    0.7700 C.3       6 GLL5        0.0000 
     37 CA         24.8495   15.4863   -1.6863 C.3       2 GLC5        0.0000 
     38 CA         26.2130   14.4090   -0.9050 C.3       6 GLL5        0.0000 
     39 CA         23.3620   16.8080   -1.7890 C.3       4 GLP5        0.0000 
     40 CA         27.4805   12.6401   -1.2151 C.3       2 GLC5        0.0000 
     41 CA         27.8890   10.9360   -0.2530 C.3       4 GLP5        0.0000 
     42 CA         26.3727   18.4308   -2.5185 C.3       2 GLC5        0.0000 
     43 CA         26.9400   16.7040   -3.5500 C.3       6 GLL5        0.0000 
     44 CA         25.9090   19.6460   -1.0230 C.3       4 GLP5        0.0000 
     45 CA         28.2260   18.1626   -3.1317 C.3       2 GLC5        0.0000 
     46 CA         26.7330   17.7270   -4.4780 C.3       6 GLL5        0.0000 
     47 CA         26.8120   19.4723   -4.9638 C.3       2 GLC5        0.0000 
     48 CA         26.5940   21.2630   -4.8280 C.3       4 GLP5        0.0000 
     49 CA         28.2900   18.2425   -7.3063 C.3       2 GLC5        0.0000 
     50 CA         28.8730   19.4070   -8.7370 C.3       4 GLP5        0.0000 
@<TRIPOS>BOND
@<TRIPOS>SUBSTRUCTURE
     1 SEC2        6 GROUP        1 X    SEC  0     ROOT SEC X 2
     2 GLC5        1 GROUP        1 X    GLC  0     **** GLC X 6
     3 SEP2        8 GROUP        1 Y    SEP  0     ROOT SEP Y 9
     4 GLP5        3 GROUP        1 Y    GLP  0     **** GLP Y 13
     5 SEL2        7 GROUP        1 Z    SEL  0     ROOT SEL Z 16
     6 GLL5        2 GROUP        1 Z    GLL  0     **** GLL Z 20
@<TRIPOS>SET

