#    Name: 4gpj_0Q1_1_ligand
#    Modification time : Mon Mar 24 23:30:04 2014

@<TRIPOS>MOLECULE
4gpj_0Q1_1_ligand
   42    45     1     0     0
SMALL
NO_CHARGES


@<TRIPOS>ATOM
      1 CAU        32.9220   14.8880   -1.0770 C.3       1 0Q1201      0.0000 
      2 CAT        32.5830   16.1240   -0.2780 C.2       1 0Q1201      0.0000 
      3 OAV        33.5890   16.9660    0.0910 O.3       1 0Q1201      0.0000 
      4 NAW        32.9790   18.0380    0.7860 N.2       1 0Q1201      0.0000 
      5 CAB        31.6660   17.8070    0.8060 C.2       1 0Q1201      0.0000 
      6 CAA        30.7590   18.8380    1.5090 C.3       1 0Q1201      0.0000 
      7 CAC        31.3610   16.6140    0.1370 C.2       1 0Q1201      0.0000 
      8 CAD        30.0990   16.0390   -0.1190 C.ar      1 0Q1201      0.0000 
      9 CAR        29.7400   15.6080   -1.3700 C.ar      1 0Q1201      0.0000 
     10 CAQ        28.4470   15.0830   -1.5420 C.ar      1 0Q1201      0.0000 
     11 CAE        29.1710   16.0120    0.9220 C.ar      1 0Q1201      0.0000 
     12 CAF        27.9020   15.4730    0.7700 C.ar      1 0Q1201      0.0000 
     13 CAG        27.5500   15.0100   -0.4810 C.ar      1 0Q1201      0.0000 
     14 CAH        26.2130   14.4090   -0.9050 C.3       1 0Q1201      0.0000 
     15 CAI        26.4610   13.9200   -2.2620 C.3       1 0Q1201      0.0000 
     16 CAJ        27.8070   14.5240   -2.7710 C.3       1 0Q1201      0.0000 
     17 OAS        28.6250   13.5230   -3.3310 O.3       1 0Q1201      0.0000 
     18 CAK        27.7020   15.6030   -3.8520 C.ar      1 0Q1201      0.0000 
     19 CAL        26.9400   16.7040   -3.5500 C.ar      1 0Q1201      0.0000 
     20 CAM        26.7330   17.7270   -4.4780 C.ar      1 0Q1201      0.0000 
     21 CAN        27.3270   17.6360   -5.7210 C.ar      1 0Q1201      0.0000 
     22 CAO        28.0870   16.5200   -6.0300 C.ar      1 0Q1201      0.0000 
     23 CAP        28.2710   15.4960   -5.0990 C.ar      1 0Q1201      0.0000 
     24 H          30.3767   15.6594   -2.1592 H         1 0Q1201      0.0000 
     25 H          29.4443   16.4124    1.8470 H         1 0Q1201      0.0000 
     26 H          27.2588   15.4227    1.5523 H         1 0Q1201      0.0000 
     27 H          25.4707   15.1778   -0.8969 H         1 0Q1201      0.0000 
     28 H          25.9679   13.6087   -0.2406 H         1 0Q1201      0.0000 
     29 H          25.6811   14.2325   -2.9466 H         1 0Q1201      0.0000 
     30 H          26.5558   12.8406   -2.2852 H         1 0Q1201      0.0000 
     31 H          26.5013   16.7882   -2.6093 H         1 0Q1201      0.0000 
     32 H          26.1483   18.5294   -4.2332 H         1 0Q1201      0.0000 
     33 H          27.2079   18.3867   -6.4106 H         1 0Q1201      0.0000 
     34 H          28.5269   16.4395   -6.9634 H         1 0Q1201      0.0000 
     35 H          28.8292   14.6724   -5.3532 H         1 0Q1201      0.0000 
     36 H          33.3577   15.1165   -1.9476 H         1 0Q1201      0.0000 
     37 H          33.5509   14.2875   -0.5832 H         1 0Q1201      0.0000 
     38 H          32.1075   14.3482   -1.2896 H         1 0Q1201      0.0000 
     39 H          30.9952   18.9428    2.4750 H         1 0Q1201      0.0000 
     40 H          30.8312   19.7430    1.0898 H         1 0Q1201      0.0000 
     41 H          29.7956   18.5728    1.4699 H         1 0Q1201      0.0000 
     42 H          29.5330   13.9370   -3.3955 H         1 0Q1201      0.0000 
@<TRIPOS>BOND
     1    2    1 1    
     2   36    1 1    
     3   37    1 1    
     4   38    1 1    
     5    3    2 1    
     6    7    2 2    
     7    4    3 1    
     8    5    4 2    
     9    6    5 1    
    10    7    5 1    
    11   39    6 1    
    12   40    6 1    
    13   41    6 1    
    14    8    7 1    
    15    9    8 ar   
    16   11    8 ar   
    17   10    9 ar   
    18   24    9 1    
    19   13   10 ar   
    20   16   10 1    
    21   12   11 ar   
    22   25   11 1    
    23   13   12 ar   
    24   26   12 1    
    25   14   13 1    
    26   15   14 1    
    27   27   14 1    
    28   28   14 1    
    29   16   15 1    
    30   29   15 1    
    31   30   15 1    
    32   17   16 1    
    33   18   16 1    
    34   42   17 1    
    35   19   18 ar   
    36   23   18 ar   
    37   20   19 ar   
    38   31   19 1    
    39   21   20 ar   
    40   32   20 1    
    41   22   21 ar   
    42   33   21 1    
    43   23   22 ar   
    44   34   22 1    
    45   35   23 1    
@<TRIPOS>SUBSTRUCTURE
     1 0Q1201      1 GROUP   
@<TRIPOS>SET

