#    Name: 3w6u_NAP_1_INTS_M
#    Modification time : Tue Mar 25 02:24:03 2014

@<TRIPOS>MOLECULE
3w6u_NAP_1_INTS_M
  116     0    12     0     0
SMALL
NO_CHARGES


@<TRIPOS>ATOM
      1 NZ         24.5785   21.4365   40.9250 N.4       3 LYC4        0.0000 
      2 NZ         25.3660   21.9270   39.9980 N.4      11 LYL4        0.0000 
      3 NZ         23.7910   20.9460   41.8520 N.4       7 LYP4        0.0000 
      4 N          24.5785   21.4365   40.9250 N.am      2 SEC2        0.0000 
      5 N          25.3660   21.9270   39.9980 N.am     10 SEL2        0.0000 
      6 N          23.7910   20.9460   41.8520 N.am      6 SEP2        0.0000 
      7 N          26.6890   21.0510   40.1095 N.am      2 SEC2        0.0000 
      8 N          28.0120   20.1750   40.2210 N.am      6 SEP2        0.0000 
      9 N          25.1395   25.8495   40.3525 N.am      2 SEC2        0.0000 
     10 N          25.1890   24.4460   40.4890 N.am     10 SEL2        0.0000 
     11 N          25.0900   27.2530   40.2160 N.am      6 SEP2        0.0000 
     12 CA         26.7935   22.9360   34.5200 C.3       4 GLC5        0.0000 
     13 CA         25.1050   23.2420   35.8430 C.3      12 GLL5        0.0000 
     14 CA         28.4820   22.6300   33.1970 C.3       8 GLP5        0.0000 
     15 CA         26.0640   22.1105   32.9325 C.3       4 GLC5        0.0000 
     16 CA         24.2030   22.1510   34.0030 C.3      12 GLL5        0.0000 
     17 CA         27.9250   22.0700   31.8620 C.3       8 GLP5        0.0000 
     18 O          25.3180   16.6055   31.2270 O.2       1 ALC1        0.0000 
     19 O          24.3140   17.2260   30.4260 O.2       9 ALL1        0.0000 
     20 O          26.3220   15.9850   32.0280 O.2       5 ALP1        0.0000 
     21 CA         21.5565   21.0310   30.4240 C.3       4 GLC5        0.0000 
     22 CA         23.3880   20.7150   29.8690 C.3      12 GLL5        0.0000 
     23 CA         19.7250   21.3470   30.9790 C.3       8 GLP5        0.0000 
     24 CA         24.5105   21.1600   28.4330 C.3       4 GLC5        0.0000 
     25 CA         25.6330   21.6050   26.9970 C.3       8 GLP5        0.0000 
     26 CA         25.9775   21.3165   31.9890 C.3       4 GLC5        0.0000 
     27 CA         24.0300   20.5630   32.1160 C.3      12 GLL5        0.0000 
     28 N          27.6580   21.7965   39.8900 N.am      2 SEC2        0.0000 
     29 N          27.3040   23.4180   39.5590 N.am     10 SEL2        0.0000 
     30 N          27.6475   27.3025   39.4200 N.am      2 SEC2        0.0000 
     31 N          27.7260   25.9010   38.9470 N.am     10 SEL2        0.0000 
     32 N          27.5690   28.7040   39.8930 N.am      6 SEP2        0.0000 
     33 CA         30.0935   25.8570   38.8780 C.3       4 GLC5        0.0000 
     34 CA         29.7410   24.0060   37.6490 C.3      12 GLL5        0.0000 
     35 CA         30.4460   27.7080   40.1070 C.3       8 GLP5        0.0000 
     36 CA         29.8645   25.7530   36.3030 C.3       4 GLC5        0.0000 
     37 CA         29.9880   27.5000   34.9570 C.3       8 GLP5        0.0000 
     38 CA         31.5065   25.4230   36.2935 C.3       4 GLC5        0.0000 
     39 CA         31.2040   23.6760   37.3160 C.3      12 GLL5        0.0000 
     40 CA         31.8090   27.1700   35.2710 C.3       8 GLP5        0.0000 
     41 CA         30.3490   21.0100   36.7675 C.3       4 GLC5        0.0000 
     42 CA         31.5830   22.2940   37.8040 C.3      12 GLL5        0.0000 
     43 CA         29.1150   19.7260   35.7310 C.3       8 GLP5        0.0000 
     44 N          33.8665   21.9815   36.0555 N.am      2 SEC2        0.0000 
     45 N          32.4880   21.7840   36.8190 N.am     10 SEL2        0.0000 
     46 N          35.2450   22.1790   35.2920 N.am      6 SEP2        0.0000 
     47 O          31.9510   20.5255   36.4455 O.2       1 ALC1        0.0000 
     48 O          32.4880   21.7840   36.8190 O.2       9 ALL1        0.0000 
     49 O          31.4140   19.2670   36.0720 O.2       5 ALP1        0.0000 
     50 CA         32.7550   22.2105   41.0665 C.3       4 GLC5        0.0000 
     51 CA         32.3010   22.5940   39.1030 C.3      12 GLL5        0.0000 
     52 CA         33.2090   21.8270   43.0300 C.3       8 GLP5        0.0000 
     53 CA         33.5170   23.9625   36.5855 C.3       4 GLC5        0.0000 
     54 CA         33.0670   23.8880   38.7790 C.3      12 GLL5        0.0000 
     55 CA         33.9670   24.0370   34.3920 C.3       8 GLP5        0.0000 
     56 CA         34.7785   22.6750   38.0325 C.3       4 GLC5        0.0000 
     57 CA         36.4900   21.4620   37.2860 C.3       8 GLP5        0.0000 
     58 CA         31.4630   26.3100   40.5305 C.3       4 GLC5        0.0000 
     59 CA         32.4800   24.9120   40.9540 C.3      12 GLL5        0.0000 
     60 O          29.6065   25.7425   44.4370 O.2       1 ALC1        0.0000 
     61 O          30.5550   25.9550   43.1750 O.2       9 ALL1        0.0000 
     62 O          28.6580   25.5300   45.6990 O.2       5 ALP1        0.0000 
     63 CA         33.8310   27.9675   43.3660 C.3       4 GLC5        0.0000 
     64 CA         33.9710   26.5460   41.9230 C.3      12 GLL5        0.0000 
     65 CA         33.6910   29.3890   44.8090 C.3       8 GLP5        0.0000 
     66 CA         33.7430   28.0435   40.6890 C.3       4 GLC5        0.0000 
     67 CA         34.8060   26.4170   40.8140 C.3      12 GLL5        0.0000 
     68 CA         32.6800   29.6700   40.5640 C.3       8 GLP5        0.0000 
     69 CA         33.3830   26.8390   38.3420 C.3       4 GLC5        0.0000 
     70 CA         34.4430   25.5250   39.8230 C.3      12 GLL5        0.0000 
     71 CA         32.3230   28.1530   36.8610 C.3       8 GLP5        0.0000 
     72 NZ         20.2705   20.5355   34.7525 N.4       3 LYC4        0.0000 
     73 NZ         19.5060   21.9350   34.2140 N.4      11 LYL4        0.0000 
     74 NZ         20.9220   18.8110   34.0300 N.4       7 LYP4        0.0000 
     75 N          19.8360   20.7245   33.7110 N.am      2 SEC2        0.0000 
     76 N          19.5060   21.9350   34.2140 N.am     10 SEL2        0.0000 
     77 N          20.1660   19.5140   33.2080 N.am      6 SEP2        0.0000 
     78 N          20.2705   20.5355   34.7525 N.am      2 SEC2        0.0000 
     79 N          21.0350   19.1360   35.2910 N.am      6 SEP2        0.0000 
     80 N          18.5500   22.5210   33.2035 N.am      2 SEC2        0.0000 
     81 N          17.5940   23.1070   32.1930 N.am      6 SEP2        0.0000 
     82 N          18.2345   21.8840   34.4385 N.am      2 SEC2        0.0000 
     83 N          16.9630   21.8330   34.6630 N.am      6 SEP2        0.0000 
     84 NZ         20.8810   20.2725   35.8295 N.4       3 LYC4        0.0000 
     85 NZ         20.7270   21.4090   36.3680 N.4      11 LYL4        0.0000 
     86 NZ         20.0150   22.8330   37.2435 N.4       3 LYC4        0.0000 
     87 NZ         19.3030   24.2570   38.1190 N.4       7 LYP4        0.0000 
     88 N          20.8810   20.2725   35.8295 N.am      2 SEC2        0.0000 
     89 N          20.7270   21.4090   36.3680 N.am     10 SEL2        0.0000 
     90 NZ         19.8375   24.0330   36.9185 N.4       3 LYC4        0.0000 
     91 NZ         20.3720   23.8090   35.7180 N.4      11 LYL4        0.0000 
     92 N          20.0195   24.6915   34.7140 N.am      2 SEC2        0.0000 
     93 N          20.3720   23.8090   35.7180 N.am     10 SEL2        0.0000 
     94 N          19.6670   25.5740   33.7100 N.am      6 SEP2        0.0000 
     95 N          19.8375   24.0330   36.9185 N.am      2 SEC2        0.0000 
     96 N          19.3030   24.2570   38.1190 N.am      6 SEP2        0.0000 
     97 CA         24.2912   25.0960   36.9123 C.3       4 GLC5        0.0000 
     98 CA         23.6040   23.4540   35.7880 C.3      12 GLL5        0.0000 
     99 CA         24.2280   26.8440   38.0090 C.3       8 GLP5        0.0000 
    100 CA         25.9675   18.3117   31.3395 C.3       4 GLC5        0.0000 
    101 CA         24.0570   18.5540   30.6330 C.3      12 GLL5        0.0000 
    102 CA         27.7530   17.7820   31.3880 C.3       8 GLP5        0.0000 
    103 CA         22.0425   19.4331   31.7527 C.3       4 GLC5        0.0000 
    104 CA         24.3070   19.1290   31.9490 C.3      12 GLL5        0.0000 
    105 CA         19.9790   19.1640   31.8020 C.3       8 GLP5        0.0000 
    106 CA         32.0802   23.0710   35.8175 C.3       4 GLC5        0.0000 
    107 CA         32.7670   23.1570   34.0750 C.3       8 GLP5        0.0000 
    108 CA         30.5020   21.4915   39.7182 C.3       4 GLC5        0.0000 
    109 CA         29.0620   20.5390   40.9830 C.3       8 GLP5        0.0000 
    110 CA         32.3145   27.4603   41.7305 C.3       4 GLC5        0.0000 
    111 CA         32.7790   25.8150   41.9950 C.3      12 GLL5        0.0000 
    112 CA         31.2540   28.7400   41.5020 C.3       8 GLP5        0.0000 
    113 CA         35.0738   27.5645   39.2747 C.3       4 GLC5        0.0000 
    114 CA         35.5230   29.1580   38.2310 C.3       8 GLP5        0.0000 
    115 CA         36.5332   25.1090   40.2147 C.3       4 GLC5        0.0000 
    116 CA         38.4420   24.2470   40.1110 C.3       8 GLP5        0.0000 
@<TRIPOS>BOND
@<TRIPOS>SUBSTRUCTURE
     1 ALC1       18 GROUP        1 X    ALC  0     ROOT ALC X 1
     2 SEC2        4 GROUP        1 X    SEC  0     **** SEC X 2
     3 LYC4        1 GROUP        1 X    LYC  0     **** LYC X 4
     4 GLC5       12 GROUP        1 X    GLC  0     **** GLC X 6
     5 ALP1       20 GROUP        1 Y    ALP  0     ROOT ALP Y 8
     6 SEP2        6 GROUP        1 Y    SEP  0     **** SEP Y 9
     7 LYP4        3 GROUP        1 Y    LYP  0     **** LYP Y 11
     8 GLP5       14 GROUP        1 Y    GLP  0     **** GLP Y 13
     9 ALL1       19 GROUP        1 Z    ALL  0     ROOT ALL Z 15
    10 SEL2        5 GROUP        1 Z    SEL  0     **** SEL Z 16
    11 LYL4        2 GROUP        1 Z    LYL  0     **** LYL Z 18
    12 GLL5       13 GROUP        1 Z    GLL  0     **** GLL Z 20
@<TRIPOS>SET

