#    Name: 3w6u_NAP_1_ligand
#    Modification time : Tue Mar 25 02:24:03 2014

@<TRIPOS>MOLECULE
3w6u_NAP_1_ligand
   73    77     1     0     0
SMALL
NO_CHARGES


@<TRIPOS>ATOM
      1 PA         25.7180   23.3290   39.6630 P.3       1 NAP301      0.0000 
      2 O1A        25.3660   21.9270   39.9980 O.co2     1 NAP301      0.0000 
      3 O2A        25.1890   24.4460   40.4890 O.co2     1 NAP301      0.0000 
      4 O5B        25.2720   23.5850   38.1590 O.3       1 NAP301      0.0000 
      5 C5B        25.5290   22.6000   37.1680 C.3       1 NAP301      0.0000 
      6 C4B        25.1050   23.2420   35.8430 C.3       1 NAP301      0.0000 
      7 O4B        25.3810   22.3690   34.7650 O.3       1 NAP301      0.0000 
      8 C3B        23.6040   23.4540   35.7880 C.3       1 NAP301      0.0000 
      9 O3B        23.3710   24.6470   35.0190 O.3       1 NAP301      0.0000 
     10 C2B        23.1050   22.2440   35.0320 C.3       1 NAP301      0.0000 
     11 O2B        21.8480   22.4910   34.4030 O.3       1 NAP301      0.0000 
     12 C1B        24.2030   22.1510   34.0030 C.3       1 NAP301      0.0000 
     13 N9A        24.3120   20.8040   33.3940 N.pl3     1 NAP301      0.0000 
     14 C8A        24.7330   19.6840   33.9990 C.2       1 NAP301      0.0000 
     15 N7A        24.7270   18.6430   33.1310 N.2       1 NAP301      0.0000 
     16 C5A        24.3070   19.1290   31.9490 C.ar      1 NAP301      0.0000 
     17 C6A        24.0570   18.5540   30.6330 C.ar      1 NAP301      0.0000 
     18 N6A        24.3140   17.2260   30.4260 N.pl3     1 NAP301      0.0000 
     19 N1A        23.6080   19.3860   29.6700 N.ar      1 NAP301      0.0000 
     20 C2A        23.3880   20.7150   29.8690 C.ar      1 NAP301      0.0000 
     21 N3A        23.5640   21.3030   31.0780 N.ar      1 NAP301      0.0000 
     22 C4A        24.0300   20.5630   32.1160 C.ar      1 NAP301      0.0000 
     23 O3         27.3040   23.4180   39.5590 O.3       1 NAP301      0.0000 
     24 PN         28.2110   24.7210   39.7120 P.3       1 NAP301      0.0000 
     25 O1N        28.6020   24.8450   41.1520 O.co2     1 NAP301      0.0000 
     26 O2N        27.7260   25.9010   38.9470 O.co2     1 NAP301      0.0000 
     27 O5D        29.5830   24.2000   39.0530 O.3       1 NAP301      0.0000 
     28 C5D        29.7410   24.0060   37.6490 C.3       1 NAP301      0.0000 
     29 C4D        31.2040   23.6760   37.3160 C.3       1 NAP301      0.0000 
     30 O4D        32.1820   24.5780   37.9090 O.3       1 NAP301      0.0000 
     31 C3D        31.5830   22.2940   37.8040 C.3       1 NAP301      0.0000 
     32 O3D        32.4880   21.7840   36.8190 O.3       1 NAP301      0.0000 
     33 C2D        32.3010   22.5940   39.1030 C.3       1 NAP301      0.0000 
     34 O2D        33.1230   21.4860   39.4860 O.3       1 NAP301      0.0000 
     35 C1D        33.0670   23.8880   38.7790 C.3       1 NAP301      0.0000 
     36 N1N        33.3180   24.7910   39.8970 N.pl3     1 NAP301      0.0000 
     37 C2N        32.4800   24.9120   40.9540 C.ar      1 NAP301      0.0000 
     38 C3N        32.7790   25.8150   41.9950 C.ar      1 NAP301      0.0000 
     39 C7N        31.8800   26.0010   43.2210 C.2       1 NAP301      0.0000 
     40 O7N        32.3800   26.2200   44.3110 O.2       1 NAP301      0.0000 
     41 N7N        30.5550   25.9550   43.1750 N.am      1 NAP301      0.0000 
     42 C4N        33.9710   26.5460   41.9230 C.ar      1 NAP301      0.0000 
     43 C5N        34.8060   26.4170   40.8140 C.ar      1 NAP301      0.0000 
     44 C6N        34.4430   25.5250   39.8230 C.ar      1 NAP301      0.0000 
     45 P2B        20.5000   22.3820   35.2600 P.3       1 NAP301      0.0000 
     46 O1X        19.5060   21.9350   34.2140 O.co2     1 NAP301      0.0000 
     47 O2X        20.7270   21.4090   36.3680 O.co2     1 NAP301      0.0000 
     48 O3X        20.3720   23.8090   35.7180 O.co2     1 NAP301      0.0000 
     49 H          24.9380   21.7088   37.3091 H         1 NAP301      0.0000 
     50 H          26.5759   22.3506   37.0959 H         1 NAP301      0.0000 
     51 H          25.5880   24.1804   35.7263 H         1 NAP301      0.0000 
     52 H          23.2175   23.4750   36.7437 H         1 NAP301      0.0000 
     53 H          23.1489   21.4113   35.6507 H         1 NAP301      0.0000 
     54 H          24.0751   22.9003   33.2764 H         1 NAP301      0.0000 
     55 H          25.0084   19.6187   34.9372 H         1 NAP301      0.0000 
     56 H          25.0335   16.8236   30.9921 H         1 NAP301      0.0000 
     57 H          23.7598   16.7743   29.7269 H         1 NAP301      0.0000 
     58 H          23.0705   21.3039   29.0548 H         1 NAP301      0.0000 
     59 H          29.4677   24.9036   37.0784 H         1 NAP301      0.0000 
     60 H          29.1237   23.1769   37.2783 H         1 NAP301      0.0000 
     61 H          31.3225   23.6726   36.2308 H         1 NAP301      0.0000 
     62 H          30.7409   21.7370   37.9603 H         1 NAP301      0.0000 
     63 H          31.5487   22.8370   39.8312 H         1 NAP301      0.0000 
     64 H          33.9593   23.6348   38.2577 H         1 NAP301      0.0000 
     65 H          31.6145   24.3533   41.0210 H         1 NAP301      0.0000 
     66 H          30.1526   25.7492   42.2830 H         1 NAP301      0.0000 
     67 H          30.0785   26.1303   44.0365 H         1 NAP301      0.0000 
     68 H          34.2286   27.1782   42.6906 H         1 NAP301      0.0000 
     69 H          35.6580   26.9671   40.7417 H         1 NAP301      0.0000 
     70 H          35.0779   25.4280   38.9893 H         1 NAP301      0.0000 
     71 H          22.3795   24.7763   35.0362 H         1 NAP301      0.0000 
     72 H          32.4056   20.7894   36.8823 H         1 NAP301      0.0000 
     73 H          33.9907   21.8937   39.7704 H         1 NAP301      0.0000 
@<TRIPOS>BOND
     1    2    1 ar   
     2    3    1 ar   
     3    4    1 1    
     4   23    1 1    
     5    5    4 1    
     6    6    5 1    
     7   49    5 1    
     8   50    5 1    
     9    7    6 1    
    10    8    6 1    
    11   51    6 1    
    12   12    7 1    
    13    9    8 1    
    14   10    8 1    
    15   52    8 1    
    16   71    9 1    
    17   11   10 1    
    18   12   10 1    
    19   53   10 1    
    20   45   11 1    
    21   13   12 1    
    22   54   12 1    
    23   14   13 1    
    24   22   13 1    
    25   15   14 2    
    26   55   14 1    
    27   16   15 1    
    28   17   16 ar   
    29   22   16 ar   
    30   18   17 1    
    31   19   17 ar   
    32   56   18 1    
    33   57   18 1    
    34   20   19 ar   
    35   21   20 ar   
    36   58   20 1    
    37   22   21 ar   
    38   24   23 1    
    39   25   24 ar   
    40   26   24 ar   
    41   27   24 1    
    42   28   27 1    
    43   29   28 1    
    44   59   28 1    
    45   60   28 1    
    46   30   29 1    
    47   31   29 1    
    48   61   29 1    
    49   35   30 1    
    50   32   31 1    
    51   33   31 1    
    52   62   31 1    
    53   72   32 1    
    54   34   33 1    
    55   35   33 1    
    56   63   33 1    
    57   73   34 1    
    58   36   35 1    
    59   64   35 1    
    60   37   36 ar   
    61   44   36 ar   
    62   38   37 ar   
    63   65   37 1    
    64   39   38 1    
    65   42   38 ar   
    66   40   39 2    
    67   41   39 am   
    68   66   41 1    
    69   67   41 1    
    70   43   42 ar   
    71   68   42 1    
    72   44   43 ar   
    73   69   43 1    
    74   70   44 1    
    75   46   45 ar   
    76   47   45 ar   
    77   48   45 ar   
@<TRIPOS>SUBSTRUCTURE
     1 NAP301      1 GROUP   
@<TRIPOS>SET

