#    Name: 3ezv_EZV_1_INTS_M
#    Modification time : Tue Mar 25 02:59:48 2014

@<TRIPOS>MOLECULE
3ezv_EZV_1_INTS_M
   59     0    12     0     0
SMALL
NO_CHARGES


@<TRIPOS>ATOM
      1 O           0.3130   33.9600    7.0425 O.2       1 ALC1        0.0000 
      2 O           0.4700   32.6760    7.5210 O.2       9 ALL1        0.0000 
      3 O           0.1560   35.2440    6.5640 O.2       5 ALP1        0.0000 
      4 N           2.6050   32.9055    6.3800 N.am      2 SEC2        0.0000 
      5 N           1.4840   31.9770    6.9900 N.am     10 SEL2        0.0000 
      6 N           3.7260   33.8340    5.7700 N.am      6 SEP2        0.0000 
      7 CA          2.3370   28.3115    5.3725 C.3       4 GLC5        0.0000 
      8 CA          4.0040   28.5970    6.5060 C.3      12 GLL5        0.0000 
      9 CA          0.6700   28.0260    4.2390 C.3       8 GLP5        0.0000 
     10 CA          6.3935   29.7270    5.4020 C.3       4 GLC5        0.0000 
     11 CA          5.1290   28.1940    5.8110 C.3      12 GLL5        0.0000 
     12 CA          7.6580   31.2600    4.9930 C.3       8 GLP5        0.0000 
     13 CA          1.5855   26.2225    8.0950 C.3       4 GLC5        0.0000 
     14 CA          2.9180   26.3300    9.7550 C.3      12 GLL5        0.0000 
     15 CA          0.2530   26.1150    6.4350 C.3       8 GLP5        0.0000 
     16 CA          4.5910   26.8325   10.8135 C.3       4 GLC5        0.0000 
     17 CA          6.2640   27.3350   11.8720 C.3       8 GLP5        0.0000 
     18 CA          3.4595   28.2790   10.4645 C.3       4 GLC5        0.0000 
     19 CA          4.0010   30.2280   11.1740 C.3       8 GLP5        0.0000 
     20 OD1         4.4445   24.6615   10.9250 O.co2     3 ASC3        0.0000 
     21 OD1         2.7380   24.1820   10.8440 O.co2    11 ASL3        0.0000 
     22 OD1         6.1510   25.1410   11.0060 O.co2     7 ASP3        0.0000 
     23 CA          2.5390   23.8920   13.6010 C.3       4 GLC5        0.0000 
     24 CA          1.9710   23.3080   11.7600 C.3      12 GLL5        0.0000 
     25 CA          3.1070   24.4760   15.4420 C.3       8 GLP5        0.0000 
     26 CA         -2.2130   33.3965   13.4355 C.3       4 GLC5        0.0000 
     27 CA         -3.9340   33.4320   12.2830 C.3      12 GLL5        0.0000 
     28 CA         -0.4920   33.3610   14.5880 C.3       8 GLP5        0.0000 
     29 CA         -1.6005   34.4935   10.6770 C.3       4 GLC5        0.0000 
     30 CA         -2.9620   33.0240   11.4020 C.3      12 GLL5        0.0000 
     31 CA         -0.2390   35.9630    9.9520 C.3       8 GLP5        0.0000 
     32 CA         -3.1820   33.9180    9.4215 C.3       4 GLC5        0.0000 
     33 CA         -3.4020   34.8120    7.4410 C.3       8 GLP5        0.0000 
     34 CA         -1.9772   28.9435    8.1107 C.3       4 GLC5        0.0000 
     35 CA         -1.3570   30.1410   10.0370 C.3      12 GLL5        0.0000 
     36 CA         -3.1460   27.9390    6.5520 C.3       8 GLP5        0.0000 
     37 CA         -0.5300   34.0662    9.3695 C.3       4 GLC5        0.0000 
     38 CA         -0.2810   31.9710    8.4140 C.3      12 GLL5        0.0000 
     39 CA         -2.1115   33.4908    8.1140 C.3       4 GLC5        0.0000 
     40 CA         -1.3610   32.3680    9.1600 C.3      12 GLL5        0.0000 
     41 CA         -0.6873   32.1505   11.4734 C.3       4 GLC5        0.0000 
     42 CA          0.1190   32.7310   13.3620 C.3       8 GLP5        0.0000 
     43 CA         -1.0112   31.5791    6.9623 C.3       4 GLC5        0.0000 
     44 CA         -1.7550   31.7160    5.2960 C.3       8 GLP5        0.0000 
     45 CA          1.9223   26.6057    6.9727 C.3       4 GLC5        0.0000 
     46 CA          3.3820   27.7380    7.3830 C.3      12 GLL5        0.0000 
     47 CA          6.9395   28.3980    7.0018 C.3       4 GLC5        0.0000 
     48 CA          8.5350   29.2430    8.0700 C.3       8 GLP5        0.0000 
     49 CA         -1.4247   32.5618   12.2462 C.3       4 GLC5        0.0000 
     50 CA         -2.9750   31.7610   10.8590 C.3      12 GLL5        0.0000 
     51 CA         -3.4562   31.1767   13.0655 C.3       4 GLC5        0.0000 
     52 CA         -3.4360   31.0260   15.0900 C.3       8 GLP5        0.0000 
     53 CA         -6.0308   30.0805   11.0465 C.3       4 GLC5        0.0000 
     54 CA         -4.9490   31.2940   12.1130 C.3      12 GLL5        0.0000 
     55 CA         -7.5980   29.0670   10.4250 C.3       8 GLP5        0.0000 
     56 CA         -4.1892   31.4770   13.7357 C.3       4 GLC5        0.0000 
     57 CA         -3.4420   32.1270   13.4662 C.3       4 GLC5        0.0000 
     58 CA          0.9924   31.7003    9.6747 C.3       4 GLC5        0.0000 
     59 CA          2.5260   32.1500   10.4210 C.3       8 GLP5        0.0000 
@<TRIPOS>BOND
@<TRIPOS>SUBSTRUCTURE
     1 ALC1        1 GROUP        1 X    ALC  0     ROOT ALC X 1
     2 SEC2        4 GROUP        1 X    SEC  0     **** SEC X 2
     3 ASC3       20 GROUP        1 X    ASC  0     **** ASC X 3
     4 GLC5        7 GROUP        1 X    GLC  0     **** GLC X 6
     5 ALP1        3 GROUP        1 Y    ALP  0     ROOT ALP Y 8
     6 SEP2        6 GROUP        1 Y    SEP  0     **** SEP Y 9
     7 ASP3       22 GROUP        1 Y    ASP  0     **** ASP Y 10
     8 GLP5        9 GROUP        1 Y    GLP  0     **** GLP Y 13
     9 ALL1        2 GROUP        1 Z    ALL  0     ROOT ALL Z 15
    10 SEL2        5 GROUP        1 Z    SEL  0     **** SEL Z 16
    11 ASL3       21 GROUP        1 Z    ASL  0     **** ASL Z 17
    12 GLL5        8 GROUP        1 Z    GLL  0     **** GLL Z 20
@<TRIPOS>SET

