#    Name: 3ezv_EZV_1_ligand
#    Modification time : Tue Mar 25 02:59:48 2014

@<TRIPOS>MOLECULE
3ezv_EZV_1_ligand
   58    63     1     0     0
SMALL
NO_CHARGES


@<TRIPOS>ATOM
      1 C1         -1.3570   30.1410   10.0370 C.ar      1 EZV300      0.0000 
      2 C2         -1.8950   31.4030    9.9820 C.ar      1 EZV300      0.0000 
      3 C3         -1.3610   32.3680    9.1600 C.ar      1 EZV300      0.0000 
      4 C4         -0.2810   31.9710    8.4140 C.ar      1 EZV300      0.0000 
      5 C5          0.2860   30.7150    8.4700 C.ar      1 EZV300      0.0000 
      6 C6         -0.2600   29.7550    9.3020 C.ar      1 EZV300      0.0000 
      7 N7          0.4700   32.6760    7.5210 N.pl3     1 EZV300      0.0000 
      8 N8          1.4840   31.9770    6.9900 N.2       1 EZV300      0.0000 
      9 C9          1.3760   30.7730    7.5670 C.2       1 EZV300      0.0000 
     10 C10         2.3430   29.6880    7.2960 C.2       1 EZV300      0.0000 
     11 N11         3.3510   29.7990    6.4670 N.2       1 EZV300      0.0000 
     12 C12         4.0040   28.5970    6.5060 C.ar      1 EZV300      0.0000 
     13 C13         3.3820   27.7380    7.3830 C.ar      1 EZV300      0.0000 
     14 N14         2.3320   28.4520    7.8750 N.pl3     1 EZV300      0.0000 
     15 C15         5.1290   28.1940    5.8110 C.ar      1 EZV300      0.0000 
     16 C16         5.5590   26.9120    6.0560 C.ar      1 EZV300      0.0000 
     17 C17         4.9190   26.0740    6.9370 C.ar      1 EZV300      0.0000 
     18 C18         3.8010   26.4550    7.6380 C.ar      1 EZV300      0.0000 
     19 C19        -2.9750   31.7610   10.8590 C.ar      1 EZV300      0.0000 
     20 N20         3.1440   25.6050    8.5300 N.3       1 EZV300      0.0000 
     21 C21         2.9180   26.3300    9.7550 C.3       1 EZV300      0.0000 
     22 C22         2.0220   25.4640   10.6060 C.3       1 EZV300      0.0000 
     23 N23         2.7380   24.1820   10.8440 N.4       1 EZV300      0.0000 
     24 C24         3.1180   23.4600    9.6020 C.3       1 EZV300      0.0000 
     25 C25         3.9120   24.3960    8.7210 C.3       1 EZV300      0.0000 
     26 C26         1.9710   23.3080   11.7600 C.3       1 EZV300      0.0000 
     27 C27        -3.9780   30.8940   11.2230 C.ar      1 EZV300      0.0000 
     28 C28        -4.9490   31.2940   12.1130 C.ar      1 EZV300      0.0000 
     29 C29        -4.9360   32.5620   12.6500 C.ar      1 EZV300      0.0000 
     30 C30        -3.9340   33.4320   12.2830 C.ar      1 EZV300      0.0000 
     31 C31        -2.9620   33.0240   11.4020 C.ar      1 EZV300      0.0000 
     32 N32        -5.9220   32.9760   13.5650 N.pl3     1 EZV300      0.0000 
     33 H          -1.8073   29.4297   10.6756 H         1 EZV300      0.0000 
     34 H          -1.7365   33.2957    9.1112 H         1 EZV300      0.0000 
     35 H           0.1256   28.8280    9.3639 H         1 EZV300      0.0000 
     36 H           0.2729   33.6295    7.2900 H         1 EZV300      0.0000 
     37 H           1.6921   28.1407    8.5194 H         1 EZV300      0.0000 
     38 H           5.6004   28.8039    5.1673 H         1 EZV300      0.0000 
     39 H           6.4102   26.5590    5.5500 H         1 EZV300      0.0000 
     40 H           5.2996   25.1046    7.0798 H         1 EZV300      0.0000 
     41 H           2.4181   27.2732    9.5716 H         1 EZV300      0.0000 
     42 H           3.8437   26.5040   10.2898 H         1 EZV300      0.0000 
     43 H           1.0941   25.2829   10.0815 H         1 EZV300      0.0000 
     44 H           1.8261   25.9634   11.5447 H         1 EZV300      0.0000 
     45 H           3.6957   24.4386   11.3799 H         1 EZV300      0.0000 
     46 H           2.2284   23.1360    9.0690 H         1 EZV300      0.0000 
     47 H           3.7271   22.5932    9.8431 H         1 EZV300      0.0000 
     48 H           4.8649   24.6060    9.2074 H         1 EZV300      0.0000 
     49 H           4.1066   23.8974    7.7711 H         1 EZV300      0.0000 
     50 H          -4.0038   29.9385   10.8275 H         1 EZV300      0.0000 
     51 H          -5.7016   30.6308   12.3833 H         1 EZV300      0.0000 
     52 H          -3.9143   34.3891   12.6699 H         1 EZV300      0.0000 
     53 H          -2.1993   33.6848   11.1398 H         1 EZV300      0.0000 
     54 H          -5.8468   33.9161   13.8975 H         1 EZV300      0.0000 
     55 H          -6.6138   32.2948   13.8046 H         1 EZV300      0.0000 
     56 H           2.4425   22.4425   11.9291 H         1 EZV300      0.0000 
     57 H           1.8240   23.7404   12.6496 H         1 EZV300      0.0000 
     58 H           1.0693   23.0833   11.3907 H         1 EZV300      0.0000 
@<TRIPOS>BOND
     1    2    1 ar   
     2    6    1 ar   
     3   33    1 1    
     4    3    2 ar   
     5   19    2 1    
     6    4    3 ar   
     7   34    3 1    
     8    5    4 ar   
     9    7    4 1    
    10    6    5 ar   
    11    9    5 1    
    12   35    6 1    
    13    8    7 1    
    14   36    7 1    
    15    9    8 2    
    16   10    9 1    
    17   11   10 2    
    18   14   10 1    
    19   12   11 1    
    20   13   12 ar   
    21   15   12 ar   
    22   14   13 1    
    23   18   13 ar   
    24   37   14 1    
    25   16   15 ar   
    26   38   15 1    
    27   17   16 ar   
    28   39   16 1    
    29   18   17 ar   
    30   40   17 1    
    31   20   18 1    
    32   27   19 ar   
    33   31   19 ar   
    34   21   20 1    
    35   25   20 1    
    36   22   21 1    
    37   41   21 1    
    38   42   21 1    
    39   23   22 1    
    40   43   22 1    
    41   44   22 1    
    42   24   23 1    
    43   26   23 1    
    44   45   23 1    
    45   25   24 1    
    46   46   24 1    
    47   47   24 1    
    48   48   25 1    
    49   49   25 1    
    50   56   26 1    
    51   57   26 1    
    52   58   26 1    
    53   28   27 ar   
    54   50   27 1    
    55   29   28 ar   
    56   51   28 1    
    57   30   29 ar   
    58   32   29 1    
    59   31   30 ar   
    60   52   30 1    
    61   53   31 1    
    62   54   32 1    
    63   55   32 1    
@<TRIPOS>SUBSTRUCTURE
     1 EZV300      1 GROUP   
@<TRIPOS>SET

