#    Name: 3gi5_K62_1_INTS_M
#    Modification time : Tue Mar 25 12:34:24 2014

@<TRIPOS>MOLECULE
3gi5_K62_1_INTS_M
   88     0     9     0     0
SMALL
NO_CHARGES


@<TRIPOS>ATOM
      1 CA         19.3990   26.9845    3.3035 C.3       3 GLC5        0.0000 
      2 CA         18.1280   25.7730    4.4520 C.3       9 GLL5        0.0000 
      3 CA         20.6700   28.1960    2.1550 C.3       6 GLP5        0.0000 
      4 N          22.5085   23.9365   12.2935 N.am      2 SEC2        0.0000 
      5 N          21.6120   24.3730   11.1850 N.am      8 SEL2        0.0000 
      6 N          23.4050   23.5000   13.4020 N.am      5 SEP2        0.0000 
      7 CA         20.8420   29.3975    9.1735 C.3       3 GLC5        0.0000 
      8 CA         21.2390   27.7030   10.1250 C.3       9 GLL5        0.0000 
      9 CA         20.4450   31.0920    8.2220 C.3       6 GLP5        0.0000 
     10 CA         22.3170   26.5575   13.2220 C.3       3 GLC5        0.0000 
     11 CA         21.8680   27.8050   11.5380 C.3       9 GLL5        0.0000 
     12 CA         22.7660   25.3100   14.9060 C.3       6 GLP5        0.0000 
     13 CA         23.2120   29.4885   11.3890 C.3       3 GLC5        0.0000 
     14 CA         24.5560   31.1720   11.2400 C.3       6 GLP5        0.0000 
     15 O          20.1615   26.8735   13.9400 O.2       1 ALC1        0.0000 
     16 O          20.3450   28.3450   13.3760 O.2       7 ALL1        0.0000 
     17 O          19.9780   25.4020   14.5040 O.2       4 ALP1        0.0000 
     18 CA         17.0430   31.1355   11.0965 C.3       3 GLC5        0.0000 
     19 CA         17.3940   29.1240   11.6690 C.3       9 GLL5        0.0000 
     20 CA         16.6920   33.1470   10.5240 C.3       6 GLP5        0.0000 
     21 CA         17.1555   30.7940    9.7180 C.3       3 GLC5        0.0000 
     22 CA         17.1360   28.8290   10.3190 C.3       9 GLL5        0.0000 
     23 CA         17.1750   32.7590    9.1170 C.3       6 GLP5        0.0000 
     24 CA         17.0205   25.5785   13.2410 C.3       3 GLC5        0.0000 
     25 CA         17.9180   26.8220   12.0610 C.3       9 GLL5        0.0000 
     26 CA         16.1230   24.3350   14.4210 C.3       6 GLP5        0.0000 
     27 N          19.2460   27.8580   17.6735 N.am      2 SEC2        0.0000 
     28 N          19.7690   28.3340   16.4190 N.am      8 SEL2        0.0000 
     29 N          18.7230   27.3820   18.9280 N.am      5 SEP2        0.0000 
     30 O          20.6335   28.0345   17.2970 O.2       1 ALC1        0.0000 
     31 O          19.7690   28.3340   16.4190 O.2       7 ALL1        0.0000 
     32 O          21.4980   27.7350   18.1750 O.2       4 ALP1        0.0000 
     33 O          21.3095   28.7780   16.8470 O.2       1 ALC1        0.0000 
     34 O          22.8500   29.2220   17.2750 O.2       4 ALP1        0.0000 
     35 CA         17.4780   30.6810   17.7635 C.3       3 GLC5        0.0000 
     36 CA         19.0150   30.6460   16.1390 C.3       9 GLL5        0.0000 
     37 CA         15.9410   30.7160   19.3880 C.3       6 GLP5        0.0000 
     38 CA         22.7880   32.8570   18.9900 C.3       3 GLC5        0.0000 
     39 CA         22.3090   33.4380   17.1970 C.3       9 GLL5        0.0000 
     40 CA         23.2670   32.2760   20.7830 C.3       6 GLP5        0.0000 
     41 CA         23.8740   34.2170   17.7850 C.3       3 GLC5        0.0000 
     42 CA         25.4390   34.9960   18.3730 C.3       6 GLP5        0.0000 
     43 CA         23.0265   34.4760   14.4940 C.3       3 GLC5        0.0000 
     44 CA         22.1680   32.4430   14.9060 C.3       9 GLL5        0.0000 
     45 CA         23.8850   36.5090   14.0820 C.3       6 GLP5        0.0000 
     46 CA         23.2055   32.5395   12.9790 C.3       3 GLC5        0.0000 
     47 CA         24.2430   32.6360   11.0520 C.3       6 GLP5        0.0000 
     48 CA         15.8410   33.2545   13.8820 C.3       3 GLC5        0.0000 
     49 CA         17.0570   33.4010   15.7650 C.3       9 GLL5        0.0000 
     50 CA         14.6250   33.1080   11.9990 C.3       6 GLP5        0.0000 
     51 CA         15.1820   31.1100   15.3150 C.3       3 GLC5        0.0000 
     52 CA         16.0660   32.7270   16.4810 C.3       9 GLL5        0.0000 
     53 CA         14.2980   29.4930   14.1490 C.3       6 GLP5        0.0000 
     54 CA         16.2670   33.1350   18.8870 C.3       3 GLC5        0.0000 
     55 CA         15.5170   34.7360   17.6750 C.3       9 GLL5        0.0000 
     56 CA         17.0170   31.5340   20.0990 C.3       6 GLP5        0.0000 
     57 CA         13.7730   35.0550   19.0055 C.3       3 GLC5        0.0000 
     58 CA         12.0290   35.3740   20.3360 C.3       6 GLP5        0.0000 
     59 N          14.3545   34.8260   19.9640 N.am      2 SEC2        0.0000 
     60 N          14.8970   35.5700   18.5560 N.am      8 SEL2        0.0000 
     61 N          13.8120   34.0820   21.3720 N.am      5 SEP2        0.0000 
     62 CA         15.8330   36.3105   20.4705 C.3       3 GLC5        0.0000 
     63 CA         15.5380   36.8610   18.4670 C.3       9 GLL5        0.0000 
     64 CA         16.1280   35.7600   22.4740 C.3       6 GLP5        0.0000 
     65 CA         13.7835   36.1175   19.4015 C.3       3 GLC5        0.0000 
     66 CA         14.3165   37.8025   17.1620 C.3       3 GLC5        0.0000 
     67 CA         13.0950   38.7440   15.8570 C.3       6 GLP5        0.0000 
     68 CA         20.9623   27.6737    6.2527 C.3       3 GLC5        0.0000 
     69 CA         19.9970   26.3390    7.7890 C.3       9 GLL5        0.0000 
     70 CA         22.1000   29.2980    5.3290 C.3       6 GLP5        0.0000 
     71 CA         15.9295   27.5022   11.8008 C.3       3 GLC5        0.0000 
     72 CA         17.7860   28.1190   12.5540 C.3       9 GLL5        0.0000 
     73 CA         14.2690   26.3830   11.4900 C.3       6 GLP5        0.0000 
     74 CA         15.9824   29.0951   13.3134 C.3       3 GLC5        0.0000 
     75 CA         15.9055   28.2345    8.7445 C.3       3 GLC5        0.0000 
     76 CA         14.6040   28.2850    7.4100 C.3       6 GLP5        0.0000 
     77 CA         15.7380   27.2835   10.7845 C.3       3 GLC5        0.0000 
     78 CA         17.2780   27.5390    9.8390 C.3       9 GLL5        0.0000 
     79 CA         16.0297   26.5307   11.4400 C.3       3 GLC5        0.0000 
     80 CA         17.6630   26.5350   10.7190 C.3       9 GLL5        0.0000 
     81 CA         23.9015   32.0495   16.5274 C.3       3 GLC5        0.0000 
     82 CA         21.5350   32.4800   16.3020 C.3       9 GLL5        0.0000 
     83 CA         25.7580   31.3980   17.2270 C.3       6 GLP5        0.0000 
     84 CA         15.8087   31.8878   18.1745 C.3       3 GLC5        0.0000 
     85 CA         14.5505   35.5752   15.8450 C.3       3 GLC5        0.0000 
     86 CA         13.0990   36.0710   14.3620 C.3       6 GLP5        0.0000 
     87 CA         13.7509   33.5504   16.6165 C.3       3 GLC5        0.0000 
     88 CA         11.9050   33.2030   15.9150 C.3       6 GLP5        0.0000 
@<TRIPOS>BOND
@<TRIPOS>SUBSTRUCTURE
     1 ALC1       15 GROUP        1 X    ALC  0     ROOT ALC X 1
     2 SEC2        4 GROUP        1 X    SEC  0     **** SEC X 2
     3 GLC5        1 GROUP        1 X    GLC  0     **** GLC X 6
     4 ALP1       17 GROUP        1 Y    ALP  0     ROOT ALP Y 8
     5 SEP2        6 GROUP        1 Y    SEP  0     **** SEP Y 9
     6 GLP5        3 GROUP        1 Y    GLP  0     **** GLP Y 13
     7 ALL1       16 GROUP        1 Z    ALL  0     ROOT ALL Z 15
     8 SEL2        5 GROUP        1 Z    SEL  0     **** SEL Z 16
     9 GLL5        2 GROUP        1 Z    GLL  0     **** GLL Z 20
@<TRIPOS>SET

