#    Name: 3gi5_K62_1_ligand
#    Modification time : Tue Mar 25 12:34:24 2014

@<TRIPOS>MOLECULE
3gi5_K62_1_ligand
   83    87     1     0     0
SMALL
NO_CHARGES


@<TRIPOS>ATOM
      1 O45        18.4850   27.6690    5.8500 O.2       1 K62200      0.0000 
      2 C46        18.7280   26.4910    5.6280 C.2       1 K62200      0.0000 
      3 C47        18.1280   25.7730    4.4520 C.3       1 K62200      0.0000 
      4 C41        19.6520   25.7600    6.5640 C.ar      1 K62200      0.0000 
      5 C40        20.1720   24.5190    6.2050 C.ar      1 K62200      0.0000 
      6 C45        21.0190   23.8540    7.0800 C.ar      1 K62200      0.0000 
      7 C44        21.3660   24.4280    8.2980 C.ar      1 K62200      0.0000 
      8 C42        19.9970   26.3390    7.7890 C.ar      1 K62200      0.0000 
      9 C43        20.8550   25.6770    8.6790 C.ar      1 K62200      0.0000 
     10 N24        21.1920   26.2600    9.9200 N.am      1 K62200      0.0000 
     11 C26        21.5290   25.5790   11.0170 C.2       1 K62200      0.0000 
     12 O27        21.6120   24.3730   11.1850 O.2       1 K62200      0.0000 
     13 O28        21.8560   26.4840   12.0930 O.3       1 K62200      0.0000 
     14 C25        21.2390   27.7030   10.1250 C.3       1 K62200      0.0000 
     15 C29        21.8680   27.8050   11.5380 C.3       1 K62200      0.0000 
     16 C21        21.0530   28.7920   12.3210 C.2       1 K62200      0.0000 
     17 O22        21.0730   29.9560   11.9420 O.2       1 K62200      0.0000 
     18 N20        20.3450   28.3450   13.3760 N.am      1 K62200      0.0000 
     19 C19        19.4170   29.2040   14.1250 C.3       1 K62200      0.0000 
     20 C32        18.0930   28.4220   14.0190 C.3       1 K62200      0.0000 
     21 C38        17.7860   28.1190   12.5540 C.ar      1 K62200      0.0000 
     22 C37        17.3940   29.1240   11.6690 C.ar      1 K62200      0.0000 
     23 C36        17.1360   28.8290   10.3190 C.ar      1 K62200      0.0000 
     24 C35        17.2780   27.5390    9.8390 C.ar      1 K62200      0.0000 
     25 C34        17.6630   26.5350   10.7190 C.ar      1 K62200      0.0000 
     26 C33        17.9180   26.8220   12.0610 C.ar      1 K62200      0.0000 
     27 C17        19.8620   29.4990   15.5590 C.3       1 K62200      0.0000 
     28 O18        19.7690   28.3340   16.4190 O.3       1 K62200      0.0000 
     29 C16        19.0150   30.6460   16.1390 C.3       1 K62200      0.0000 
     30 N11        19.2680   31.9280   15.4290 N.pl3     1 K62200      0.0000 
     31 C12        20.0530   32.8920   16.2420 C.3       1 K62200      0.0000 
     32 C13        21.5350   32.4800   16.3020 C.3       1 K62200      0.0000 
     33 C15        22.3090   33.4380   17.1970 C.3       1 K62200      0.0000 
     34 C14        22.1680   32.4430   14.9060 C.3       1 K62200      0.0000 
     35 S8         17.9610   32.5760   14.6970 S.o2      1 K62200      0.0000 
     36 O9         18.4770   33.4800   13.7150 O.2       1 K62200      0.0000 
     37 O10        17.2040   31.5040   14.0890 O.2       1 K62200      0.0000 
     38 C5         17.0570   33.4010   15.7650 C.ar      1 K62200      0.0000 
     39 C6         16.0660   32.7270   16.4810 C.ar      1 K62200      0.0000 
     40 C7         15.2870   33.3920   17.4410 C.ar      1 K62200      0.0000 
     41 C4         17.2660   34.7750   16.0210 C.ar      1 K62200      0.0000 
     42 C3         16.4870   35.4230   16.9810 C.ar      1 K62200      0.0000 
     43 O29        16.4970   36.7300   17.4050 O.3       1 K62200      0.0000 
     44 C2         15.5170   34.7360   17.6750 C.ar      1 K62200      0.0000 
     45 O19        14.8970   35.5700   18.5560 O.3       1 K62200      0.0000 
     46 C18        15.5380   36.8610   18.4670 C.3       1 K62200      0.0000 
     47 H          19.9295   24.1019    5.3007 H         1 K62200      0.0000 
     48 H          21.3947   22.9269    6.8263 H         1 K62200      0.0000 
     49 H          22.0096   23.9309    8.9354 H         1 K62200      0.0000 
     50 H          19.6173   27.2628    8.0425 H         1 K62200      0.0000 
     51 H          20.2708   28.1313   10.1609 H         1 K62200      0.0000 
     52 H          21.8876   28.1814    9.4376 H         1 K62200      0.0000 
     53 H          22.8633   28.1769   11.4046 H         1 K62200      0.0000 
     54 H          20.4218   27.3627   13.7137 H         1 K62200      0.0000 
     55 H          19.2781   30.1280   13.5767 H         1 K62200      0.0000 
     56 H          17.2948   29.0203   14.4411 H         1 K62200      0.0000 
     57 H          18.1859   27.4941   14.5700 H         1 K62200      0.0000 
     58 H          17.2914   30.0922   12.0034 H         1 K62200      0.0000 
     59 H          16.8383   29.5885    9.6876 H         1 K62200      0.0000 
     60 H          17.1035   27.3258    8.8553 H         1 K62200      0.0000 
     61 H          17.7624   25.5649   10.3792 H         1 K62200      0.0000 
     62 H          18.2088   26.0614   12.6974 H         1 K62200      0.0000 
     63 H          20.8938   29.8581   15.5194 H         1 K62200      0.0000 
     64 H          19.2559   30.7463   17.2031 H         1 K62200      0.0000 
     65 H          17.9585   30.3677   16.0572 H         1 K62200      0.0000 
     66 H          19.6669   32.9335   17.2633 H         1 K62200      0.0000 
     67 H          19.9927   33.8938   15.8101 H         1 K62200      0.0000 
     68 H          21.5952   31.4865   16.7324 H         1 K62200      0.0000 
     69 H          15.9007   31.7231   16.3041 H         1 K62200      0.0000 
     70 H          14.5656   32.8844   17.9527 H         1 K62200      0.0000 
     71 H          17.9837   35.2833   15.5032 H         1 K62200      0.0000 
     72 H          14.8090   37.6303   18.2332 H         1 K62200      0.0000 
     73 H          16.0319   37.1037   19.4025 H         1 K62200      0.0000 
     74 H          18.3878   26.1984    3.5851 H         1 K62200      0.0000 
     75 H          18.4226   24.8183    4.4099 H         1 K62200      0.0000 
     76 H          17.1287   25.7700    4.4891 H         1 K62200      0.0000 
     77 H          23.2761   33.1909   17.2568 H         1 K62200      0.0000 
     78 H          22.2670   34.3781   16.8588 H         1 K62200      0.0000 
     79 H          21.9503   33.4460   18.1304 H         1 K62200      0.0000 
     80 H          23.1319   32.1791   14.9421 H         1 K62200      0.0000 
     81 H          21.7072   31.7886   14.3065 H         1 K62200      0.0000 
     82 H          22.1249   33.3344   14.4549 H         1 K62200      0.0000 
     83 H          20.6701   28.2545   16.8453 H         1 K62200      0.0000 
@<TRIPOS>BOND
     1    2    1 2    
     2    3    2 1    
     3    4    2 1    
     4   74    3 1    
     5   75    3 1    
     6   76    3 1    
     7    5    4 ar   
     8    8    4 ar   
     9    6    5 ar   
    10   47    5 1    
    11    7    6 ar   
    12   48    6 1    
    13    9    7 ar   
    14   49    7 1    
    15    9    8 ar   
    16   50    8 1    
    17   10    9 1    
    18   11   10 am   
    19   14   10 1    
    20   12   11 2    
    21   13   11 1    
    22   15   13 1    
    23   15   14 1    
    24   51   14 1    
    25   52   14 1    
    26   16   15 1    
    27   53   15 1    
    28   17   16 2    
    29   18   16 am   
    30   19   18 1    
    31   54   18 1    
    32   20   19 1    
    33   27   19 1    
    34   55   19 1    
    35   21   20 1    
    36   56   20 1    
    37   57   20 1    
    38   22   21 ar   
    39   26   21 ar   
    40   23   22 ar   
    41   58   22 1    
    42   24   23 ar   
    43   59   23 1    
    44   25   24 ar   
    45   60   24 1    
    46   26   25 ar   
    47   61   25 1    
    48   62   26 1    
    49   28   27 1    
    50   29   27 1    
    51   63   27 1    
    52   83   28 1    
    53   30   29 1    
    54   64   29 1    
    55   65   29 1    
    56   31   30 1    
    57   35   30 1    
    58   32   31 1    
    59   66   31 1    
    60   67   31 1    
    61   33   32 1    
    62   34   32 1    
    63   68   32 1    
    64   77   33 1    
    65   78   33 1    
    66   79   33 1    
    67   80   34 1    
    68   81   34 1    
    69   82   34 1    
    70   36   35 2    
    71   37   35 2    
    72   38   35 1    
    73   39   38 ar   
    74   41   38 ar   
    75   40   39 ar   
    76   69   39 1    
    77   44   40 ar   
    78   70   40 1    
    79   42   41 ar   
    80   71   41 1    
    81   43   42 1    
    82   44   42 ar   
    83   46   43 1    
    84   45   44 1    
    85   46   45 1    
    86   72   46 1    
    87   73   46 1    
@<TRIPOS>SUBSTRUCTURE
     1 K62200      1 GROUP   
@<TRIPOS>SET

