#    Name: 4e20_0MY_1_INTS_M
#    Modification time : Mon Apr  7 23:15:27 2014

@<TRIPOS>MOLECULE
4e20_0MY_1_INTS_M
   71     0     9     0     0
SMALL
NO_CHARGES


@<TRIPOS>ATOM
      1 N          35.7110   -5.4470   24.0830 N.am      2 SEC2        0.0000 
      2 N          35.3190   -5.9710   25.4640 N.am      8 SEL2        0.0000 
      3 N          36.1030   -4.9230   22.7020 N.am      5 SEP2        0.0000 
      4 N          35.0550   -7.1275   29.0070 N.am      2 SEC2        0.0000 
      5 N          35.3480   -7.2750   27.4410 N.am      8 SEL2        0.0000 
      6 N          34.7620   -6.9800   30.5730 N.am      5 SEP2        0.0000 
      7 CA         33.8265   -8.1550   29.1210 C.3       3 GLC5        0.0000 
      8 CA         32.4810   -6.9760   27.7630 C.3       9 GLL5        0.0000 
      9 CA         35.1720   -9.3340   30.4790 C.3       6 GLP5        0.0000 
     10 CA         29.4475   -5.5720   30.2200 C.3       3 GLC5        0.0000 
     11 CA         30.5260   -7.0430   29.3300 C.3       9 GLL5        0.0000 
     12 CA         28.3690   -4.1010   31.1100 C.3       6 GLP5        0.0000 
     13 CA         30.3795   -6.9325   31.1895 C.3       3 GLC5        0.0000 
     14 CA         30.2330   -6.8220   33.0490 C.3       6 GLP5        0.0000 
     15 O          35.0785   -9.3350   24.1800 O.2       1 ALC1        0.0000 
     16 O          34.4830   -8.3890   25.3680 O.2       7 ALL1        0.0000 
     17 O          35.6740  -10.2810   22.9920 O.2       4 ALP1        0.0000 
     18 CA         33.2345  -10.0790   23.0190 C.3       3 GLC5        0.0000 
     19 CA         32.6870   -9.9940   25.0940 C.3       9 GLL5        0.0000 
     20 CA         33.7820  -10.1640   20.9440 C.3       6 GLP5        0.0000 
     21 CA         33.2975  -14.0325   29.3470 C.3       3 GLC5        0.0000 
     22 CA         32.5520  -14.2960   27.3330 C.3       9 GLL5        0.0000 
     23 CA         34.0430  -13.7690   31.3610 C.3       6 GLP5        0.0000 
     24 CA         32.3580  -15.7470   29.4765 C.3       3 GLC5        0.0000 
     25 CA         31.9450  -15.5370   27.5700 C.3       9 GLL5        0.0000 
     26 CA         32.7710  -15.9570   31.3830 C.3       6 GLP5        0.0000 
     27 O          34.0520  -18.3545   27.4190 O.2       1 ALC1        0.0000 
     28 O          33.8020  -17.0290   28.0980 O.2       7 ALL1        0.0000 
     29 O          34.3020  -19.6800   26.7400 O.2       4 ALP1        0.0000 
     30 N          31.4775  -19.0590   27.5450 N.am      2 SEC2        0.0000 
     31 N          31.5170  -17.7170   28.0110 N.am      8 SEL2        0.0000 
     32 N          31.4380  -20.4010   27.0790 N.am      5 SEP2        0.0000 
     33 O          29.2410  -17.9925   27.7910 O.2       1 ALC1        0.0000 
     34 O          30.3150  -17.0300   27.7230 O.2       7 ALL1        0.0000 
     35 O          28.1670  -18.9550   27.8590 O.2       4 ALP1        0.0000 
     36 CA         28.6430  -15.8025   25.6845 C.3       3 GLC5        0.0000 
     37 CA         29.7660  -14.6140   27.1010 C.3       9 GLL5        0.0000 
     38 CA         27.5200  -16.9910   24.2680 C.3       6 GLP5        0.0000 
     39 CA         32.9045   -4.8558   27.9260 C.3       3 GLC5        0.0000 
     40 CA         33.0160   -2.9590   28.6800 C.3       6 GLP5        0.0000 
     41 CA         31.9093   -4.5895   28.1375 C.3       3 GLC5        0.0000 
     42 CA         31.1560   -6.6210   28.0460 C.3       9 GLL5        0.0000 
     43 CA         32.6726   -6.3224   29.8161 C.3       3 GLC5        0.0000 
     44 CA         34.1730   -5.7240   31.0150 C.3       6 GLP5        0.0000 
     45 CA         30.8651   -8.5734   29.1301 C.3       3 GLC5        0.0000 
     46 CA         30.5580  -10.2260   29.6430 C.3       6 GLP5        0.0000 
     47 CA         28.7345   -6.7182   28.1375 C.3       3 GLC5        0.0000 
     48 CA         26.8240   -7.1110   28.3590 C.3       6 GLP5        0.0000 
     49 CA         32.3563   -4.2803   27.2357 C.3       3 GLC5        0.0000 
     50 CA         31.0380   -5.4210   25.9300 C.3       9 GLL5        0.0000 
     51 CA         30.9237   -9.7482   24.3238 C.3       3 GLC5        0.0000 
     52 CA         29.4820   -8.9150   23.3410 C.3       6 GLP5        0.0000 
     53 CA         32.9790  -13.0010   24.9907 C.3       3 GLC5        0.0000 
     54 CA         32.4820  -11.9010   26.6520 C.3       9 GLL5        0.0000 
     55 CA         33.6950  -14.4670   23.8960 C.3       6 GLP5        0.0000 
     56 CA         34.5677  -10.1082   28.7840 C.3       3 GLC5        0.0000 
     57 CA         33.6410  -11.4690   27.3070 C.3       9 GLL5        0.0000 
     58 CA         31.7550  -10.8640   28.1696 C.3       3 GLC5        0.0000 
     59 CA         31.8935  -14.7735   25.6770 C.3       3 GLC5        0.0000 
     60 CA         31.7620  -13.1780   26.9950 C.3       9 GLL5        0.0000 
     61 CA         31.6300  -15.8100   24.1900 C.3       6 GLP5        0.0000 
     62 CA         31.4438  -15.7180   25.8505 C.3       3 GLC5        0.0000 
     63 CA         30.5700  -15.7150   27.4520 C.3       9 GLL5        0.0000 
     64 CA         29.7144  -15.7625   28.8645 C.3       3 GLC5        0.0000 
     65 CA         28.9170  -16.4050   30.4230 C.3       6 GLP5        0.0000 
     66 CA         28.1155  -13.5678   27.6840 C.3       3 GLC5        0.0000 
     67 CA         26.1660  -13.1480   28.3890 C.3       6 GLP5        0.0000 
     68 CA         30.8475  -14.8987   25.5845 C.3       3 GLC5        0.0000 
     69 CA         30.4031  -13.4229   28.8392 C.3       3 GLC5        0.0000 
     70 CA         30.3640  -13.3610   26.8570 C.3       9 GLL5        0.0000 
     71 CA         30.0920  -12.4890   30.5350 C.3       6 GLP5        0.0000 
@<TRIPOS>BOND
@<TRIPOS>SUBSTRUCTURE
     1 ALC1       15 GROUP        1 X    ALC  0     ROOT ALC X 1
     2 SEC2        1 GROUP        1 X    SEC  0     **** SEC X 2
     3 GLC5        7 GROUP        1 X    GLC  0     **** GLC X 6
     4 ALP1       17 GROUP        1 Y    ALP  0     ROOT ALP Y 8
     5 SEP2        3 GROUP        1 Y    SEP  0     **** SEP Y 9
     6 GLP5        9 GROUP        1 Y    GLP  0     **** GLP Y 13
     7 ALL1       16 GROUP        1 Z    ALL  0     ROOT ALL Z 15
     8 SEL2        2 GROUP        1 Z    SEL  0     **** SEL Z 16
     9 GLL5        8 GROUP        1 Z    GLL  0     **** GLL Z 20
@<TRIPOS>SET

