#    Name: 4e20_0MY_1_ligand
#    Modification time : Mon Apr  7 23:15:27 2014

@<TRIPOS>MOLECULE
4e20_0MY_1_ligand
   42    45     1     0     0
SMALL
NO_CHARGES


@<TRIPOS>ATOM
      1 O2         35.3190   -5.9710   25.4640 O.2       1 0MY1201     0.0000 
      2 S1         34.6170   -7.0020   26.2220 S.o2      1 0MY1201     0.0000 
      3 O1         35.3480   -7.2750   27.4410 O.2       1 0MY1201     0.0000 
      4 C14        33.1050   -6.5290   26.5810 C.ar      1 0MY1201     0.0000 
      5 C17        32.4810   -6.9760   27.7630 C.ar      1 0MY1201     0.0000 
      6 C18        31.1560   -6.6210   28.0460 C.ar      1 0MY1201     0.0000 
      7 CL1        30.5260   -7.0430   29.3300 Cl        1 0MY1201     0.0000 
      8 C19        30.4490   -5.8190   27.1440 C.ar      1 0MY1201     0.0000 
      9 C16        31.0380   -5.4210   25.9300 C.ar      1 0MY1201     0.0000 
     10 C15        32.3550   -5.7820   25.6530 C.ar      1 0MY1201     0.0000 
     11 N4         34.4830   -8.3890   25.3680 N.pl3     1 0MY1201     0.0000 
     12 C11        33.8260   -9.5350   25.7740 C.ar      1 0MY1201     0.0000 
     13 C10        32.6870   -9.9940   25.0940 C.ar      1 0MY1201     0.0000 
     14 C9         32.0440  -11.1690   25.5190 C.ar      1 0MY1201     0.0000 
     15 C12        34.2860  -10.2960   26.8710 C.ar      1 0MY1201     0.0000 
     16 C13        33.6410  -11.4690   27.3070 C.ar      1 0MY1201     0.0000 
     17 C8         32.4820  -11.9010   26.6520 C.ar      1 0MY1201     0.0000 
     18 C1         31.7620  -13.1780   26.9950 C.ar      1 0MY1201     0.0000 
     19 C4         32.5520  -14.2960   27.3330 C.ar      1 0MY1201     0.0000 
     20 C6         31.9450  -15.5370   27.5700 C.ar      1 0MY1201     0.0000 
     21 C5         32.4670  -16.7810   27.8970 C.2       1 0MY1201     0.0000 
     22 N3         33.8020  -17.0290   28.0980 N.pl3     1 0MY1201     0.0000 
     23 N2         31.5170  -17.7170   28.0110 N.2       1 0MY1201     0.0000 
     24 C7         30.5700  -15.7150   27.4520 C.ar      1 0MY1201     0.0000 
     25 N1         30.3150  -17.0300   27.7230 N.pl3     1 0MY1201     0.0000 
     26 C3         29.7660  -14.6140   27.1010 C.ar      1 0MY1201     0.0000 
     27 C2         30.3640  -13.3610   26.8570 C.ar      1 0MY1201     0.0000 
     28 H          33.0054   -7.5667   28.4197 H         1 0MY1201     0.0000 
     29 H          29.4925   -5.5166   27.3664 H         1 0MY1201     0.0000 
     30 H          30.4980   -4.8703   25.2590 H         1 0MY1201     0.0000 
     31 H          32.7897   -5.5026   24.7624 H         1 0MY1201     0.0000 
     32 H          34.9672   -8.3068   24.4494 H         1 0MY1201     0.0000 
     33 H          32.3252   -9.4747   24.2906 H         1 0MY1201     0.0000 
     34 H          31.2225  -11.5165   24.9910 H         1 0MY1201     0.0000 
     35 H          35.1374   -9.9749   27.3771 H         1 0MY1201     0.0000 
     36 H          34.0181  -11.9970   28.0940 H         1 0MY1201     0.0000 
     37 H          33.5679  -14.1976   27.4043 H         1 0MY1201     0.0000 
     38 H          34.2496  -16.4816   28.8051 H         1 0MY1201     0.0000 
     39 H          34.2103  -17.7354   27.5197 H         1 0MY1201     0.0000 
     40 H          29.4498  -17.4535   27.7244 H         1 0MY1201     0.0000 
     41 H          28.7543  -14.7216   27.0233 H         1 0MY1201     0.0000 
     42 H          29.7781  -12.5644   26.5739 H         1 0MY1201     0.0000 
@<TRIPOS>BOND
     1    2    1 2    
     2    3    2 2    
     3    4    2 1    
     4   11    2 1    
     5    5    4 ar   
     6   10    4 ar   
     7    6    5 ar   
     8   28    5 1    
     9    7    6 1    
    10    8    6 ar   
    11    9    8 ar   
    12   29    8 1    
    13   10    9 ar   
    14   30    9 1    
    15   31   10 1    
    16   12   11 1    
    17   32   11 1    
    18   13   12 ar   
    19   15   12 ar   
    20   14   13 ar   
    21   33   13 1    
    22   17   14 ar   
    23   34   14 1    
    24   16   15 ar   
    25   35   15 1    
    26   17   16 ar   
    27   36   16 1    
    28   18   17 1    
    29   19   18 ar   
    30   27   18 ar   
    31   20   19 ar   
    32   37   19 1    
    33   21   20 1    
    34   24   20 ar   
    35   22   21 1    
    36   23   21 2    
    37   38   22 1    
    38   39   22 1    
    39   25   23 1    
    40   25   24 1    
    41   26   24 ar   
    42   40   25 1    
    43   27   26 ar   
    44   41   26 1    
    45   42   27 1    
@<TRIPOS>SUBSTRUCTURE
     1 0MY1201     1 GROUP   
@<TRIPOS>SET

