#    Name: 1z4m_U5P_1_INTS_M
#    Modification time : Mon Apr  7 16:25:13 2014

@<TRIPOS>MOLECULE
1z4m_U5P_1_INTS_M
   58     0    15     0     0
SMALL
NO_CHARGES


@<TRIPOS>ATOM
      1 CA          8.1110   38.1245   27.2985 C.3       5 GLC5        0.0000 
      2 CA          9.7460   38.7690   26.0250 C.3      15 GLL5        0.0000 
      3 CA          6.4760   37.4800   28.5720 C.3      10 GLP5        0.0000 
      4 CA          7.8180   39.8680   25.6965 C.3       5 GLC5        0.0000 
      5 CA          5.8900   40.9670   25.3680 C.3      10 GLP5        0.0000 
      6 CA          9.6125   40.7875   27.7585 C.3       5 GLC5        0.0000 
      7 CA         10.7340   39.6810   26.3940 C.3      15 GLL5        0.0000 
      8 CA          8.4910   41.8940   29.1230 C.3      10 GLP5        0.0000 
      9 N           6.7725   37.6600   24.3375 N.am      2 SEC2        0.0000 
     10 N           8.2960   38.0590   24.3580 N.am     12 SEL2        0.0000 
     11 N           5.2490   37.2610   24.3170 N.am      7 SEP2        0.0000 
     12 CA         10.6585   42.6735   28.4185 C.3       5 GLC5        0.0000 
     13 CA         12.0400   42.4520   27.1250 C.3      15 GLL5        0.0000 
     14 CA          9.2770   42.8950   29.7120 C.3      10 GLP5        0.0000 
     15 CA         11.5750   44.5305   27.8380 C.3       5 GLC5        0.0000 
     16 CA         11.1100   46.6090   28.5510 C.3      10 GLP5        0.0000 
     17 CA         12.5600   44.5560   28.6040 C.3       5 GLC5        0.0000 
     18 CA         13.4700   42.8750   27.4190 C.3      15 GLL5        0.0000 
     19 CA         11.6500   46.2370   29.7890 C.3      10 GLP5        0.0000 
     20 O          15.1905   44.0765   26.6940 O.2       1 ALC1        0.0000 
     21 O          13.8390   44.1260   26.8080 O.2      11 ALL1        0.0000 
     22 O          16.5420   44.0270   26.5800 O.2       6 ALP1        0.0000 
     23 CA         14.4000   41.4085   30.0210 C.3       5 GLC5        0.0000 
     24 CA         14.9970   40.9910   27.9440 C.3      15 GLL5        0.0000 
     25 CA         13.8030   41.8260   32.0980 C.3      10 GLP5        0.0000 
     26 CA         14.4545   39.1055   27.3995 C.3       5 GLC5        0.0000 
     27 CA         13.9120   37.2200   26.8550 C.3      10 GLP5        0.0000 
     28 N          14.7625   42.8375   29.9120 N.am      2 SEC2        0.0000 
     29 N          15.4160   41.8990   28.9940 N.am     12 SEL2        0.0000 
     30 N          14.1090   43.7760   30.8300 N.am      7 SEP2        0.0000 
     31 N          18.4405   40.4930   30.2745 N.am      2 SEC2        0.0000 
     32 N          17.7030   41.0730   29.1630 N.am     12 SEL2        0.0000 
     33 N          19.1780   39.9130   31.3860 N.am      7 SEP2        0.0000 
     34 N          18.4185   42.1935   28.4890 N.am      2 SEC2        0.0000 
     35 N          19.1340   43.3140   27.8150 N.am      7 SEP2        0.0000 
     36 NZ         16.2305   44.2670   30.9785 N.4       3 LYC4        0.0000 
     37 NZ         16.7820   42.5930   30.9550 N.4      13 LYL4        0.0000 
     38 NZ         15.6790   45.9410   31.0020 N.4       8 LYP4        0.0000 
     39 N          16.2785   42.3290   32.2250 N.am      2 SEC2        0.0000 
     40 N          16.7820   42.5930   30.9550 N.am     12 SEL2        0.0000 
     41 N          15.7750   42.0650   33.4950 N.am      7 SEP2        0.0000 
     42 N          17.4685   43.6630   30.6855 N.am      2 SEC2        0.0000 
     43 N          18.1550   44.7330   30.4160 N.am      7 SEP2        0.0000 
     44 Zn         15.9495   39.2210   31.1495 Zn        4 ZIC7        0.0000 
     45 Zn         15.9810   40.1490   30.6830 Zn       14 ZIL7        0.0000 
     46 Zn         15.9180   38.2930   31.6160 Zn        9 ZIP7        0.0000 
     47 N          17.5795   40.0310   31.0345 N.am      2 SEC2        0.0000 
     48 N          15.9810   40.1490   30.6830 N.am     12 SEL2        0.0000 
     49 CA         11.8000   37.9745   25.9442 C.3       5 GLC5        0.0000 
     50 CA         13.3600   36.7240   25.6790 C.3      10 GLP5        0.0000 
     51 CA         10.6245   38.1865   24.4733 C.3       5 GLC5        0.0000 
     52 CA         11.0090   37.1480   22.7370 C.3      10 GLP5        0.0000 
     53 CA         12.2055   43.8751   25.9187 C.3       5 GLC5        0.0000 
     54 CA         12.1960   41.6230   25.8510 C.3      15 GLL5        0.0000 
     55 CA         11.6170   45.2940   24.8840 C.3      10 GLP5        0.0000 
     56 CA         16.6335   41.7657   26.5373 C.3       5 GLC5        0.0000 
     57 CA         14.3250   41.7780   26.8190 C.3      15 GLL5        0.0000 
     58 CA         18.6060   42.1470   25.6930 C.3      10 GLP5        0.0000 
@<TRIPOS>BOND
@<TRIPOS>SUBSTRUCTURE
     1 ALC1       20 GROUP        1 X    ALC  0     ROOT ALC X 1
     2 SEC2        9 GROUP        1 X    SEC  0     **** SEC X 2
     3 LYC4       36 GROUP        1 X    LYC  0     **** LYC X 4
     4 ZIC7       44 GROUP        1 X    ZIC  0     **** ZIC X 5
     5 GLC5        1 GROUP        1 X    GLC  0     **** GLC X 6
     6 ALP1       22 GROUP        1 Y    ALP  0     ROOT ALP Y 8
     7 SEP2       11 GROUP        1 Y    SEP  0     **** SEP Y 9
     8 LYP4       38 GROUP        1 Y    LYP  0     **** LYP Y 11
     9 ZIP7       46 GROUP        1 Y    ZIP  0     **** ZIP Y 12
    10 GLP5        3 GROUP        1 Y    GLP  0     **** GLP Y 13
    11 ALL1       21 GROUP        1 Z    ALL  0     ROOT ALL Z 15
    12 SEL2       10 GROUP        1 Z    SEL  0     **** SEL Z 16
    13 LYL4       37 GROUP        1 Z    LYL  0     **** LYL Z 18
    14 ZIL7       45 GROUP        1 Z    ZIL  0     **** ZIL Z 19
    15 GLL5        2 GROUP        1 Z    GLL  0     **** GLL Z 20
@<TRIPOS>SET

