#    Name: 1z4m_U5P_1_ligand
#    Modification time : Mon Apr  7 16:25:13 2014

@<TRIPOS>MOLECULE
1z4m_U5P_1_ligand
   32    33     1     0     0
SMALL
NO_CHARGES


@<TRIPOS>ATOM
      1 N1         11.1400   40.6420   25.5290 N.am      1 U5P1001     0.0000 
      2 C2         10.5690   40.6870   24.2280 C.2       1 U5P1001     0.0000 
      3 N3          9.6130   39.8080   23.8850 N.am      1 U5P1001     0.0000 
      4 C4          9.1900   38.8600   24.7390 C.2       1 U5P1001     0.0000 
      5 C5          9.7460   38.7690   26.0250 C.2       1 U5P1001     0.0000 
      6 C6         10.7340   39.6810   26.3940 C.2       1 U5P1001     0.0000 
      7 O2         10.9170   41.5620   23.3910 O.2       1 U5P1001     0.0000 
      8 O4          8.2960   38.0590   24.3580 O.2       1 U5P1001     0.0000 
      9 C1'        12.1960   41.6230   25.8510 C.3       1 U5P1001     0.0000 
     10 C2'        12.0400   42.4520   27.1250 C.3       1 U5P1001     0.0000 
     11 O2'        11.2060   43.5980   26.9520 O.3       1 U5P1001     0.0000 
     12 C3'        13.4700   42.8750   27.4190 C.3       1 U5P1001     0.0000 
     13 C4'        14.3250   41.7780   26.8190 C.3       1 U5P1001     0.0000 
     14 O3'        13.8390   44.1260   26.8080 O.3       1 U5P1001     0.0000 
     15 O4'        13.4470   40.9490   26.0350 O.3       1 U5P1001     0.0000 
     16 C5'        14.9970   40.9910   27.9440 C.3       1 U5P1001     0.0000 
     17 O5'        15.4160   41.8990   28.9940 O.3       1 U5P1001     0.0000 
     18 P          16.5240   41.4090   30.0560 P.3       1 U5P1001     0.0000 
     19 O1P        17.7030   41.0730   29.1630 O.co2     1 U5P1001     0.0000 
     20 O2P        16.7820   42.5930   30.9550 O.co2     1 U5P1001     0.0000 
     21 O3P        15.9810   40.1490   30.6830 O.co2     1 U5P1001     0.0000 
     22 H           9.1839   39.8626   22.9233 H         1 U5P1001     0.0000 
     23 H           9.4313   38.0504   26.6714 H         1 U5P1001     0.0000 
     24 H          11.1504   39.6090   27.3410 H         1 U5P1001     0.0000 
     25 H          12.3188   42.3327   25.0215 H         1 U5P1001     0.0000 
     26 H          11.7267   41.8031   27.9070 H         1 U5P1001     0.0000 
     27 H          13.6238   42.8683   28.4732 H         1 U5P1001     0.0000 
     28 H          15.0781   42.2345   26.2109 H         1 U5P1001     0.0000 
     29 H          15.8499   40.4542   27.5204 H         1 U5P1001     0.0000 
     30 H          14.2805   40.2553   28.3187 H         1 U5P1001     0.0000 
     31 H          11.8104   44.3817   27.0950 H         1 U5P1001     0.0000 
     32 H          14.8319   44.1822   26.9130 H         1 U5P1001     0.0000 
@<TRIPOS>BOND
     1    2    1 1    
     2    6    1 1    
     3    9    1 1    
     4    3    2 1    
     5    7    2 2    
     6    4    3 1    
     7   22    3 1    
     8    5    4 1    
     9    8    4 2    
    10    6    5 2    
    11   23    5 1    
    12   24    6 1    
    13   10    9 1    
    14   15    9 1    
    15   25    9 1    
    16   11   10 1    
    17   12   10 1    
    18   26   10 1    
    19   31   11 1    
    20   13   12 1    
    21   14   12 1    
    22   27   12 1    
    23   15   13 1    
    24   16   13 1    
    25   28   13 1    
    26   32   14 1    
    27   17   16 1    
    28   29   16 1    
    29   30   16 1    
    30   18   17 1    
    31   19   18 ar   
    32   20   18 ar   
    33   21   18 ar   
@<TRIPOS>SUBSTRUCTURE
     1 U5P1001     1 GROUP   
@<TRIPOS>SET

