#    Name: 2ZT6_1_CAVITY_N1_6.mol2
#    Modification time : Tue Mar 11 06:21:38 2014

@<TRIPOS>MOLECULE
2ZT6_1_CAVITY_N1_6.mol2
  205     0     7     0     0
SMALL
NO_CHARGES


@<TRIPOS>ATOM
      1 CA         35.6745  -15.8271   82.2094 C.3       6 GLY6        0.0000 
      2 N          35.9666  -14.7544   81.2024 N.2       2 ALA2        0.0000 
      3 N          36.2587  -13.6817   80.1954 N.2       2 ALA2        0.0000 
      4 CZ         36.5508  -12.6090   79.1884 C.ar      5 PHE5        0.0000 
      5 DU         36.0592  -16.8737   81.2061 H         7 CUB7        0.0000 
      6 N          36.3513  -15.8010   80.1991 N.2       2 ALA2        0.0000 
      7 N          36.6434  -14.7283   79.1921 N.2       2 ALA2        0.0000 
      8 O          36.9355  -13.6556   78.1851 O.2       2 ALA2        0.0000 
      9 DU         36.4440  -17.9203   80.2028 H         7 CUB7        0.0000 
     10 N          36.7361  -16.8476   79.1958 N.2       2 ALA2        0.0000 
     11 DU         36.8287  -18.9669   79.1995 H         7 CUB7        0.0000 
     12 NZ         37.1208  -17.8942   78.1925 N.2       4 LYS4        0.0000 
     13 NZ         36.9213  -21.0862   79.2031 N.2       4 LYS4        0.0000 
     14 NZ         37.2134  -20.0135   78.1962 N.2       4 LYS4        0.0000 
     15 NZ         37.5981  -21.0601   77.1929 N.2       4 LYS4        0.0000 
     16 CA         34.1618  -13.7707   81.7268 C.3       6 GLY6        0.0000 
     17 CZ         34.4539  -12.6980   80.7198 C.ar      5 PHE5        0.0000 
     18 CA         33.9623  -16.9627   82.7374 C.3       6 GLY6        0.0000 
     19 CA         34.2544  -15.8900   81.7305 C.3       6 GLY6        0.0000 
     20 DU         34.5465  -14.8173   80.7235 H         7 CUB7        0.0000 
     21 CZ         34.8386  -13.7446   79.7165 C.ar      5 PHE5        0.0000 
     22 N          34.3471  -18.0093   81.7341 N.2       2 ALA2        0.0000 
     23 DU         34.6391  -16.9366   80.7272 H         7 CUB7        0.0000 
     24 DU         34.9312  -15.8639   79.7202 H         7 CUB7        0.0000 
     25 DU         35.2233  -14.7912   78.7132 H         7 CUB7        0.0000 
     26 CZ         35.5154  -13.7185   77.7062 C.ar      5 PHE5        0.0000 
     27 N          34.4397  -20.1286   81.7378 N.2       2 ALA2        0.0000 
     28 DU         34.7318  -19.0559   80.7308 H         7 CUB7        0.0000 
     29 DU         35.0239  -17.9832   79.7238 H         7 CUB7        0.0000 
     30 NZ         35.3160  -16.9105   78.7169 N.2       4 LYS4        0.0000 
     31 NZ         35.6080  -15.8378   77.7099 N.2       4 LYS4        0.0000 
     32 NZ         35.9001  -14.7651   76.7029 N.2       4 LYS4        0.0000 
     33 CA         34.8244  -21.1752   80.7345 C.3       6 GLY6        0.0000 
     34 NZ         35.1165  -20.1025   79.7275 N.2       4 LYS4        0.0000 
     35 DU         35.4086  -19.0298   78.7205 H         7 CUB7        0.0000 
     36 O          35.7933  -20.0764   77.7172 O.2       2 ALA2        0.0000 
     37 O          36.0854  -19.0037   76.7103 O.2       2 ALA2        0.0000 
     38 CA         32.3570  -12.7870   82.2512 C.3       6 GLY6        0.0000 
     39 CA         32.7417  -13.8336   81.2479 C.3       6 GLY6        0.0000 
     40 OG         33.0338  -12.7609   80.2409 O.2       1 SER1        0.0000 
     41 N          32.5422  -17.0256   82.2585 N.2       2 ALA2        0.0000 
     42 CA         32.8343  -15.9529   81.2515 C.3       6 GLY6        0.0000 
     43 DU         33.1264  -14.8802   80.2446 H         7 CUB7        0.0000 
     44 CZ         33.4185  -13.8075   79.2376 C.ar      5 PHE5        0.0000 
     45 N          32.9270  -18.0722   81.2552 N.2       2 ALA2        0.0000 
     46 DU         33.2191  -16.9995   80.2482 H         7 CUB7        0.0000 
     47 DU         33.8032  -14.8541   78.2343 H         7 CUB7        0.0000 
     48 CZ         34.0953  -13.7814   77.2273 C.ar      5 PHE5        0.0000 
     49 CA         33.0196  -20.1915   81.2589 C.3       6 GLY6        0.0000 
     50 DU         33.3117  -19.1188   80.2519 H         7 CUB7        0.0000 
     51 DU         33.8959  -16.9734   78.2379 H         7 CUB7        0.0000 
     52 DU         34.1879  -15.9007   77.2310 H         7 CUB7        0.0000 
     53 CA         34.4800  -14.8280   76.2240 C.3       6 GLY6        0.0000 
     54 CA         34.7721  -13.7553   75.2170 C.3       6 GLY6        0.0000 
     55 NZ         33.4043  -21.2381   80.2556 N.2       4 LYS4        0.0000 
     56 NZ         33.6964  -20.1654   79.2486 N.2       4 LYS4        0.0000 
     57 O          33.9885  -19.0927   78.2416 O.2       2 ALA2        0.0000 
     58 O          34.2806  -18.0200   77.2346 O.2       2 ALA2        0.0000 
     59 NZ         34.5727  -16.9473   76.2277 N.2       4 LYS4        0.0000 
     60 NZ         34.8648  -15.8746   75.2207 N.2       4 LYS4        0.0000 
     61 O          34.3732  -20.1393   77.2383 O.2       2 ALA2        0.0000 
     62 CA         30.7374  -16.0419   82.7829 C.3       6 GLY6        0.0000 
     63 CA         31.0295  -14.9692   81.7759 C.3       6 GLY6        0.0000 
     64 OG         31.3216  -13.8965   80.7689 O.2       1 SER1        0.0000 
     65 OG         31.6137  -12.8238   79.7620 O.2       1 SER1        0.0000 
     66 CZ         31.9058  -11.7511   78.7550 C.ar      5 PHE5        0.0000 
     67 DU         31.1221  -17.0885   81.7796 H         7 CUB7        0.0000 
     68 DU         31.4142  -16.0158   80.7726 H         7 CUB7        0.0000 
     69 DU         31.7063  -14.9431   79.7656 H         7 CUB7        0.0000 
     70 O          31.9984  -13.8704   78.7586 O.2       2 ALA2        0.0000 
     71 O          32.2905  -12.7977   77.7517 O.2       2 ALA2        0.0000 
     72 NZ         31.2148  -19.2077   81.7833 N.2       4 LYS4        0.0000 
     73 DU         31.5069  -18.1351   80.7763 H         7 CUB7        0.0000 
     74 DU         31.7990  -17.0624   79.7693 H         7 CUB7        0.0000 
     75 DU         32.0910  -15.9897   78.7623 H         7 CUB7        0.0000 
     76 O          32.3831  -14.9170   77.7553 O.2       2 ALA2        0.0000 
     77 NZ         31.5995  -20.2544   80.7800 N.2       4 LYS4        0.0000 
     78 DU         31.8916  -19.1817   79.7730 H         7 CUB7        0.0000 
     79 DU         32.1837  -18.1090   78.7660 H         7 CUB7        0.0000 
     80 DU         32.4758  -17.0363   77.7590 H         7 CUB7        0.0000 
     81 O          32.7678  -15.9636   76.7520 O.2       2 ALA2        0.0000 
     82 O          33.0599  -14.8909   75.7451 O.2       2 ALA2        0.0000 
     83 NZ         31.9842  -21.3010   79.7767 N.2       4 LYS4        0.0000 
     84 NZ         32.2763  -20.2283   78.7697 N.2       4 LYS4        0.0000 
     85 DU         32.5684  -19.1556   77.7627 H         7 CUB7        0.0000 
     86 O          32.8605  -18.0829   76.7557 O.2       2 ALA2        0.0000 
     87 O          33.1526  -17.0102   75.7487 O.2       2 ALA2        0.0000 
     88 O          33.4447  -15.9375   74.7418 O.2       2 ALA2        0.0000 
     89 NZ         33.7367  -14.8648   73.7348 N.2       4 LYS4        0.0000 
     90 NZ         32.6610  -21.2749   77.7664 N.2       4 LYS4        0.0000 
     91 O          32.9531  -20.2022   76.7594 O.2       2 ALA2        0.0000 
     92 O          33.5373  -18.0568   74.7454 O.2       2 ALA2        0.0000 
     93 O          33.8294  -16.9841   73.7384 O.2       2 ALA2        0.0000 
     94 CA         28.9326  -15.0581   83.3073 C.3       6 GLY6        0.0000 
     95 OG         30.1010  -10.7674   79.2793 O.2       1 SER1        0.0000 
     96 N          29.3173  -16.1047   82.3040 N.2       2 ALA2        0.0000 
     97 OG         29.6094  -15.0321   81.2970 O.2       1 SER1        0.0000 
     98 OG         29.9015  -13.9594   80.2900 O.2       1 SER1        0.0000 
     99 OG         30.1936  -12.8867   79.2830 O.2       1 SER1        0.0000 
    100 O          30.4857  -11.8140   78.2760 O.2       2 ALA2        0.0000 
    101 N          29.7020  -17.1514   81.3007 N.2       2 ALA2        0.0000 
    102 DU         29.9941  -16.0787   80.2937 H         7 CUB7        0.0000 
    103 DU         30.2862  -15.0060   79.2867 H         7 CUB7        0.0000 
    104 O          30.5783  -13.9333   78.2797 O.2       2 ALA2        0.0000 
    105 NZ         30.0868  -18.1980   80.2974 N.2       4 LYS4        0.0000 
    106 NZ         30.3789  -17.1253   79.2904 N.2       4 LYS4        0.0000 
    107 NZ         30.6709  -16.0526   78.2834 N.2       4 LYS4        0.0000 
    108 O          30.9630  -14.9799   77.2764 O.2       2 ALA2        0.0000 
    109 NZ         30.1794  -20.3172   80.3010 N.2       4 LYS4        0.0000 
    110 NZ         30.4715  -19.2446   79.2941 N.2       4 LYS4        0.0000 
    111 NZ         30.7636  -18.1719   78.2871 N.2       4 LYS4        0.0000 
    112 NZ         31.0557  -17.0992   77.2801 N.2       4 LYS4        0.0000 
    113 O          31.3478  -16.0265   76.2731 O.2       2 ALA2        0.0000 
    114 NZ         30.5641  -21.3638   79.2977 N.2       4 LYS4        0.0000 
    115 NZ         30.8562  -20.2912   78.2908 N.2       4 LYS4        0.0000 
    116 NZ         31.1483  -19.2185   77.2838 N.2       4 LYS4        0.0000 
    117 NZ         31.4404  -18.1458   76.2768 N.2       4 LYS4        0.0000 
    118 DU         31.7325  -17.0731   75.2698 H         7 CUB7        0.0000 
    119 O          32.0246  -16.0004   74.2628 O.2       2 ALA2        0.0000 
    120 NZ         32.3166  -14.9277   73.2558 N.2       4 LYS4        0.0000 
    121 O          31.8251  -19.1924   75.2735 O.2       2 ALA2        0.0000 
    122 O          32.1172  -18.1197   74.2665 O.2       2 ALA2        0.0000 
    123 O          32.4093  -17.0470   73.2595 O.2       2 ALA2        0.0000 
    124 NZ         32.7014  -15.9743   72.2525 N.2       4 LYS4        0.0000 
    125 OG         27.4199  -13.0017   82.8247 O.2       1 SER1        0.0000 
    126 CA         27.5125  -15.1210   82.8284 C.3       6 GLY6        0.0000 
    127 OG         27.8046  -14.0484   81.8214 O.2       1 SER1        0.0000 
    128 OG         28.0967  -12.9757   80.8144 O.2       1 SER1        0.0000 
    129 OG         28.3888  -11.9030   79.8074 O.2       1 SER1        0.0000 
    130 OG         28.6809  -10.8303   78.8004 O.2       1 SER1        0.0000 
    131 NZ         27.8972  -16.1676   81.8251 N.2       4 LYS4        0.0000 
    132 NZ         28.1893  -15.0950   80.8181 N.2       4 LYS4        0.0000 
    133 OG         28.4814  -14.0223   79.8111 O.2       1 SER1        0.0000 
    134 OG         28.7735  -12.9496   78.8041 O.2       1 SER1        0.0000 
    135 O          29.0656  -11.8769   77.7971 O.2       2 ALA2        0.0000 
    136 NZ         28.2820  -17.2142   80.8218 N.2       4 LYS4        0.0000 
    137 NZ         28.5740  -16.1416   79.8148 N.2       4 LYS4        0.0000 
    138 NZ         28.8661  -15.0689   78.8078 N.2       4 LYS4        0.0000 
    139 O          29.1582  -13.9962   77.8008 O.2       2 ALA2        0.0000 
    140 NZ         28.6667  -18.2608   79.8184 N.2       4 LYS4        0.0000 
    141 O          29.5429  -15.0428   76.7975 O.2       2 ALA2        0.0000 
    142 NZ         28.7593  -20.3801   79.8221 N.2       4 LYS4        0.0000 
    143 NZ         29.9277  -16.0894   75.7942 N.2       4 LYS4        0.0000 
    144 O          30.2197  -15.0167   74.7872 O.2       2 ALA2        0.0000 
    145 O          29.1440  -21.4267   78.8188 O.2       2 ALA2        0.0000 
    146 NZ         30.0203  -18.2087   75.7979 N.2       4 LYS4        0.0000 
    147 O          30.3124  -17.1360   74.7909 O.2       2 ALA2        0.0000 
    148 O          30.6045  -16.0633   73.7839 O.2       2 ALA2        0.0000 
    149 O          30.8965  -14.9906   72.7769 O.2       2 ALA2        0.0000 
    150 NZ         31.1886  -13.9179   71.7699 N.2       4 LYS4        0.0000 
    151 NZ         31.5734  -14.9645   70.7666 N.2       4 LYS4        0.0000 
    152 N          26.3845  -14.1112   81.3425 N.2       2 ALA2        0.0000 
    153 CA         26.6766  -13.0386   80.3355 C.3       6 GLY6        0.0000 
    154 OG         26.9687  -11.9659   79.3285 O.2       1 SER1        0.0000 
    155 NZ         26.7692  -15.1578   80.3392 N.2       4 LYS4        0.0000 
    156 NZ         27.0613  -14.0852   79.3322 N.2       4 LYS4        0.0000 
    157 OG         27.3534  -13.0125   78.3252 O.2       1 SER1        0.0000 
    158 OG         27.6455  -11.9398   77.3182 O.2       1 SER1        0.0000 
    159 NZ         27.7381  -14.0591   77.3219 N.2       4 LYS4        0.0000 
    160 O          28.0302  -12.9864   76.3149 O.2       2 ALA2        0.0000 
    161 O          28.3223  -11.9137   75.3079 O.2       2 ALA2        0.0000 
    162 NZ         28.1228  -15.1057   76.3186 N.2       4 LYS4        0.0000 
    163 O          28.4149  -14.0330   75.3116 O.2       2 ALA2        0.0000 
    164 O          28.7070  -12.9603   74.3046 O.2       2 ALA2        0.0000 
    165 NZ         28.5076  -16.1523   75.3153 N.2       4 LYS4        0.0000 
    166 O          28.7996  -15.0796   74.3083 O.2       2 ALA2        0.0000 
    167 O          29.0917  -14.0069   73.3013 O.2       2 ALA2        0.0000 
    168 CZ         29.3838  -12.9342   72.2943 C.ar      5 PHE5        0.0000 
    169 O          28.8923  -17.1989   74.3120 O.2       2 ALA2        0.0000 
    170 O          29.7685  -13.9808   71.2910 O.2       2 ALA2        0.0000 
    171 CZ         30.0606  -12.9081   70.2840 C.ar      5 PHE5        0.0000 
    172 O          30.1533  -15.0274   70.2877 O.2       2 ALA2        0.0000 
    173 N          30.4453  -13.9547   69.2807 N.2       2 ALA2        0.0000 
    174 CA         25.6412  -14.1481   78.8532 C.3       6 GLY6        0.0000 
    175 OG         25.9333  -13.0754   77.8463 O.2       1 SER1        0.0000 
    176 NZ         26.3180  -14.1220   76.8430 N.2       4 LYS4        0.0000 
    177 OG         26.6101  -13.0493   75.8360 O.2       1 SER1        0.0000 
    178 CA         26.9022  -11.9766   74.8290 C.3       6 GLY6        0.0000 
    179 NZ         26.7027  -15.1686   75.8397 N.2       4 LYS4        0.0000 
    180 DU         26.9948  -14.0959   74.8327 H         7 CUB7        0.0000 
    181 CZ         27.2869  -13.0232   73.8257 C.ar      5 PHE5        0.0000 
    182 O          27.0875  -16.2152   74.8364 O.2       2 ALA2        0.0000 
    183 OD1        27.3795  -15.1425   73.8294 O.3       3 ASP3        0.0000 
    184 O          27.6716  -14.0698   72.8224 O.2       2 ALA2        0.0000 
    185 CZ         27.9637  -12.9971   71.8154 C.ar      5 PHE5        0.0000 
    186 O          28.3484  -14.0437   70.8121 O.2       2 ALA2        0.0000 
    187 CZ         28.6405  -12.9710   69.8051 C.ar      5 PHE5        0.0000 
    188 N          28.7332  -15.0903   69.8088 N.2       2 ALA2        0.0000 
    189 O          29.0252  -14.0176   68.8018 O.2       2 ALA2        0.0000 
    190 N          24.8979  -14.1849   76.3640 N.2       2 ALA2        0.0000 
    191 OG         25.1900  -13.1122   75.3571 O.2       1 SER1        0.0000 
    192 N          25.2826  -15.2315   75.3607 N.2       2 ALA2        0.0000 
    193 CA         25.5747  -14.1588   74.3538 C.3       6 GLY6        0.0000 
    194 CA         25.8668  -13.0861   73.3468 C.3       6 GLY6        0.0000 
    195 O          25.9594  -15.2054   73.3504 O.2       2 ALA2        0.0000 
    196 O          26.2515  -14.1327   72.3435 O.2       2 ALA2        0.0000 
    197 CZ         26.5436  -13.0600   71.3365 C.ar      5 PHE5        0.0000 
    198 O          26.9283  -14.1066   70.3332 O.2       2 ALA2        0.0000 
    199 CZ         27.2204  -13.0339   69.3262 C.ar      5 PHE5        0.0000 
    200 CA         27.6051  -14.0805   68.3229 C.3       6 GLY6        0.0000 
    201 N          24.1546  -14.2217   73.8748 N.2       2 ALA2        0.0000 
    202 CA         24.8314  -14.1956   71.8645 C.3       6 GLY6        0.0000 
    203 CA         25.1235  -13.1229   70.8576 C.3       6 GLY6        0.0000 
    204 CA         25.5082  -14.1695   69.8543 C.3       6 GLY6        0.0000 
    205 CA         25.8003  -13.0968   68.8473 C.3       6 GLY6        0.0000 
@<TRIPOS>BOND
@<TRIPOS>SUBSTRUCTURE
     1 SER1       40 GROUP   
     2 ALA2        2 GROUP   
     3 ASP3      183 GROUP   
     4 LYS4       12 GROUP   
     5 PHE5        4 GROUP   
     6 GLY6        1 GROUP   
     7 CUB7        5 GROUP   
@<TRIPOS>SET

