#    Name: 2zt6_APC_1_INTS_M
#    Modification time : Tue Mar 25 11:02:51 2014

@<TRIPOS>MOLECULE
2zt6_APC_1_INTS_M
   62     0    12     0     0
SMALL
NO_CHARGES


@<TRIPOS>ATOM
      1 NZ         32.3135  -18.7295   71.9785 N.4       3 LYC4        0.0000 
      2 NZ         31.7960  -18.4910   73.2330 N.4      11 LYL4        0.0000 
      3 NZ         32.8310  -18.9680   70.7240 N.4       7 LYP4        0.0000 
      4 N          30.5255  -17.7760   72.3920 N.am      2 SEC2        0.0000 
      5 N          31.7960  -18.4910   73.2330 N.am     10 SEL2        0.0000 
      6 N          29.2550  -17.0610   71.5510 N.am      6 SEP2        0.0000 
      7 NZ         33.9265  -20.0205   75.1490 N.4       3 LYC4        0.0000 
      8 NZ         32.6250  -19.4970   75.4410 N.4      11 LYL4        0.0000 
      9 NZ         35.8580  -20.0270   73.8110 N.4       7 LYP4        0.0000 
     10 N          33.9265  -20.0205   75.1490 N.am      2 SEC2        0.0000 
     11 N          32.6250  -19.4970   75.4410 N.am     10 SEL2        0.0000 
     12 N          35.2280  -20.5440   74.8570 N.am      6 SEP2        0.0000 
     13 NZ         30.4190  -12.9950   76.4270 N.4       3 LYC4        0.0000 
     14 NZ         29.7670  -13.3490   77.4080 N.4      11 LYL4        0.0000 
     15 NZ         31.3950  -11.4240   75.0310 N.4       7 LYP4        0.0000 
     16 N          30.4190  -12.9950   76.4270 N.am      2 SEC2        0.0000 
     17 N          29.7670  -13.3490   77.4080 N.am     10 SEL2        0.0000 
     18 N          31.0710  -12.6410   75.4460 N.am      6 SEP2        0.0000 
     19 CA         25.4880  -12.5340   78.1155 C.3       4 GLC5        0.0000 
     20 CA         26.8700  -13.6230   77.1840 C.3      12 GLL5        0.0000 
     21 CA         24.1060  -11.4450   79.0470 C.3       8 GLP5        0.0000 
     22 CA         25.5075  -16.5505   76.1555 C.3       4 GLC5        0.0000 
     23 CA         25.4950  -14.6700   75.2720 C.3      12 GLL5        0.0000 
     24 CA         25.5200  -18.4310   77.0390 C.3       8 GLP5        0.0000 
     25 O          26.7015  -17.0320   76.6015 O.2       1 ALC1        0.0000 
     26 O          25.5710  -16.0200   75.7360 O.2       9 ALL1        0.0000 
     27 O          27.8320  -18.0440   77.4670 O.2       5 ALP1        0.0000 
     28 O          25.9780  -16.6110   77.3105 O.2       1 ALC1        0.0000 
     29 O          26.3850  -17.2020   78.8850 O.2       5 ALP1        0.0000 
     30 CA         25.6540  -15.9425   72.3310 C.3       4 GLC5        0.0000 
     31 CA         25.6600  -14.5900   73.7560 C.3      12 GLL5        0.0000 
     32 CA         25.6480  -17.2950   70.9060 C.3       8 GLP5        0.0000 
     33 O          23.1500  -15.1165   73.7735 O.2       1 ALC1        0.0000 
     34 O          24.3720  -14.5710   73.1370 O.2       9 ALL1        0.0000 
     35 O          21.9280  -15.6620   74.4100 O.2       5 ALP1        0.0000 
     36 CA         26.8530  -11.7445   72.7045 C.3       4 GLC5        0.0000 
     37 CA         26.3470  -13.2340   73.5630 C.3      12 GLL5        0.0000 
     38 CA         27.3590  -10.2550   71.8460 C.3       8 GLP5        0.0000 
     39 CA         26.5410  -11.2725   74.1870 C.3       4 GLC5        0.0000 
     40 CA         26.7350   -9.3110   74.8110 C.3       8 GLP5        0.0000 
     41 CA         29.0030  -13.2300   68.2260 C.3       4 GLC5        0.0000 
     42 CA         29.5690  -14.0010   70.0140 C.3      12 GLL5        0.0000 
     43 CA         28.4370  -12.4590   66.4380 C.3       8 GLP5        0.0000 
     44 O          31.1910  -13.2260   68.7005 O.2       1 ALC1        0.0000 
     45 O          30.8650  -14.0940   69.7310 O.2       9 ALL1        0.0000 
     46 O          31.5170  -12.3580   67.6700 O.2       5 ALP1        0.0000 
     47 N          29.5405  -14.3085   67.6845 N.am      2 SEC2        0.0000 
     48 N          28.6510  -14.1030   69.0420 N.am     10 SEL2        0.0000 
     49 N          30.4300  -14.5140   66.3270 N.am      6 SEP2        0.0000 
     50 CA         27.8990  -13.2275   67.8740 C.3       4 GLC5        0.0000 
     51 CA         27.3610  -13.9960   69.3100 C.3      12 GLL5        0.0000 
     52 CA         27.0165  -11.9585   68.7210 C.3       4 GLC5        0.0000 
     53 CA         26.6720   -9.9210   68.1320 C.3       8 GLP5        0.0000 
     54 CA         26.1185  -15.3240   69.5375 C.3       4 GLC5        0.0000 
     55 CA         24.8760  -16.6520   69.7650 C.3       8 GLP5        0.0000 
     56 N          26.9905  -15.3505   70.7090 N.am      2 SEC2        0.0000 
     57 N          26.9220  -13.7830   70.5380 N.am     10 SEL2        0.0000 
     58 N          27.0590  -16.9180   70.8800 N.am      6 SEP2        0.0000 
     59 CA         26.7150  -15.4825   71.2325 C.3       4 GLC5        0.0000 
     60 CA         27.7820  -13.6700   71.5590 C.3      12 GLL5        0.0000 
     61 CA         24.3242  -13.1710   73.0298 C.3       4 GLC5        0.0000 
     62 CA         22.6450  -12.4300   72.4000 C.3       8 GLP5        0.0000 
@<TRIPOS>BOND
@<TRIPOS>SUBSTRUCTURE
     1 ALC1       25 GROUP        1 X    ALC  0     ROOT ALC X 1
     2 SEC2        4 GROUP        1 X    SEC  0     **** SEC X 2
     3 LYC4        1 GROUP        1 X    LYC  0     **** LYC X 4
     4 GLC5       19 GROUP        1 X    GLC  0     **** GLC X 6
     5 ALP1       27 GROUP        1 Y    ALP  0     ROOT ALP Y 8
     6 SEP2        6 GROUP        1 Y    SEP  0     **** SEP Y 9
     7 LYP4        3 GROUP        1 Y    LYP  0     **** LYP Y 11
     8 GLP5       21 GROUP        1 Y    GLP  0     **** GLP Y 13
     9 ALL1       26 GROUP        1 Z    ALL  0     ROOT ALL Z 15
    10 SEL2        5 GROUP        1 Z    SEL  0     **** SEL Z 16
    11 LYL4        2 GROUP        1 Z    LYL  0     **** LYL Z 18
    12 GLL5       20 GROUP        1 Z    GLL  0     **** GLL Z 20
@<TRIPOS>SET

