#    Name: 2zt6_APC_1_ligand
#    Modification time : Tue Mar 25 11:02:51 2014

@<TRIPOS>MOLECULE
2zt6_APC_1_ligand
   45    47     1     0     0
SMALL
NO_CHARGES


@<TRIPOS>ATOM
      1 PG         31.6290  -18.4700   74.7030 P.3       1 APC699      0.0000 
      2 O1G        30.1410  -18.8950   75.1490 O.co2     1 APC699      0.0000 
      3 O2G        31.7960  -18.4910   73.2330 O.co2     1 APC699      0.0000 
      4 O3G        32.6250  -19.4970   75.4410 O.co2     1 APC699      0.0000 
      5 PB         31.2320  -16.6410   76.7660 P.3       1 APC699      0.0000 
      6 O1B        32.1530  -15.4650   77.3670 O.co2     1 APC699      0.0000 
      7 O2B        31.1540  -17.8060   77.6750 O.co2     1 APC699      0.0000 
      8 O3B        31.9000  -17.0230   75.3520 O.3       1 APC699      0.0000 
      9 PA         29.2090  -14.6910   77.6850 P.3       1 APC699      0.0000 
     10 O1A        29.7580  -15.3170   79.0640 O.co2     1 APC699      0.0000 
     11 O2A        29.7670  -13.3490   77.4080 O.co2     1 APC699      0.0000 
     12 C3A        29.6220  -15.8990   76.4030 C.3       1 APC699      0.0000 
     13 O5'        27.6050  -14.6690   77.8260 O.3       1 APC699      0.0000 
     14 C5'        26.8700  -13.6230   77.1840 C.3       1 APC699      0.0000 
     15 C4'        26.7450  -13.8960   75.6850 C.3       1 APC699      0.0000 
     16 O4'        26.5990  -12.7170   74.8820 O.3       1 APC699      0.0000 
     17 C3'        25.4950  -14.6700   75.2720 C.3       1 APC699      0.0000 
     18 O3'        25.5710  -16.0200   75.7360 O.3       1 APC699      0.0000 
     19 C2'        25.6600  -14.5900   73.7560 C.3       1 APC699      0.0000 
     20 O2'        24.3720  -14.5710   73.1370 O.3       1 APC699      0.0000 
     21 C1'        26.3470  -13.2340   73.5630 C.3       1 APC699      0.0000 
     22 N9         27.6330  -13.4490   72.8620 N.pl3     1 APC699      0.0000 
     23 C8         28.8430  -13.4280   73.4160 C.2       1 APC699      0.0000 
     24 N7         29.7690  -13.6280   72.4810 N.2       1 APC699      0.0000 
     25 C5         29.1440  -13.7810   71.3170 C.ar      1 APC699      0.0000 
     26 C6         29.5690  -14.0010   70.0140 C.ar      1 APC699      0.0000 
     27 N6         30.8650  -14.0940   69.7310 N.pl3     1 APC699      0.0000 
     28 N1         28.6510  -14.1030   69.0420 N.ar      1 APC699      0.0000 
     29 C2         27.3610  -13.9960   69.3100 C.ar      1 APC699      0.0000 
     30 N3         26.9220  -13.7830   70.5380 N.ar      1 APC699      0.0000 
     31 C4         27.7820  -13.6700   71.5590 C.ar      1 APC699      0.0000 
     32 H          28.9275  -16.6500   76.4674 H         1 APC699      0.0000 
     33 H          29.7258  -15.3783   75.5263 H         1 APC699      0.0000 
     34 H          27.3624  -12.6479   77.3059 H         1 APC699      0.0000 
     35 H          25.8537  -13.5320   77.5928 H         1 APC699      0.0000 
     36 H          27.5960  -14.4665   75.3331 H         1 APC699      0.0000 
     37 H          24.6592  -14.1328   75.5529 H         1 APC699      0.0000 
     38 H          26.2931  -15.3461   73.4359 H         1 APC699      0.0000 
     39 H          25.7080  -12.6075   73.0077 H         1 APC699      0.0000 
     40 H          29.0250  -13.2865   74.3697 H         1 APC699      0.0000 
     41 H          31.4474  -14.4677   70.4529 H         1 APC699      0.0000 
     42 H          31.1403  -13.7819   68.8217 H         1 APC699      0.0000 
     43 H          26.6589  -14.0836   68.5171 H         1 APC699      0.0000 
     44 H          26.2813  -16.0120   76.4399 H         1 APC699      0.0000 
     45 H          23.7229  -14.4869   73.8930 H         1 APC699      0.0000 
@<TRIPOS>BOND
     1    2    1 ar   
     2    3    1 ar   
     3    4    1 ar   
     4    8    1 1    
     5    6    5 ar   
     6    7    5 ar   
     7    8    5 1    
     8   12    5 1    
     9   10    9 ar   
    10   11    9 ar   
    11   12    9 1    
    12   13    9 1    
    13   32   12 1    
    14   33   12 1    
    15   14   13 1    
    16   15   14 1    
    17   34   14 1    
    18   35   14 1    
    19   16   15 1    
    20   17   15 1    
    21   36   15 1    
    22   21   16 1    
    23   18   17 1    
    24   19   17 1    
    25   37   17 1    
    26   44   18 1    
    27   20   19 1    
    28   21   19 1    
    29   38   19 1    
    30   45   20 1    
    31   22   21 1    
    32   39   21 1    
    33   23   22 1    
    34   31   22 1    
    35   24   23 2    
    36   40   23 1    
    37   25   24 1    
    38   26   25 ar   
    39   31   25 ar   
    40   27   26 1    
    41   28   26 ar   
    42   41   27 1    
    43   42   27 1    
    44   29   28 ar   
    45   30   29 ar   
    46   43   29 1    
    47   31   30 ar   
@<TRIPOS>SUBSTRUCTURE
     1 APC699      1 GROUP   
@<TRIPOS>SET

