#    Name: 3IGP_1_CAVITY_N1_ALL.mol2
#    Modification time : Tue Mar 11 02:37:33 2014

@<TRIPOS>MOLECULE
3IGP_1_CAVITY_N1_ALL.mol2
   96     0     6     0     0
SMALL
NO_CHARGES


@<TRIPOS>ATOM
      1 CA         -1.0751    7.1954   15.0033 C.3       5 GLY6        0.0000 
      2 CZ         -2.1696    8.2121   14.8670 C.ar      4 PHE5        0.0000 
      3 CA         -0.0796    5.8757   13.6739 C.3       5 GLY6        0.0000 
      4 CA         -1.1741    6.8923   13.5376 C.3       5 GLY6        0.0000 
      5 N           0.9158    4.5560   12.3444 N.2       2 ALA2        0.0000 
      6 N          -0.1787    5.5726   12.2081 N.2       2 ALA2        0.0000 
      7 DU         -1.2732    6.5892   12.0718 H         6 CUB7        0.0000 
      8 CA         -1.0015    5.1183   15.4279 C.3       5 GLY6        0.0000 
      9 CA         -2.0960    6.1350   15.2916 C.3       5 GLY6        0.0000 
     10 CZ         -3.1905    7.1516   15.1553 C.ar      4 PHE5        0.0000 
     11 N          -1.1006    4.8152   13.9622 N.2       2 ALA2        0.0000 
     12 DU         -2.1950    5.8318   13.8259 H         6 CUB7        0.0000 
     13 CZ         -3.2895    6.8485   13.6896 C.ar      4 PHE5        0.0000 
     14 N          -0.1051    3.4955   12.6327 N.2       2 ALA2        0.0000 
     15 OG         -1.1996    4.5121   12.4964 O.2       1 SER1        0.0000 
     16 DU         -2.2941    5.5287   12.3601 H         6 CUB7        0.0000 
     17 DU         -3.3886    6.5453   12.2238 H         6 CUB7        0.0000 
     18 CZ         -5.5776    8.5786   11.9512 C.ar      4 PHE5        0.0000 
     19 CZ         -0.2041    3.1924   11.1670 C.ar      4 PHE5        0.0000 
     20 DU         -1.2986    4.2090   11.0307 H         6 CUB7        0.0000 
     21 CA         -0.3032    2.8892    9.7013 C.3       5 GLY6        0.0000 
     22 O          -1.3976    3.9058    9.5650 O.2       2 ALA2        0.0000 
     23 CA         -2.0224    4.0579   15.7162 C.3       5 GLY6        0.0000 
     24 CA         -3.1169    5.0745   15.5799 C.3       5 GLY6        0.0000 
     25 CA         -4.2114    6.0911   15.4436 C.3       5 GLY6        0.0000 
     26 OG         -2.1215    3.7547   14.2504 O.2       1 SER1        0.0000 
     27 DU         -3.2160    4.7714   14.1141 H         6 CUB7        0.0000 
     28 CZ         -4.3105    5.7880   13.9779 C.ar      4 PHE5        0.0000 
     29 OG         -2.2205    3.4516   12.7847 O.2       1 SER1        0.0000 
     30 DU         -3.3150    4.4682   12.6484 H         6 CUB7        0.0000 
     31 DU         -4.4095    5.4849   12.5121 H         6 CUB7        0.0000 
     32 CZ         -5.5040    6.5015   12.3758 C.ar      4 PHE5        0.0000 
     33 CZ         -6.5985    7.5181   12.2395 C.ar      4 PHE5        0.0000 
     34 CA         -7.6930    8.5347   12.1032 C.3       5 GLY6        0.0000 
     35 OG         -1.2250    2.1319   11.4553 O.2       1 SER1        0.0000 
     36 OG         -2.3195    3.1485   11.3190 O.2       1 SER1        0.0000 
     37 DU         -3.4140    4.1651   11.1827 H         6 CUB7        0.0000 
     38 O          -4.5085    5.1817   11.0464 O.2       2 ALA2        0.0000 
     39 O          -5.6030    6.1983   10.9101 O.2       2 ALA2        0.0000 
     40 O          -6.6975    7.2150   10.7738 O.2       2 ALA2        0.0000 
     41 CA         -1.3241    1.8288    9.9896 C.3       5 GLY6        0.0000 
     42 O          -2.4186    2.8454    9.8533 O.2       2 ALA2        0.0000 
     43 O          -3.5131    3.8620    9.7170 O.2       2 ALA2        0.0000 
     44 O          -4.6076    4.8786    9.5807 O.2       2 ALA2        0.0000 
     45 CA         -4.1379    4.0140   15.8682 C.3       5 GLY6        0.0000 
     46 CA         -5.2324    5.0306   15.7319 C.3       5 GLY6        0.0000 
     47 CZ         -6.3268    6.0472   15.5956 C.ar      4 PHE5        0.0000 
     48 OG         -3.1424    2.6943   14.5387 O.2       1 SER1        0.0000 
     49 DU         -4.2369    3.7109   14.4024 H         6 CUB7        0.0000 
     50 DU         -5.3314    4.7275   14.2661 H         6 CUB7        0.0000 
     51 CZ         -6.4259    5.7441   14.1298 C.ar      4 PHE5        0.0000 
     52 OG         -3.2414    2.3911   13.0730 O.2       1 SER1        0.0000 
     53 DU         -4.3359    3.4078   12.9367 H         6 CUB7        0.0000 
     54 O          -5.4304    4.4244   12.8004 O.2       2 ALA2        0.0000 
     55 O          -6.5249    5.4410   12.6641 O.2       2 ALA2        0.0000 
     56 O          -7.6194    6.4576   12.5278 O.2       2 ALA2        0.0000 
     57 OG         -2.2460    1.0714   11.7436 O.2       1 SER1        0.0000 
     58 OG         -3.3405    2.0880   11.6073 O.2       1 SER1        0.0000 
     59 O          -4.4349    3.1046   11.4710 O.2       2 ALA2        0.0000 
     60 O          -2.3450    0.7683   10.2779 O.2       2 ALA2        0.0000 
     61 O          -3.4395    1.7849   10.1416 O.2       2 ALA2        0.0000 
     62 O          -4.5340    2.8015   10.0053 O.2       2 ALA2        0.0000 
     63 O          -4.0643    1.9369   16.2927 O.2       2 ALA2        0.0000 
     64 CA         -5.1588    2.9535   16.1565 C.3       5 GLY6        0.0000 
     65 CA         -6.2533    3.9702   16.0202 C.3       5 GLY6        0.0000 
     66 CA         -7.3478    4.9868   15.8839 C.3       5 GLY6        0.0000 
     67 OG         -4.1633    1.6338   14.8270 O.2       1 SER1        0.0000 
     68 DU         -5.2578    2.6504   14.6907 H         6 CUB7        0.0000 
     69 CA         -6.3523    3.6670   14.5544 C.3       5 GLY6        0.0000 
     70 CA         -7.4468    4.6836   14.4181 C.3       5 GLY6        0.0000 
     71 OG         -4.2623    1.3307   13.3613 O.2       1 SER1        0.0000 
     72 O          -5.3568    2.3473   13.2250 O.2       2 ALA2        0.0000 
     73 O          -6.4513    3.3639   13.0887 O.2       2 ALA2        0.0000 
     74 CA         -3.2669    0.0109   12.0319 C.3       5 GLY6        0.0000 
     75 N          -4.3614    1.0275   11.8956 N.2       2 ALA2        0.0000 
     76 O          -5.4559    2.0442   11.7593 O.2       2 ALA2        0.0000 
     77 CA         -2.2714   -1.3088   10.7025 C.3       5 GLY6        0.0000 
     78 CA         -3.3659   -0.2922   10.5662 C.3       5 GLY6        0.0000 
     79 O          -4.4604    0.7244   10.4299 O.2       2 ALA2        0.0000 
     80 N          -5.5549    1.7410   10.2936 N.2       2 ALA2        0.0000 
     81 O          -3.4649   -0.5953    9.1005 O.2       2 ALA2        0.0000 
     82 CA         -6.0807    2.1962   17.9105 C.3       5 GLY6        0.0000 
     83 CA         -7.1752    3.2128   17.7742 C.3       5 GLY6        0.0000 
     84 OD1        -5.0852    0.8764   16.5810 O.3       3 ASP3        0.0000 
     85 OD1        -6.1797    1.8931   16.4447 O.3       3 ASP3        0.0000 
     86 CA         -7.2742    2.9097   16.3084 C.3       5 GLY6        0.0000 
     87 OD1        -5.1842    0.5733   15.1153 O.3       3 ASP3        0.0000 
     88 N          -6.2787    1.5899   14.9790 N.2       2 ALA2        0.0000 
     89 CA         -7.3732    2.6066   14.8427 C.3       5 GLY6        0.0000 
     90 CA         -3.1933   -2.0662   12.4565 C.3       5 GLY6        0.0000 
     91 N          -4.2878   -1.0495   12.3202 N.2       2 ALA2        0.0000 
     92 N          -5.3823   -0.0329   12.1839 N.2       2 ALA2        0.0000 
     93 CA         -3.2923   -2.3693   10.9908 C.3       5 GLY6        0.0000 
     94 CA         -4.3868   -1.3527   10.8545 C.3       5 GLY6        0.0000 
     95 CA         -5.4813   -0.3361   10.7182 C.3       5 GLY6        0.0000 
     96 OD1        -7.2006    0.8326   16.7330 O.3       3 ASP3        0.0000 
@<TRIPOS>BOND
@<TRIPOS>SUBSTRUCTURE
     1 SER1       15 GROUP   
     2 ALA2        5 GROUP   
     3 ASP3       84 GROUP   
     4 PHE5        2 GROUP   
     5 GLY6        1 GROUP   
     6 CUB7        7 GROUP   
@<TRIPOS>SET

