#    Name: 3igp_DT7_1_INTS_M
#    Modification time : Tue Mar 25 16:31:03 2014

@<TRIPOS>MOLECULE
3igp_DT7_1_INTS_M
   32     0    12     0     0
SMALL
NO_CHARGES


@<TRIPOS>ATOM
      1 CA         -4.6490    8.4365   12.7830 C.3       4 GLC5        0.0000 
      2 CA         -4.0610    7.2340   11.1240 C.3      12 GLL5        0.0000 
      3 CA         -5.2370    9.6390   14.4420 C.3       8 GLP5        0.0000 
      4 CA          0.6515    5.1220   14.1810 C.3       4 GLC5        0.0000 
      5 CA         -0.2620    4.3570   12.5330 C.3      12 GLL5        0.0000 
      6 CA          1.5650    5.8870   15.8290 C.3       8 GLP5        0.0000 
      7 O          -4.4680   -1.2135   16.8785 O.2       1 ALC1        0.0000 
      8 O          -5.2910   -0.4010   16.1810 O.2       9 ALL1        0.0000 
      9 O          -3.6450   -2.0260   17.5760 O.2       5 ALP1        0.0000 
     10 Zn         -5.9945   -1.0090   15.7325 Zn        3 ZIC7        0.0000 
     11 Zn         -5.2910   -0.4010   16.1810 Zn       11 ZIL7        0.0000 
     12 Zn         -6.6980   -1.6170   15.2840 Zn        7 ZIP7        0.0000 
     13 N          -3.9415    0.7795   18.5680 N.am      2 SEC2        0.0000 
     14 N          -5.2360    1.2140   18.0710 N.am     10 SEL2        0.0000 
     15 N          -2.6470    0.3450   19.0650 N.am      6 SEP2        0.0000 
     16 CA         -2.1005    4.8520   15.9670 C.3       4 GLC5        0.0000 
     17 CA         -2.5690    3.8940   13.9890 C.3      12 GLL5        0.0000 
     18 CA         -1.6320    5.8100   17.9450 C.3       8 GLP5        0.0000 
     19 CA         -1.3510    2.0510   14.3475 C.3       4 GLC5        0.0000 
     20 CA         -0.1330    0.2080   14.7060 C.3       8 GLP5        0.0000 
     21 CA         -5.2380    4.2030   17.0075 C.3       4 GLC5        0.0000 
     22 CA         -6.4400    3.2210   15.5690 C.3      12 GLL5        0.0000 
     23 CA         -4.0360    5.1850   18.4460 C.3       8 GLP5        0.0000 
     24 CA         -3.9415    4.3480   16.3890 C.3       4 GLC5        0.0000 
     25 CA         -3.8470    3.5110   14.3320 C.3      12 GLL5        0.0000 
     26 CA         -2.6655    0.6720   14.6970 C.3       4 GLC5        0.0000 
     27 CA         -4.1050    2.1750   15.0780 C.3      12 GLL5        0.0000 
     28 CA         -1.2260   -0.8310   14.3160 C.3       8 GLP5        0.0000 
     29 Zn         -6.0030    0.3485   15.6080 Zn        3 ZIC7        0.0000 
     30 Zn         -5.3080    2.3140   15.9320 Zn       11 ZIL7        0.0000 
     31 CA         -8.2108    3.4407   14.8735 C.3       4 GLC5        0.0000 
     32 CA        -10.0370    3.2670   14.8220 C.3       8 GLP5        0.0000 
@<TRIPOS>BOND
@<TRIPOS>SUBSTRUCTURE
     1 ALC1        7 GROUP        1 X    ALC  0     ROOT ALC X 1
     2 SEC2       13 GROUP        1 X    SEC  0     **** SEC X 2
     3 ZIC7       10 GROUP        1 X    ZIC  0     **** ZIC X 5
     4 GLC5        1 GROUP        1 X    GLC  0     **** GLC X 6
     5 ALP1        9 GROUP        1 Y    ALP  0     ROOT ALP Y 8
     6 SEP2       15 GROUP        1 Y    SEP  0     **** SEP Y 9
     7 ZIP7       12 GROUP        1 Y    ZIP  0     **** ZIP Y 12
     8 GLP5        3 GROUP        1 Y    GLP  0     **** GLP Y 13
     9 ALL1        8 GROUP        1 Z    ALL  0     ROOT ALL Z 15
    10 SEL2       14 GROUP        1 Z    SEL  0     **** SEL Z 16
    11 ZIL7       11 GROUP        1 Z    ZIL  0     **** ZIL Z 19
    12 GLL5        2 GROUP        1 Z    GLL  0     **** GLL Z 20
@<TRIPOS>SET

