#    Name: 3igp_DT7_1_ligand
#    Modification time : Tue Mar 25 16:31:03 2014

@<TRIPOS>MOLECULE
3igp_DT7_1_ligand
   33    34     1     0     0
SMALL
NO_CHARGES


@<TRIPOS>ATOM
      1 CAA        -4.0610    7.2340   11.1240 C.3       1 DT7263      0.0000 
      2 CAB        -0.2620    4.3570   12.5330 C.3       1 DT7263      0.0000 
      3 NAD        -5.2910   -0.4010   16.1810 N.pl3     1 DT7263      0.0000 
      4 OAE        -5.2360    1.2140   18.0710 O.2       1 DT7263      0.0000 
      5 OAF        -7.3450    0.9480   16.7030 O.2       1 DT7263      0.0000 
      6 CAG        -4.7030    5.5210   13.2720 C.ar      1 DT7263      0.0000 
      7 CAH        -2.5690    3.8940   13.9890 C.ar      1 DT7263      0.0000 
      8 CAI        -6.3290    4.0080   14.2810 C.3       1 DT7263      0.0000 
      9 CAJ        -6.4400    3.2210   15.5690 C.3       1 DT7263      0.0000 
     10 OAK        -3.1710    7.0700   12.2540 O.3       1 DT7263      0.0000 
     11 OAL        -1.0760    5.4600   12.9630 O.3       1 DT7263      0.0000 
     12 CAM        -4.9130    4.3290   13.9690 C.ar      1 DT7263      0.0000 
     13 CAN        -3.4100    5.8970   12.9320 C.ar      1 DT7263      0.0000 
     14 CAO        -2.3460    5.0820   13.2960 C.ar      1 DT7263      0.0000 
     15 CAP        -3.8470    3.5110   14.3320 C.ar      1 DT7263      0.0000 
     16 CAQ        -4.1050    2.1750   15.0780 C.3       1 DT7263      0.0000 
     17 NAR        -5.3080    2.3140   15.9320 N.pl3     1 DT7263      0.0000 
     18 SAS        -5.8520    0.9620   16.7650 S.o2      1 DT7263      0.0000 
     19 H          -4.6326   -0.8878   16.7551 H         1 DT7263      0.0000 
     20 H          -5.4997    6.1115   13.0149 H         1 DT7263      0.0000 
     21 H          -1.7627    3.2988   14.2452 H         1 DT7263      0.0000 
     22 H          -6.9107    4.9324   14.3787 H         1 DT7263      0.0000 
     23 H          -6.7687    3.4198   13.4667 H         1 DT7263      0.0000 
     24 H          -7.3907    2.6209   15.5333 H         1 DT7263      0.0000 
     25 H          -6.6095    3.9473   16.4110 H         1 DT7263      0.0000 
     26 H          -3.2288    1.9490   15.6773 H         1 DT7263      0.0000 
     27 H          -4.2453    1.3960   14.3354 H         1 DT7263      0.0000 
     28 H          -3.8819    8.0852   10.6307 H         1 DT7263      0.0000 
     29 H          -3.9661    6.4878   10.4651 H         1 DT7263      0.0000 
     30 H          -5.0200    7.2552   11.4066 H         1 DT7263      0.0000 
     31 H           0.6642    4.6495   12.2952 H         1 DT7263      0.0000 
     32 H          -0.1756    3.6596   13.2445 H         1 DT7263      0.0000 
     33 H          -0.6434    3.9065   11.7258 H         1 DT7263      0.0000 
@<TRIPOS>BOND
     1   10    1 1    
     2   28    1 1    
     3   29    1 1    
     4   30    1 1    
     5   11    2 1    
     6   31    2 1    
     7   32    2 1    
     8   33    2 1    
     9   18    3 1    
    10   19    3 1    
    11   18    4 2    
    12   18    5 2    
    13   12    6 ar   
    14   13    6 ar   
    15   20    6 1    
    16   14    7 ar   
    17   15    7 ar   
    18   21    7 1    
    19    9    8 1    
    20   12    8 1    
    21   22    8 1    
    22   23    8 1    
    23   17    9 1    
    24   24    9 1    
    25   25    9 1    
    26   13   10 1    
    27   14   11 1    
    28   15   12 ar   
    29   14   13 ar   
    30   16   15 1    
    31   17   16 1    
    32   26   16 1    
    33   27   16 1    
    34   18   17 1    
@<TRIPOS>SUBSTRUCTURE
     1 DT7263      1 GROUP   
@<TRIPOS>SET

