#    Name: 4nb6_444_1_INTS_M
#    Modification time : Tue Mar 25 12:53:19 2014

@<TRIPOS>MOLECULE
4nb6_444_1_INTS_M
   70     0     3     0     0
SMALL
NO_CHARGES


@<TRIPOS>ATOM
      1 CA         30.8710   15.4610    0.3340 C.3       1 GLC5        0.0000 
      2 CA         30.3660   13.2890    0.4610 C.3       3 GLL5        0.0000 
      3 CA         31.3760   17.6330    0.2070 C.3       2 GLP5        0.0000 
      4 CA         32.2140    9.3295    0.3310 C.3       1 GLC5        0.0000 
      5 CA         31.9860    8.6820    2.0230 C.3       3 GLL5        0.0000 
      6 CA         32.4420    9.9770   -1.3610 C.3       2 GLP5        0.0000 
      7 CA         33.6710    7.5860    5.1945 C.3       1 GLC5        0.0000 
      8 CA         33.3370    7.5210    3.5680 C.3       3 GLL5        0.0000 
      9 CA         34.0050    7.6510    6.8210 C.3       2 GLP5        0.0000 
     10 CA         30.3500    7.4300    4.8595 C.3       1 GLC5        0.0000 
     11 CA         31.1810    6.8070    3.2460 C.3       3 GLL5        0.0000 
     12 CA         29.5190    8.0530    6.4730 C.3       2 GLP5        0.0000 
     13 CA         35.0030    9.9065    3.5750 C.3       1 GLC5        0.0000 
     14 CA         33.5930   10.9910    2.2450 C.3       3 GLL5        0.0000 
     15 CA         36.4130    8.8220    4.9050 C.3       2 GLP5        0.0000 
     16 CA         33.7670   10.0140    0.5795 C.3       1 GLC5        0.0000 
     17 CA         33.9410    9.0370   -1.0860 C.3       2 GLP5        0.0000 
     18 CA         34.5105   13.2045    0.7670 C.3       1 GLC5        0.0000 
     19 CA         34.4820   12.0460    2.3860 C.3       3 GLL5        0.0000 
     20 CA         34.5390   14.3630   -0.8520 C.3       2 GLP5        0.0000 
     21 CA         35.4825   17.5595    4.9265 C.3       1 GLC5        0.0000 
     22 CA         35.7230   16.3190    3.5590 C.3       3 GLL5        0.0000 
     23 CA         35.2420   18.8000    6.2940 C.3       2 GLP5        0.0000 
     24 CA         36.9140   15.9320    1.8535 C.3       1 GLC5        0.0000 
     25 CA         38.1050   15.5450    0.1480 C.3       2 GLP5        0.0000 
     26 CA         32.6420   16.5460    1.3440 C.3       1 GLC5        0.0000 
     27 CA         33.9080   15.4590    2.4810 C.3       3 GLL5        0.0000 
     28 CA         34.2235   14.9110    0.8145 C.3       1 GLC5        0.0000 
     29 CA         32.3705   14.6035    5.7095 C.3       1 GLC5        0.0000 
     30 CA         33.9810   15.4960    4.7610 C.3       3 GLL5        0.0000 
     31 CA         30.7600   13.7110    6.6580 C.3       2 GLP5        0.0000 
     32 CA         36.9360   11.3140    6.0695 C.3       1 GLC5        0.0000 
     33 CA         36.7800   12.6490    5.1260 C.3       3 GLL5        0.0000 
     34 CA         37.0920    9.9790    7.0130 C.3       2 GLP5        0.0000 
     35 CA         38.4285   12.0480    5.0445 C.3       1 GLC5        0.0000 
     36 CA         40.0770   11.4470    4.9630 C.3       2 GLP5        0.0000 
     37 CA         38.7500   13.1195    4.8045 C.3       1 GLC5        0.0000 
     38 CA         37.4230   14.7920    4.6460 C.3       3 GLL5        0.0000 
     39 CA         38.6820   14.9050    3.3080 C.3       1 GLC5        0.0000 
     40 CA         39.9410   15.0180    1.9700 C.3       2 GLP5        0.0000 
     41 CA         38.2125   15.3485    6.3500 C.3       1 GLC5        0.0000 
     42 CA         39.0020   15.9050    8.0540 C.3       2 GLP5        0.0000 
     43 CA         31.0435   10.4638   -0.1787 C.3       1 GLC5        0.0000 
     44 CA         29.9690   11.1840    1.5720 C.3       3 GLL5        0.0000 
     45 CA         30.9512   11.0753   -1.0185 C.3       1 GLC5        0.0000 
     46 CA         29.2000   11.5310   -0.6810 C.3       3 GLL5        0.0000 
     47 CA         28.0912   12.0137   -1.9550 C.3       1 GLC5        0.0000 
     48 CA         26.7220   11.8540   -3.2340 C.3       2 GLP5        0.0000 
     49 CA         31.4335   11.4298   -0.1707 C.3       1 GLC5        0.0000 
     50 CA         32.9552    7.1450    0.2928 C.3       1 GLC5        0.0000 
     51 CA         32.7370    6.4660    1.6110 C.3       3 GLL5        0.0000 
     52 CA         33.3820    7.3920   -1.5340 C.3       2 GLP5        0.0000 
     53 CA         33.1019    5.3796    3.4733 C.3       1 GLC5        0.0000 
     54 CA         32.3200    7.3300    2.6280 C.3       3 GLL5        0.0000 
     55 CA         33.8330    3.9680    4.5550 C.3       2 GLP5        0.0000 
     56 CA         34.4179    6.6824    2.1218 C.3       1 GLC5        0.0000 
     57 CA         36.0530    6.4190    1.8890 C.3       2 GLP5        0.0000 
     58 CA         31.9318   12.8610    5.5602 C.3       1 GLC5        0.0000 
     59 CA         32.6590   11.4850    4.3930 C.3       3 GLL5        0.0000 
     60 CA         33.9543   10.4835    5.6498 C.3       1 GLC5        0.0000 
     61 CA         33.5480   12.5370    4.5320 C.3       3 GLL5        0.0000 
     62 CA         34.8050    8.9560    6.8370 C.3       2 GLP5        0.0000 
     63 CA         34.6745   16.5135    5.5910 C.3       1 GLC5        0.0000 
     64 CA         34.9880   17.6140    7.0020 C.3       2 GLP5        0.0000 
     65 CA         35.7270   17.1829    2.5975 C.3       1 GLC5        0.0000 
     66 CA         36.8840   18.7240    2.1650 C.3       2 GLP5        0.0000 
     67 CA         35.6139   16.0109    6.1786 C.3       1 GLC5        0.0000 
     68 CA         35.6020   14.4450    5.9530 C.3       3 GLL5        0.0000 
     69 CA         36.5435   14.1895    7.0991 C.3       1 GLC5        0.0000 
     70 CA         37.0080   14.5070    8.7230 C.3       2 GLP5        0.0000 
@<TRIPOS>BOND
@<TRIPOS>SUBSTRUCTURE
     1 GLC5        1 GROUP        1 X    GLC  0     ROOT GLC X 6
     2 GLP5        3 GROUP        1 Y    GLP  0     ROOT GLP Y 13
     3 GLL5        2 GROUP        1 Z    GLL  0     ROOT GLL Z 20
@<TRIPOS>SET

