#    Name: 4nb6_444_1_ligand
#    Modification time : Tue Mar 25 12:53:20 2014

@<TRIPOS>MOLECULE
4nb6_444_1_ligand
   43    44     1     0     0
SMALL
NO_CHARGES


@<TRIPOS>ATOM
      1 O13        29.3380    8.9860    2.7400 O.2       1 444501      0.0000 
      2 S12        30.1350   10.1410    2.9970 S.o2      1 444501      0.0000 
      3 O14        29.8470   10.9870    4.1070 O.2       1 444501      0.0000 
      4 C01        29.9690   11.1840    1.5720 C.ar      1 444501      0.0000 
      5 C02        29.3210   10.7170    0.4350 C.ar      1 444501      0.0000 
      6 C03        29.2000   11.5310   -0.6810 C.ar      1 444501      0.0000 
      7 C04        29.7210   12.8160   -0.6710 C.ar      1 444501      0.0000 
      8 C05        30.3660   13.2890    0.4610 C.ar      1 444501      0.0000 
      9 C06        30.4840   12.4760    1.5780 C.ar      1 444501      0.0000 
     10 N15        31.7420    9.6370    3.1100 N.pl3     1 444501      0.0000 
     11 C16        31.9860    8.6820    2.0230 C.3       1 444501      0.0000 
     12 C19        32.3200    7.3300    2.6280 C.3       1 444501      0.0000 
     13 F22        33.3370    7.5210    3.5680 F         1 444501      0.0000 
     14 F21        31.1810    6.8070    3.2460 F         1 444501      0.0000 
     15 F20        32.7370    6.4660    1.6110 F         1 444501      0.0000 
     16 C23        32.6660   10.6920    3.2480 C.ar      1 444501      0.0000 
     17 C24        33.5930   10.9910    2.2450 C.ar      1 444501      0.0000 
     18 C25        34.4820   12.0460    2.3860 C.ar      1 444501      0.0000 
     19 C28        32.6590   11.4850    4.3930 C.ar      1 444501      0.0000 
     20 C27        33.5480   12.5370    4.5320 C.ar      1 444501      0.0000 
     21 C26        34.4720   12.8280    3.5270 C.ar      1 444501      0.0000 
     22 C33        35.4610   13.9760    3.6140 C.3       1 444501      0.0000 
     23 C34        34.7410   15.3300    3.5990 C.3       1 444501      0.0000 
     24 F36        35.7230   16.3190    3.5590 F         1 444501      0.0000 
     25 F37        33.9080   15.4590    2.4810 F         1 444501      0.0000 
     26 F35        33.9810   15.4960    4.7610 F         1 444501      0.0000 
     27 O42        36.3330   13.9330    2.4800 O.3       1 444501      0.0000 
     28 C38        36.3320   13.9490    4.8690 C.3       1 444501      0.0000 
     29 F39        36.7800   12.6490    5.1260 F         1 444501      0.0000 
     30 F40        37.4230   14.7920    4.6460 F         1 444501      0.0000 
     31 F41        35.6020   14.4450    5.9530 F         1 444501      0.0000 
     32 H          28.9302    9.7641    0.4224 H         1 444501      0.0000 
     33 H          28.7195   11.1786   -1.5237 H         1 444501      0.0000 
     34 H          29.6290   13.4160   -1.5010 H         1 444501      0.0000 
     35 H          30.7562   14.2406    0.4727 H         1 444501      0.0000 
     36 H          30.9589   12.8317    2.4241 H         1 444501      0.0000 
     37 H          32.8220    9.0046    1.4060 H         1 444501      0.0000 
     38 H          31.1027    8.5758    1.3968 H         1 444501      0.0000 
     39 H          33.6121   10.4137    1.3867 H         1 444501      0.0000 
     40 H          35.1583   12.2488    1.6300 H         1 444501      0.0000 
     41 H          31.9798   11.2824    5.1466 H         1 444501      0.0000 
     42 H          33.5315   13.1166    5.3877 H         1 444501      0.0000 
     43 H          36.9104   14.5104    3.0574 H         1 444501      0.0000 
@<TRIPOS>BOND
     1    2    1 2    
     2    3    2 2    
     3    4    2 1    
     4   10    2 1    
     5    5    4 ar   
     6    9    4 ar   
     7    6    5 ar   
     8   32    5 1    
     9    7    6 ar   
    10   33    6 1    
    11    8    7 ar   
    12   34    7 1    
    13    9    8 ar   
    14   35    8 1    
    15   36    9 1    
    16   11   10 1    
    17   16   10 1    
    18   12   11 1    
    19   37   11 1    
    20   38   11 1    
    21   13   12 1    
    22   14   12 1    
    23   15   12 1    
    24   17   16 ar   
    25   19   16 ar   
    26   18   17 ar   
    27   39   17 1    
    28   21   18 ar   
    29   40   18 1    
    30   20   19 ar   
    31   41   19 1    
    32   21   20 ar   
    33   42   20 1    
    34   22   21 1    
    35   23   22 1    
    36   27   22 1    
    37   28   22 1    
    38   24   23 1    
    39   25   23 1    
    40   26   23 1    
    41   43   27 1    
    42   29   28 1    
    43   30   28 1    
    44   31   28 1    
@<TRIPOS>SUBSTRUCTURE
     1 444501      1 GROUP   
@<TRIPOS>SET

