#    Name: 4jql_VJ6_1_INTS_M
#    Modification time : Tue Mar 25 06:13:33 2014

@<TRIPOS>MOLECULE
4jql_VJ6_1_INTS_M
   53     0     9     0     0
SMALL
NO_CHARGES


@<TRIPOS>ATOM
      1 N          38.2410    1.9365   54.6370 N.am      2 SEC2        0.0000 
      2 N          36.8820    1.8830   54.6220 N.am      8 SEL2        0.0000 
      3 N          39.6000    1.9900   54.6520 N.am      5 SEP2        0.0000 
      4 O          39.2065   10.8505   60.8290 O.2       1 ALC1        0.0000 
      5 O          38.5200    9.8190   60.2360 O.2       7 ALL1        0.0000 
      6 O          39.8930   11.8820   61.4220 O.2       4 ALP1        0.0000 
      7 CA         34.2565    5.6170   60.9195 C.3       3 GLC5        0.0000 
      8 CA         34.8910    5.1980   59.1160 C.3       9 GLL5        0.0000 
      9 CA         33.6220    6.0360   62.7230 C.3       6 GLP5        0.0000 
     10 N          30.4080   10.0235   56.9065 N.am      2 SEC2        0.0000 
     11 N          30.2080    9.3360   58.0830 N.am      8 SEL2        0.0000 
     12 N          30.6080   10.7110   55.7300 N.am      5 SEP2        0.0000 
     13 N          38.8265    5.6930   57.1240 N.am      2 SEC2        0.0000 
     14 N          38.7780    5.6210   58.5120 N.am      8 SEL2        0.0000 
     15 N          38.8750    5.7650   55.7360 N.am      5 SEP2        0.0000 
     16 CA         33.6305    7.2675   60.9290 C.3       3 GLC5        0.0000 
     17 CA         33.6390    8.4990   59.1350 C.3       9 GLL5        0.0000 
     18 CA         29.7970   11.3275   57.7960 C.3       3 GLC5        0.0000 
     19 CA         29.0030    9.7390   58.6620 C.3       9 GLL5        0.0000 
     20 CA         30.5910   12.9160   56.9300 C.3       6 GLP5        0.0000 
     21 CA         35.5510    1.2110   58.7010 C.3       3 GLC5        0.0000 
     22 CA         34.9370    1.4130   56.9210 C.3       9 GLL5        0.0000 
     23 CA         36.1650    1.0090   60.4810 C.3       6 GLP5        0.0000 
     24 CA         36.9360    1.6835   56.9720 C.3       3 GLC5        0.0000 
     25 CA         38.9350    1.9540   57.0230 C.3       6 GLP5        0.0000 
     26 CA         35.7400   -0.5025   56.7210 C.3       3 GLC5        0.0000 
     27 CA         36.5430   -2.4180   56.5210 C.3       6 GLP5        0.0000 
     28 CA         36.9895    8.1975   56.6215 C.3       3 GLC5        0.0000 
     29 CA         35.1570    8.2560   57.0780 C.3       9 GLL5        0.0000 
     30 CA         38.8220    8.1390   56.1650 C.3       6 GLP5        0.0000 
     31 CA         33.8220   12.1310   58.6315 C.3       3 GLC5        0.0000 
     32 CA         32.6570   10.6910   58.8090 C.3       9 GLL5        0.0000 
     33 CA         34.9870   13.5710   58.4540 C.3       6 GLP5        0.0000 
     34 CA         32.2545   11.9390   60.0540 C.3       3 GLC5        0.0000 
     35 CA         31.8520   13.1870   61.2990 C.3       6 GLP5        0.0000 
     36 CA         31.2515    7.1660   61.9755 C.3       3 GLC5        0.0000 
     37 CA         29.7680    6.8480   60.6120 C.3       9 GLL5        0.0000 
     38 CA         32.7350    7.4840   63.3390 C.3       6 GLP5        0.0000 
     39 CA         29.4810    6.3495   62.3115 C.3       3 GLC5        0.0000 
     40 CA         29.1940    5.8510   64.0110 C.3       6 GLP5        0.0000 
     41 CA         30.2245    4.7640   60.1960 C.3       3 GLC5        0.0000 
     42 CA         30.6810    2.6800   59.7800 C.3       6 GLP5        0.0000 
     43 CA         35.7771    2.2607   59.1110 C.3       3 GLC5        0.0000 
     44 CA         35.6480    3.7930   57.2290 C.3       9 GLL5        0.0000 
     45 CA         37.1621    2.7332   57.3820 C.3       3 GLC5        0.0000 
     46 CA         35.1860    3.7900   58.6680 C.3       9 GLL5        0.0000 
     47 CA         37.4020    7.4420   57.7135 C.3       3 GLC5        0.0000 
     48 CA         36.1270    6.0370   59.0780 C.3       9 GLL5        0.0000 
     49 CA         35.6250    6.5380   61.2970 C.3       3 GLC5        0.0000 
     50 CA         35.8370    7.4530   59.4460 C.3       9 GLL5        0.0000 
     51 CA         35.2680    6.3310   63.3320 C.3       6 GLP5        0.0000 
     52 CA         31.5960   11.4447   57.7758 C.3       3 GLC5        0.0000 
     53 CA         32.5450    9.2560   58.4340 C.3       9 GLL5        0.0000 
@<TRIPOS>BOND
@<TRIPOS>SUBSTRUCTURE
     1 ALC1        4 GROUP        1 X    ALC  0     ROOT ALC X 1
     2 SEC2        1 GROUP        1 X    SEC  0     **** SEC X 2
     3 GLC5        7 GROUP        1 X    GLC  0     **** GLC X 6
     4 ALP1        6 GROUP        1 Y    ALP  0     ROOT ALP Y 8
     5 SEP2        3 GROUP        1 Y    SEP  0     **** SEP Y 9
     6 GLP5        9 GROUP        1 Y    GLP  0     **** GLP Y 13
     7 ALL1        5 GROUP        1 Z    ALL  0     ROOT ALL Z 15
     8 SEL2        2 GROUP        1 Z    SEL  0     **** SEL Z 16
     9 GLL5        8 GROUP        1 Z    GLL  0     **** GLL Z 20
@<TRIPOS>SET

