#    Name: 4jql_VJ6_1_ligand
#    Modification time : Tue Mar 25 06:13:33 2014

@<TRIPOS>MOLECULE
4jql_VJ6_1_ligand
   81    82     1     0     0
SMALL
NO_CHARGES


@<TRIPOS>ATOM
      1 C1         36.0510    2.6890   54.9920 C.2       1 VJ6301      0.0000 
      2 N1         35.6220    3.6320   54.0140 N.am      1 VJ6301      0.0000 
      3 O1         36.8820    1.8830   54.6220 O.2       1 VJ6301      0.0000 
      4 C2         35.5370    2.6770   56.3990 C.2       1 VJ6301      0.0000 
      5 N2         38.5200    9.8190   60.2360 N.am      1 VJ6301      0.0000 
      6 O2         37.0830    5.5800   59.9720 O.3       1 VJ6301      0.0000 
      7 C3         35.6480    3.7930   57.2290 C.2       1 VJ6301      0.0000 
      8 N3         39.3400    6.0360   60.6730 N.am      1 VJ6301      0.0000 
      9 O3         37.0070    8.1680   59.3500 O.3       1 VJ6301      0.0000 
     10 C4         35.1860    3.7900   58.6680 C.3       1 VJ6301      0.0000 
     11 O4         36.3170    9.6770   60.8950 O.2       1 VJ6301      0.0000 
     12 C5         34.8910    5.1980   59.1160 C.3       1 VJ6301      0.0000 
     13 O5         30.2080    9.3360   58.0830 O.3       1 VJ6301      0.0000 
     14 C6         36.1270    6.0370   59.0780 C.3       1 VJ6301      0.0000 
     15 O6         29.9530    6.7190   59.2540 O.3       1 VJ6301      0.0000 
     16 C7         35.8370    7.4530   59.4460 C.3       1 VJ6301      0.0000 
     17 O7         38.7780    5.6210   58.5120 O.2       1 VJ6301      0.0000 
     18 C8         34.8220    8.0760   58.5360 C.2       1 VJ6301      0.0000 
     19 O8         34.2320    8.1620   53.2020 O.3       1 VJ6301      0.0000 
     20 C9         33.6390    8.4990   59.1350 C.2       1 VJ6301      0.0000 
     21 O9         31.1900    5.5730   56.9650 O.3       1 VJ6301      0.0000 
     22 C10        32.5450    9.2560   58.4340 C.3       1 VJ6301      0.0000 
     23 C11        31.1850    8.7340   58.8440 C.3       1 VJ6301      0.0000 
     24 C12        31.0790    7.2340   58.6760 C.3       1 VJ6301      0.0000 
     25 C13        31.0310    6.9270   57.2080 C.3       1 VJ6301      0.0000 
     26 C14        29.0030    9.7390   58.6620 C.3       1 VJ6301      0.0000 
     27 C15        31.1240    5.1400   55.6420 C.3       1 VJ6301      0.0000 
     28 C16        32.4210    5.3950   54.9520 C.ar      1 VJ6301      0.0000 
     29 C17        32.7100    6.7390   54.3740 C.ar      1 VJ6301      0.0000 
     30 C18        33.9040    6.9530   53.7640 C.ar      1 VJ6301      0.0000 
     31 C19        34.9080    5.8680   53.6430 C.ar      1 VJ6301      0.0000 
     32 C20        34.6480    4.6530   54.1760 C.ar      1 VJ6301      0.0000 
     33 C21        33.3380    4.3920   54.8460 C.ar      1 VJ6301      0.0000 
     34 C22        34.9370    1.4130   56.9210 C.3       1 VJ6301      0.0000 
     35 C23        38.4310    5.5340   59.6840 C.2       1 VJ6301      0.0000 
     36 C24        37.2090    9.2530   60.1740 C.2       1 VJ6301      0.0000 
     37 C25        35.1570    8.2560   57.0780 C.3       1 VJ6301      0.0000 
     38 C26        32.6570   10.6910   58.8090 C.3       1 VJ6301      0.0000 
     39 C27        29.7680    6.8480   60.6120 C.3       1 VJ6301      0.0000 
     40 C28        34.9010    8.0330   51.9950 C.3       1 VJ6301      0.0000 
     41 H          36.0854    3.5621   53.0523 H         1 VJ6301      0.0000 
     42 H          39.2019    9.4176   59.6246 H         1 VJ6301      0.0000 
     43 H          38.6453   10.5689   60.8856 H         1 VJ6301      0.0000 
     44 H          36.0540    4.6764   56.8929 H         1 VJ6301      0.0000 
     45 H          38.9249    6.4174   61.4990 H         1 VJ6301      0.0000 
     46 H          40.3130    5.9627   60.4540 H         1 VJ6301      0.0000 
     47 H          35.9651    3.3621   59.2974 H         1 VJ6301      0.0000 
     48 H          34.2868    3.1820   58.7582 H         1 VJ6301      0.0000 
     49 H          34.4906    5.1759   60.1346 H         1 VJ6301      0.0000 
     50 H          34.1291    5.6326   58.4611 H         1 VJ6301      0.0000 
     51 H          36.5172    6.0366   58.0586 H         1 VJ6301      0.0000 
     52 H          35.4455    7.4719   60.4581 H         1 VJ6301      0.0000 
     53 H          33.4561    8.2971   60.1446 H         1 VJ6301      0.0000 
     54 H          32.6621    9.1517   57.3747 H         1 VJ6301      0.0000 
     55 H          31.0504    8.9557   59.9060 H         1 VJ6301      0.0000 
     56 H          31.9907    6.7898   59.0665 H         1 VJ6301      0.0000 
     57 H          30.0636    7.3121   56.8174 H         1 VJ6301      0.0000 
     58 H          31.8182    7.5369   56.7130 H         1 VJ6301      0.0000 
     59 H          30.3276    5.6585   55.0762 H         1 VJ6301      0.0000 
     60 H          30.9055    4.0581   55.5712 H         1 VJ6301      0.0000 
     61 H          31.9870    7.4417   54.4662 H         1 VJ6301      0.0000 
     62 H          35.7701    6.0955   53.1504 H         1 VJ6301      0.0000 
     63 H          33.1875    3.4528   55.2013 H         1 VJ6301      0.0000 
     64 H          29.1464   10.4121   59.3875 H         1 VJ6301      0.0000 
     65 H          28.3902   10.1569   57.9913 H         1 VJ6301      0.0000 
     66 H          28.5109    8.9695   59.0692 H         1 VJ6301      0.0000 
     67 H          35.5919    0.6574   56.9068 H         1 VJ6301      0.0000 
     68 H          34.6249    1.5126   57.8658 H         1 VJ6301      0.0000 
     69 H          34.1466    1.1260   56.3799 H         1 VJ6301      0.0000 
     70 H          35.9598    8.8385   56.9505 H         1 VJ6301      0.0000 
     71 H          35.3544    7.3831   56.6318 H         1 VJ6301      0.0000 
     72 H          34.4045    8.6795   56.5736 H         1 VJ6301      0.0000 
     73 H          33.5416   11.0758   58.5454 H         1 VJ6301      0.0000 
     74 H          31.9524   11.2464   58.3673 H         1 VJ6301      0.0000 
     75 H          32.5609   10.8257   59.7952 H         1 VJ6301      0.0000 
     76 H          30.5021    6.4091   61.1302 H         1 VJ6301      0.0000 
     77 H          29.7431    7.8071   60.8940 H         1 VJ6301      0.0000 
     78 H          28.9091    6.4322   60.9110 H         1 VJ6301      0.0000 
     79 H          35.1290    8.9228   51.5998 H         1 VJ6301      0.0000 
     80 H          35.7588    7.5295   52.0978 H         1 VJ6301      0.0000 
     81 H          34.3529    7.5430   51.3171 H         1 VJ6301      0.0000 
@<TRIPOS>BOND
     1    2    1 am   
     2    3    1 2    
     3    4    1 1    
     4   32    2 1    
     5   41    2 1    
     6    7    4 2    
     7   34    4 1    
     8   36    5 am   
     9   42    5 1    
    10   43    5 1    
    11   14    6 1    
    12   35    6 1    
    13   10    7 1    
    14   44    7 1    
    15   35    8 am   
    16   45    8 1    
    17   46    8 1    
    18   16    9 1    
    19   36    9 1    
    20   12   10 1    
    21   47   10 1    
    22   48   10 1    
    23   36   11 2    
    24   14   12 1    
    25   49   12 1    
    26   50   12 1    
    27   23   13 1    
    28   26   13 1    
    29   16   14 1    
    30   51   14 1    
    31   24   15 1    
    32   39   15 1    
    33   18   16 1    
    34   52   16 1    
    35   35   17 2    
    36   20   18 2    
    37   37   18 1    
    38   30   19 1    
    39   40   19 1    
    40   22   20 1    
    41   53   20 1    
    42   25   21 1    
    43   27   21 1    
    44   23   22 1    
    45   38   22 1    
    46   54   22 1    
    47   24   23 1    
    48   55   23 1    
    49   25   24 1    
    50   56   24 1    
    51   57   25 1    
    52   58   25 1    
    53   64   26 1    
    54   65   26 1    
    55   66   26 1    
    56   28   27 1    
    57   59   27 1    
    58   60   27 1    
    59   29   28 ar   
    60   33   28 ar   
    61   30   29 ar   
    62   61   29 1    
    63   31   30 ar   
    64   32   31 ar   
    65   62   31 1    
    66   33   32 ar   
    67   63   33 1    
    68   67   34 1    
    69   68   34 1    
    70   69   34 1    
    71   70   37 1    
    72   71   37 1    
    73   72   37 1    
    74   73   38 1    
    75   74   38 1    
    76   75   38 1    
    77   76   39 1    
    78   77   39 1    
    79   78   39 1    
    80   79   40 1    
    81   80   40 1    
    82   81   40 1    
@<TRIPOS>SUBSTRUCTURE
     1 VJ6301      1 GROUP   
@<TRIPOS>SET

