#    Name: 4iei_ADP_1_INTS_M
#    Modification time : Tue Mar 25 03:53:47 2014

@<TRIPOS>MOLECULE
4iei_ADP_1_INTS_M
   55     0     9     0     0
SMALL
NO_CHARGES


@<TRIPOS>ATOM
      1 NZ         22.3710   39.1440   35.9300 N.4       2 LYC4        0.0000 
      2 NZ         21.3250   38.3360   35.2840 N.4       8 LYL4        0.0000 
      3 NZ         23.4170   39.9520   36.5760 N.4       5 LYP4        0.0000 
      4 N          20.0570   38.1125   36.0525 N.am      1 SEC2        0.0000 
      5 N          21.3250   38.3360   35.2840 N.am      7 SEL2        0.0000 
      6 N          18.7890   37.8890   36.8210 N.am      4 SEP2        0.0000 
      7 N          20.7160   39.3635   35.6220 N.am      1 SEC2        0.0000 
      8 N          20.1070   40.3910   35.9600 N.am      4 SEP2        0.0000 
      9 N          19.7360   38.4480   34.7715 N.am      1 SEC2        0.0000 
     10 N          18.1470   38.5600   34.2590 N.am      4 SEP2        0.0000 
     11 N          22.3710   39.1440   35.9300 N.am      1 SEC2        0.0000 
     12 N          23.4170   39.9520   36.5760 N.am      4 SEP2        0.0000 
     13 N          23.3320   37.3855   32.4925 N.am      1 SEC2        0.0000 
     14 N          22.6240   37.0930   33.4950 N.am      7 SEL2        0.0000 
     15 N          24.0400   37.6780   31.4900 N.am      4 SEP2        0.0000 
     16 N          21.1580   35.8300   36.7255 N.am      1 SEC2        0.0000 
     17 N          22.0640   35.9250   35.6820 N.am      7 SEL2        0.0000 
     18 N          20.2520   35.7350   37.7690 N.am      4 SEP2        0.0000 
     19 N          20.9050   38.1860   31.2800 N.am      1 SEC2        0.0000 
     20 N          20.0900   37.0430   31.6070 N.am      7 SEL2        0.0000 
     21 N          21.7200   39.3290   30.9530 N.am      4 SEP2        0.0000 
     22 N          20.3010   37.4615   30.2480 N.am      1 SEC2        0.0000 
     23 N          20.5120   37.8800   28.8890 N.am      4 SEP2        0.0000 
     24 N          19.2065   37.5335   34.1675 N.am      1 SEC2        0.0000 
     25 N          20.2660   36.5070   34.0760 N.am      7 SEL2        0.0000 
     26 CA         18.5780   34.9225   35.4645 C.3       3 GLC5        0.0000 
     27 CA         18.2360   34.3330   33.6970 C.3       9 GLL5        0.0000 
     28 CA         18.9200   35.5120   37.2320 C.3       6 GLP5        0.0000 
     29 CA         18.0075   36.5080   33.2790 C.3       3 GLC5        0.0000 
     30 CA         17.7790   38.6830   32.8610 C.3       6 GLP5        0.0000 
     31 CA         15.7730   32.7240   34.2565 C.3       3 GLC5        0.0000 
     32 CA         17.1850   33.4000   33.1110 C.3       9 GLL5        0.0000 
     33 CA         14.3610   32.0480   35.4020 C.3       6 GLP5        0.0000 
     34 N          15.5180   35.1825   33.7630 N.am      1 SEC2        0.0000 
     35 N          15.9170   34.0560   32.9610 N.am      7 SEL2        0.0000 
     36 N          15.1190   36.3090   34.5650 N.am      4 SEP2        0.0000 
     37 CA         13.1470   34.2505   31.5740 C.3       3 GLC5        0.0000 
     38 CA         15.2820   33.6390   31.7520 C.3       9 GLL5        0.0000 
     39 CA         11.0120   34.8620   31.3960 C.3       6 GLP5        0.0000 
     40 CA         14.8215   32.8435   33.5770 C.3       3 GLC5        0.0000 
     41 CA         16.3170   36.5685   28.8650 C.3       3 GLC5        0.0000 
     42 CA         14.2790   36.2930   29.3870 C.3       9 GLL5        0.0000 
     43 CA         18.3550   36.8440   28.3430 C.3       6 GLP5        0.0000 
     44 CA         11.4380   35.0905   29.3480 C.3       3 GLC5        0.0000 
     45 CA         12.6080   34.4310   28.2530 C.3       9 GLL5        0.0000 
     46 CA         10.2680   35.7500   30.4430 C.3       6 GLP5        0.0000 
     47 CA         12.6020   34.8880   30.6485 C.3       3 GLC5        0.0000 
     48 CA         14.1920   34.9140   29.9010 C.3       9 GLL5        0.0000 
     49 CA         17.9827   32.9317   35.1210 C.3       3 GLC5        0.0000 
     50 CA         18.2550   31.9970   36.8380 C.3       6 GLP5        0.0000 
     51 CA         17.6052   32.9450   29.8323 C.3       3 GLC5        0.0000 
     52 CA         17.5700   32.9200   31.7160 C.3       9 GLL5        0.0000 
     53 CA         18.3080   33.0830   28.2850 C.3       6 GLP5        0.0000 
     54 CA         12.1575   36.7557   29.4500 C.3       3 GLC5        0.0000 
     55 CA         10.4630   37.0440   30.0930 C.3       6 GLP5        0.0000 
@<TRIPOS>BOND
@<TRIPOS>SUBSTRUCTURE
     1 SEC2        4 GROUP        1 X    SEC  0     ROOT SEC X 2
     2 LYC4        1 GROUP        1 X    LYC  0     **** LYC X 4
     3 GLC5       26 GROUP        1 X    GLC  0     **** GLC X 6
     4 SEP2        6 GROUP        1 Y    SEP  0     ROOT SEP Y 9
     5 LYP4        3 GROUP        1 Y    LYP  0     **** LYP Y 11
     6 GLP5       28 GROUP        1 Y    GLP  0     **** GLP Y 13
     7 SEL2        5 GROUP        1 Z    SEL  0     ROOT SEL Z 16
     8 LYL4        2 GROUP        1 Z    LYL  0     **** LYL Z 18
     9 GLL5       27 GROUP        1 Z    GLL  0     **** GLL Z 20
@<TRIPOS>SET

