#    Name: 4iei_ADP_1_ligand
#    Modification time : Tue Mar 25 03:53:47 2014

@<TRIPOS>MOLECULE
4iei_ADP_1_ligand
   39    41     1     0     0
SMALL
NO_CHARGES


@<TRIPOS>ATOM
      1 PB         21.6910   36.9970   34.6730 P.3       1 ADP800      0.0000 
      2 O1B        21.3250   38.3360   35.2840 O.co2     1 ADP800      0.0000 
      3 O2B        22.6240   37.0930   33.4950 O.co2     1 ADP800      0.0000 
      4 O3B        22.0640   35.9250   35.6820 O.co2     1 ADP800      0.0000 
      5 PA         20.0370   35.8950   32.6000 P.3       1 ADP800      0.0000 
      6 O1A        20.0900   37.0430   31.6070 O.co2     1 ADP800      0.0000 
      7 O2A        20.9170   34.6860   32.3950 O.co2     1 ADP800      0.0000 
      8 O3A        20.2660   36.5070   34.0760 O.3       1 ADP800      0.0000 
      9 O5'        18.5140   35.3910   32.7690 O.3       1 ADP800      0.0000 
     10 C5'        18.2360   34.3330   33.6970 C.3       1 ADP800      0.0000 
     11 C4'        17.1850   33.4000   33.1110 C.3       1 ADP800      0.0000 
     12 O4'        15.9170   34.0560   32.9610 O.3       1 ADP800      0.0000 
     13 C3'        17.5700   32.9200   31.7160 C.3       1 ADP800      0.0000 
     14 O3'        18.3700   31.7290   31.7440 O.3       1 ADP800      0.0000 
     15 C2'        16.2350   32.6940   31.0430 C.3       1 ADP800      0.0000 
     16 O2'        15.8190   31.3690   31.3390 O.3       1 ADP800      0.0000 
     17 C1'        15.2820   33.6390   31.7520 C.3       1 ADP800      0.0000 
     18 N9         15.0450   34.8440   30.9180 N.pl3     1 ADP800      0.0000 
     19 C8         15.6320   36.0480   31.0730 C.2       1 ADP800      0.0000 
     20 N7         15.1790   36.9370   30.1540 N.2       1 ADP800      0.0000 
     21 C5         14.2790   36.2930   29.3870 C.ar      1 ADP800      0.0000 
     22 C6         13.4250   36.6420   28.2270 C.ar      1 ADP800      0.0000 
     23 N6         13.4400   37.8890   27.6940 N.pl3     1 ADP800      0.0000 
     24 N1         12.6290   35.6720   27.7280 N.ar      1 ADP800      0.0000 
     25 C2         12.6080   34.4310   28.2530 C.ar      1 ADP800      0.0000 
     26 N3         13.3530   34.0390   29.3070 N.ar      1 ADP800      0.0000 
     27 C4         14.1920   34.9140   29.9010 C.ar      1 ADP800      0.0000 
     28 H          17.8520   34.7213   34.6467 H         1 ADP800      0.0000 
     29 H          19.1321   33.7407   33.9121 H         1 ADP800      0.0000 
     30 H          17.0878   32.5305   33.7416 H         1 ADP800      0.0000 
     31 H          18.0544   33.7386   31.2156 H         1 ADP800      0.0000 
     32 H          16.2879   32.9201   30.0418 H         1 ADP800      0.0000 
     33 H          14.3696   33.1349   31.9435 H         1 ADP800      0.0000 
     34 H          16.3013   36.2585   31.7608 H         1 ADP800      0.0000 
     35 H          14.0569   38.5456   28.1279 H         1 ADP800      0.0000 
     36 H          12.8328   38.0416   26.9142 H         1 ADP800      0.0000 
     37 H          11.9568   33.7077   27.8040 H         1 ADP800      0.0000 
     38 H          18.8947   31.7897   32.5931 H         1 ADP800      0.0000 
     39 H          16.6374   30.9129   31.6884 H         1 ADP800      0.0000 
@<TRIPOS>BOND
     1    2    1 ar   
     2    3    1 ar   
     3    4    1 ar   
     4    8    1 1    
     5    6    5 ar   
     6    7    5 ar   
     7    8    5 1    
     8    9    5 1    
     9   10    9 1    
    10   11   10 1    
    11   28   10 1    
    12   29   10 1    
    13   12   11 1    
    14   13   11 1    
    15   30   11 1    
    16   17   12 1    
    17   14   13 1    
    18   15   13 1    
    19   31   13 1    
    20   38   14 1    
    21   16   15 1    
    22   17   15 1    
    23   32   15 1    
    24   39   16 1    
    25   18   17 1    
    26   33   17 1    
    27   19   18 1    
    28   27   18 1    
    29   20   19 2    
    30   34   19 1    
    31   21   20 1    
    32   22   21 ar   
    33   27   21 ar   
    34   23   22 1    
    35   24   22 ar   
    36   35   23 1    
    37   36   23 1    
    38   25   24 ar   
    39   26   25 ar   
    40   37   25 1    
    41   27   26 ar   
@<TRIPOS>SUBSTRUCTURE
     1 ADP800      1 GROUP   
@<TRIPOS>SET

