#    Name: 1srh_MOB_1_INTS_M
#    Modification time : Tue Mar 25 02:42:04 2014

@<TRIPOS>MOLECULE
1srh_MOB_1_INTS_M
   45     0     6     0     0
SMALL
NO_CHARGES


@<TRIPOS>ATOM
      1 CA         19.7060    5.0900    7.3775 C.3       2 GLC5        0.0000 
      2 CA         18.5860    4.7200    9.1770 C.3       6 GLL5        0.0000 
      3 CA         20.8260    5.4600    5.5780 C.3       4 GLP5        0.0000 
      4 CA         21.9415    3.2340   19.1945 C.3       2 GLC5        0.0000 
      5 CA         21.9220    4.0290   17.2040 C.3       6 GLL5        0.0000 
      6 CA         21.9610    2.4390   21.1850 C.3       4 GLP5        0.0000 
      7 CA         23.2650    4.4915   18.4480 C.3       2 GLC5        0.0000 
      8 CA         24.6080    4.9540   19.6920 C.3       4 GLP5        0.0000 
      9 CA         20.9770    4.4285   20.1025 C.3       2 GLC5        0.0000 
     10 CA         21.4950    6.0350   19.0110 C.3       6 GLL5        0.0000 
     11 CA         20.4590    2.8220   21.1940 C.3       4 GLP5        0.0000 
     12 CA         20.0010    6.3100   19.2835 C.3       2 GLC5        0.0000 
     13 CA         18.5070    6.5850   19.5560 C.3       4 GLP5        0.0000 
     14 CA         20.7960    8.0255   19.5100 C.3       2 GLC5        0.0000 
     15 CA         20.0970   10.0160   20.0090 C.3       4 GLP5        0.0000 
     16 CA         22.5625    7.0320   18.1160 C.3       2 GLC5        0.0000 
     17 CA         23.6300    8.0290   17.2210 C.3       4 GLP5        0.0000 
     18 CA         23.0515    5.4945   19.3515 C.3       2 GLC5        0.0000 
     19 CA         24.6080    4.0455   18.0750 C.3       2 GLC5        0.0000 
     20 CA         24.6080    3.1370   16.4580 C.3       6 GLL5        0.0000 
     21 CA         25.7855    3.9685   15.9505 C.3       2 GLC5        0.0000 
     22 CA         26.9630    4.8000   15.4430 C.3       4 GLP5        0.0000 
     23 CA         24.4225    3.6760   14.5395 C.3       2 GLC5        0.0000 
     24 CA         24.2370    4.2150   12.6210 C.3       4 GLP5        0.0000 
     25 N          14.2670    6.1045   10.5100 N.am      1 SEC2        0.0000 
     26 N          15.3970    6.1620   11.5920 N.am      5 SEL2        0.0000 
     27 N          13.1370    6.0470    9.4280 N.am      3 SEP2        0.0000 
     28 N          14.2155    6.3005   12.3155 N.am      1 SEC2        0.0000 
     29 N          13.0340    6.4390   13.0390 N.am      3 SEP2        0.0000 
     30 N          15.3075    7.2705   11.0110 N.am      1 SEC2        0.0000 
     31 N          15.2180    8.3790   10.4300 N.am      3 SEP2        0.0000 
     32 CA         20.7244    5.5566    9.6670 C.3       2 GLC5        0.0000 
     33 CA         21.9780    6.7850    8.9800 C.3       4 GLP5        0.0000 
     34 CA         19.2930    2.9060   16.8278 C.3       2 GLC5        0.0000 
     35 CA         20.2660    3.6740   14.9960 C.3       6 GLL5        0.0000 
     36 CA         18.4900    1.6670   18.1720 C.3       4 GLP5        0.0000 
     37 CA         19.4258    5.6445   18.0430 C.3       2 GLC5        0.0000 
     38 CA         19.9260    4.6160   15.9710 C.3       6 GLL5        0.0000 
     39 CA         19.9162    3.0387   17.6593 C.3       2 GLC5        0.0000 
     40 CA         20.7630    4.7920   17.0890 C.3       6 GLL5        0.0000 
     41 CA         22.4862    6.2197   17.1837 C.3       2 GLC5        0.0000 
     42 CA         20.1653    2.3297   16.9282 C.3       2 GLC5        0.0000 
     43 CA         22.2580    3.0780   16.2410 C.3       6 GLL5        0.0000 
     44 CA         23.0388    3.6037   14.1528 C.3       2 GLC5        0.0000 
     45 CA         21.4230    2.9070   15.1280 C.3       6 GLL5        0.0000 
@<TRIPOS>BOND
@<TRIPOS>SUBSTRUCTURE
     1 SEC2       25 GROUP        1 X    SEC  0     ROOT SEC X 2
     2 GLC5        1 GROUP        1 X    GLC  0     **** GLC X 6
     3 SEP2       27 GROUP        1 Y    SEP  0     ROOT SEP Y 9
     4 GLP5        3 GROUP        1 Y    GLP  0     **** GLP Y 13
     5 SEL2       26 GROUP        1 Z    SEL  0     ROOT SEL Z 16
     6 GLL5        2 GROUP        1 Z    GLL  0     **** GLL Z 20
@<TRIPOS>SET

