#    Name: 1srh_MOB_1_ligand
#    Modification time : Tue Mar 25 02:42:05 2014

@<TRIPOS>MOLECULE
1srh_MOB_1_ligand
   35    36     1     0     0
SMALL
NO_CHARGES


@<TRIPOS>ATOM
      1 C1         18.6740    4.6220   11.9500 C.ar      1 MOB300      0.0000 
      2 C2         17.5210    5.0800   11.3110 C.ar      1 MOB300      0.0000 
      3 C3         17.4750    5.1330    9.9140 C.ar      1 MOB300      0.0000 
      4 C4         18.5860    4.7200    9.1770 C.ar      1 MOB300      0.0000 
      5 C5         19.7330    4.2310    9.8170 C.ar      1 MOB300      0.0000 
      6 C6         19.7820    4.1810   11.2110 C.ar      1 MOB300      0.0000 
      7 C1'        20.2660    3.6740   14.9960 C.ar      1 MOB300      0.0000 
      8 C2'        19.9260    4.6160   15.9710 C.ar      1 MOB300      0.0000 
      9 C3'        20.7630    4.7920   17.0890 C.ar      1 MOB300      0.0000 
     10 C4'        21.9220    4.0290   17.2040 C.ar      1 MOB300      0.0000 
     11 C5'        22.2580    3.0780   16.2410 C.ar      1 MOB300      0.0000 
     12 C6'        21.4230    2.9070   15.1280 C.ar      1 MOB300      0.0000 
     13 C          16.3360    5.5950   12.1440 C.2       1 MOB300      0.0000 
     14 CHX        21.4950    6.0350   19.0110 C.3       1 MOB300      0.0000 
     15 CHZ        24.6080    3.1370   16.4580 C.3       1 MOB300      0.0000 
     16 N1         18.7260    4.5350   13.4360 N.2       1 MOB300      0.0000 
     17 N1'        19.3660    3.5030   13.8400 N.2       1 MOB300      0.0000 
     18 O          15.3970    6.1620   11.5920 O.co2     1 MOB300      0.0000 
     19 OXT        16.3770    5.5010   13.5690 O.co2     1 MOB300      0.0000 
     20 O3'        20.4000    5.7420   18.0700 O.3       1 MOB300      0.0000 
     21 O4'        22.7610    4.1950   18.3510 O.3       1 MOB300      0.0000 
     22 O5'        23.4530    2.3070   16.3700 O.3       1 MOB300      0.0000 
     23 H          16.6361    5.4708    9.4392 H         1 MOB300      0.0000 
     24 H          18.5651    4.7744    8.1467 H         1 MOB300      0.0000 
     25 H          20.5318    3.9118    9.2609 H         1 MOB300      0.0000 
     26 H          20.6107    3.8291   11.6891 H         1 MOB300      0.0000 
     27 H          19.0766    5.1753   15.8770 H         1 MOB300      0.0000 
     28 H          21.6669    2.2145   14.4101 H         1 MOB300      0.0000 
     29 H          21.7897    5.2166   19.5044 H         1 MOB300      0.0000 
     30 H          22.2994    6.4004   18.5426 H         1 MOB300      0.0000 
     31 H          21.2240    6.7096   19.6977 H         1 MOB300      0.0000 
     32 H          25.4458    2.5989   16.5504 H         1 MOB300      0.0000 
     33 H          24.7160    3.7104   15.6459 H         1 MOB300      0.0000 
     34 H          24.5652    3.7506   17.2465 H         1 MOB300      0.0000 
     35 H          23.6531    4.4573   17.9832 H         1 MOB300      0.0000 
@<TRIPOS>BOND
     1    2    1 ar   
     2    6    1 ar   
     3   16    1 1    
     4    3    2 ar   
     5   13    2 1    
     6    4    3 ar   
     7   23    3 1    
     8    5    4 ar   
     9   24    4 1    
    10    6    5 ar   
    11   25    5 1    
    12   26    6 1    
    13    8    7 ar   
    14   12    7 ar   
    15   17    7 1    
    16    9    8 ar   
    17   27    8 1    
    18   10    9 ar   
    19   20    9 1    
    20   11   10 ar   
    21   21   10 1    
    22   12   11 ar   
    23   22   11 1    
    24   28   12 1    
    25   18   13 ar   
    26   19   13 ar   
    27   20   14 1    
    28   29   14 1    
    29   30   14 1    
    30   31   14 1    
    31   22   15 1    
    32   32   15 1    
    33   33   15 1    
    34   34   15 1    
    35   17   16 2    
    36   35   21 1    
@<TRIPOS>SUBSTRUCTURE
     1 MOB300      1 GROUP   
@<TRIPOS>SET

