#    Name: 1lw2_U05_1_INTS_M
#    Modification time : Mon Apr  7 14:24:03 2014

@<TRIPOS>MOLECULE
1lw2_U05_1_INTS_M
   32     0     3     0     0
SMALL
NO_CHARGES


@<TRIPOS>ATOM
      1 CA         -0.2535  -39.1265   17.4410 C.3       1 GLC5        0.0000 
      2 CA          0.0920  -37.4520   18.4180 C.3       3 GLL5        0.0000 
      3 CA         -0.5990  -40.8010   16.4640 C.3       2 GLP5        0.0000 
      4 CA          0.7965  -37.8245   25.9565 C.3       1 GLC5        0.0000 
      5 CA          0.5840  -36.3200   25.0100 C.3       3 GLL5        0.0000 
      6 CA          1.0090  -39.3290   26.9030 C.3       2 GLP5        0.0000 
      7 CA         -1.4095  -35.6650   25.7425 C.3       1 GLC5        0.0000 
      8 CA         -3.4030  -35.0100   26.4750 C.3       2 GLP5        0.0000 
      9 CA          0.3050  -34.3205   24.1545 C.3       1 GLC5        0.0000 
     10 CA          0.0260  -32.3210   23.2990 C.3       2 GLP5        0.0000 
     11 CA          2.5625  -40.0095   23.1840 C.3       1 GLC5        0.0000 
     12 CA          2.5920  -39.6830   21.1780 C.3       3 GLL5        0.0000 
     13 CA          2.5330  -40.3360   25.1900 C.3       2 GLP5        0.0000 
     14 CA          0.7140  -40.7030   18.2810 C.3       1 GLC5        0.0000 
     15 CA          2.0270  -40.6050   20.0980 C.3       3 GLL5        0.0000 
     16 CA          0.6620  -42.1510   19.8865 C.3       1 GLC5        0.0000 
     17 CA         -0.7030  -43.6970   19.6750 C.3       2 GLP5        0.0000 
     18 CA         -2.8678  -36.8415   18.9775 C.3       1 GLC5        0.0000 
     19 CA         -1.0060  -36.3610   20.2890 C.3       3 GLL5        0.0000 
     20 CA         -4.7550  -37.1790   18.3610 C.3       2 GLP5        0.0000 
     21 CA         -1.8061  -38.2708   20.4898 C.3       1 GLC5        0.0000 
     22 CA         -0.9550  -36.6470   18.8990 C.3       3 GLL5        0.0000 
     23 CA         -3.1050  -39.8370   20.6070 C.3       2 GLP5        0.0000 
     24 CA          2.5553  -38.6283   23.9288 C.3       1 GLC5        0.0000 
     25 CA          2.8400  -37.3140   22.1390 C.3       3 GLL5        0.0000 
     26 CA          5.5797  -38.4468   22.8012 C.3       1 GLC5        0.0000 
     27 CA          4.2160  -37.2530   21.8260 C.3       3 GLL5        0.0000 
     28 CA          6.5070  -40.0570   23.4150 C.3       2 GLP5        0.0000 
     29 CA          4.2336  -36.0781   20.5346 C.3       1 GLC5        0.0000 
     30 CA          4.7210  -35.0810   18.9060 C.3       2 GLP5        0.0000 
     31 CA          3.5557  -41.3470   19.5980 C.3       1 GLC5        0.0000 
     32 CA          4.8020  -42.5500   18.5580 C.3       2 GLP5        0.0000 
@<TRIPOS>BOND
@<TRIPOS>SUBSTRUCTURE
     1 GLC5        1 GROUP        1 X    GLC  0     ROOT GLC X 6
     2 GLP5        3 GROUP        1 Y    GLP  0     ROOT GLP Y 13
     3 GLL5        2 GROUP        1 Z    GLL  0     ROOT GLL Z 20
@<TRIPOS>SET

