#    Name: 1lw2_U05_1_ligand
#    Modification time : Mon Apr  7 14:24:03 2014

@<TRIPOS>MOLECULE
1lw2_U05_1_ligand
   36    38     1     0     0
SMALL
NO_CHARGES


@<TRIPOS>ATOM
      1 N1          1.0370  -37.9790   19.2490 N.ar      1 U05999      0.0000 
      2 C2          0.0920  -37.4520   18.4180 C.ar      1 U05999      0.0000 
      3 C3         -0.9550  -36.6470   18.8990 C.ar      1 U05999      0.0000 
      4 C4         -1.0060  -36.3610   20.2890 C.ar      1 U05999      0.0000 
      5 C4A        -0.0340  -36.9050   21.1510 C.ar      1 U05999      0.0000 
      6 C5         -0.1720  -36.6870   22.6740 C.2       1 U05999      0.0000 
      7 O13        -1.3250  -36.7120   23.1310 O.2       1 U05999      0.0000 
      8 N6          0.8870  -36.5300   23.5120 N.am      1 U05999      0.0000 
      9 C12         0.5840  -36.3200   25.0100 C.3       1 U05999      0.0000 
     10 C6A         2.3150  -36.5270   23.1960 C.ar      1 U05999      0.0000 
     11 C7          3.2040  -35.6920   23.9330 C.ar      1 U05999      0.0000 
     12 C8          4.5870  -35.6470   23.6160 C.ar      1 U05999      0.0000 
     13 C9          5.0890  -36.4200   22.5490 C.ar      1 U05999      0.0000 
     14 N           6.5370  -36.4070   22.2190 N.pl3     1 U05999      0.0000 
     15 O1          6.9130  -37.1040   21.2820 O.2       1 U05999      0.0000 
     16 O2          7.2640  -35.7110   22.8990 O.2       1 U05999      0.0000 
     17 C10         4.2160  -37.2530   21.8260 C.ar      1 U05999      0.0000 
     18 C11         2.8400  -37.3140   22.1390 C.ar      1 U05999      0.0000 
     19 N11         1.9620  -38.2810   21.5010 N.pl3     1 U05999      0.0000 
     20 C14         2.5920  -39.6830   21.1780 C.3       1 U05999      0.0000 
     21 C15         2.0270  -40.6050   20.0980 C.3       1 U05999      0.0000 
     22 C1A         0.9900  -37.7090   20.5880 C.ar      1 U05999      0.0000 
     23 H           0.1323  -37.6418   17.3924 H         1 U05999      0.0000 
     24 H          -1.6585  -36.2771   18.2755 H         1 U05999      0.0000 
     25 H          -1.7451  -35.7639   20.6564 H         1 U05999      0.0000 
     26 H           2.8393  -35.1197   24.6984 H         1 U05999      0.0000 
     27 H           5.2128  -35.0553   24.1616 H         1 U05999      0.0000 
     28 H           4.5836  -37.8287   21.0555 H         1 U05999      0.0000 
     29 H           2.6304  -40.2596   22.1578 H         1 U05999      0.0000 
     30 H           3.6937  -39.5053   20.9576 H         1 U05999      0.0000 
     31 H           1.4211  -36.2173   25.5474 H         1 U05999      0.0000 
     32 H           0.0330  -35.5002   25.1661 H         1 U05999      0.0000 
     33 H           0.0791  -37.0908   25.3984 H         1 U05999      0.0000 
     34 H           2.0441  -40.1742   19.1957 H         1 U05999      0.0000 
     35 H           2.5475  -41.4558   20.0265 H         1 U05999      0.0000 
     36 H           1.0774  -40.8571   20.2844 H         1 U05999      0.0000 
@<TRIPOS>BOND
     1    2    1 ar   
     2   22    1 ar   
     3    3    2 ar   
     4   23    2 1    
     5    4    3 ar   
     6   24    3 1    
     7    5    4 ar   
     8   25    4 1    
     9    6    5 1    
    10   22    5 ar   
    11    7    6 2    
    12    8    6 am   
    13    9    8 1    
    14   10    8 1    
    15   31    9 1    
    16   32    9 1    
    17   33    9 1    
    18   11   10 ar   
    19   18   10 ar   
    20   12   11 ar   
    21   26   11 1    
    22   13   12 ar   
    23   27   12 1    
    24   14   13 1    
    25   17   13 ar   
    26   15   14 2    
    27   16   14 2    
    28   18   17 ar   
    29   28   17 1    
    30   19   18 1    
    31   20   19 1    
    32   22   19 1    
    33   21   20 1    
    34   29   20 1    
    35   30   20 1    
    36   34   21 1    
    37   35   21 1    
    38   36   21 1    
@<TRIPOS>SUBSTRUCTURE
     1 U05999      1 GROUP   
@<TRIPOS>SET

