#    Name: 2evo_CT0_1_ligand
#    Modification time : Tue Mar 25 12:06:53 2014

@<TRIPOS>MOLECULE
2evo_CT0_1_ligand
   28    29     1     0     0
SMALL
NO_CHARGES


@<TRIPOS>ATOM
      1 O          -3.9250    2.1300   38.5270 O.2       1 CT0503      0.0000 
      2 C1         -3.7830    1.7280   37.3500 C.2       1 CT0503      0.0000 
      3 N2         -2.8770    2.3250   36.4850 N.am      1 CT0503      0.0000 
      4 C3         -2.0880    3.3710   36.8300 C.2       1 CT0503      0.0000 
      5 N          -1.2060    3.9750   36.0320 N.2       1 CT0503      0.0000 
      6 S          -2.0200    4.1420   38.3150 S.3       1 CT0503      0.0000 
      7 C5         -0.8580    5.2730   37.9590 C.2       1 CT0503      0.0000 
      8 C4         -0.5030    5.0470   36.6410 C.2       1 CT0503      0.0000 
      9 O2         -4.4540    0.1800   35.6890 O.2       1 CT0503      0.0000 
     10 C6         -4.5980    0.5850   36.8610 C.2       1 CT0503      0.0000 
     11 N7         -5.4970   -0.0140   37.7150 N.am      1 CT0503      0.0000 
     12 C8         -6.3190   -1.1520   37.2810 C.3       1 CT0503      0.0000 
     13 C9         -5.9970   -2.5120   37.9180 C.3       1 CT0503      0.0000 
     14 C10        -7.8310   -1.0560   37.5400 C.3       1 CT0503      0.0000 
     15 C11        -8.0120   -1.5870   38.9730 C.3       1 CT0503      0.0000 
     16 C12        -6.8180   -2.5290   39.2230 C.3       1 CT0503      0.0000 
     17 H          -0.6191    5.8426   38.5991 H         1 CT0503      0.0000 
     18 H           0.1715    5.5703   36.1550 H         1 CT0503      0.0000 
     19 H          -5.6247    0.3114   38.6810 H         1 CT0503      0.0000 
     20 H          -6.2267   -1.3216   36.1856 H         1 CT0503      0.0000 
     21 H          -4.9635   -2.5647   38.1485 H         1 CT0503      0.0000 
     22 H          -6.3263   -3.2934   37.2816 H         1 CT0503      0.0000 
     23 H          -8.3510   -1.6822   36.8596 H         1 CT0503      0.0000 
     24 H          -8.1381   -0.0416   37.4944 H         1 CT0503      0.0000 
     25 H          -8.9205   -2.1389   39.0379 H         1 CT0503      0.0000 
     26 H          -7.9759   -0.7759   39.6622 H         1 CT0503      0.0000 
     27 H          -6.2256   -2.1498   40.0215 H         1 CT0503      0.0000 
     28 H          -7.1739   -3.5148   39.4071 H         1 CT0503      0.0000 
@<TRIPOS>BOND
     1    2    1 2    
     2    3    2 am   
     3   10    2 1    
     4    4    3 1    
     5    5    4 2    
     6    6    4 1    
     7    8    5 1    
     8    7    6 1    
     9    8    7 2    
    10   17    7 1    
    11   18    8 1    
    12   10    9 2    
    13   11   10 am   
    14   12   11 1    
    15   19   11 1    
    16   13   12 1    
    17   14   12 1    
    18   20   12 1    
    19   16   13 1    
    20   21   13 1    
    21   22   13 1    
    22   15   14 1    
    23   23   14 1    
    24   24   14 1    
    25   16   15 1    
    26   25   15 1    
    27   26   15 1    
    28   27   16 1    
    29   28   16 1    
@<TRIPOS>SUBSTRUCTURE
     1 CT0503      1 GROUP   
@<TRIPOS>SET

