#    Name: 3bhl_THG_1_INTS_M
#    Modification time : Mon Mar 24 19:34:34 2014

@<TRIPOS>MOLECULE
3bhl_THG_1_INTS_M
   42     0     6     0     0
SMALL
NO_CHARGES


@<TRIPOS>ATOM
      1 O         101.4545    1.3710    4.6460 O.2       1 ALC1        0.0000 
      2 O         101.8110    2.0550    3.5100 O.2       5 ALL1        0.0000 
      3 O         101.0980    0.6870    5.7820 O.2       3 ALP1        0.0000 
      4 CA        102.9355    3.6915   -0.8235 C.3       2 GLC5        0.0000 
      5 CA        103.0570    3.3120    1.3840 C.3       6 GLL5        0.0000 
      6 CA        102.8140    4.0710   -3.0310 C.3       4 GLP5        0.0000 
      7 CA        104.1715    6.7055   -0.8795 C.3       2 GLC5        0.0000 
      8 CA        104.2040    5.2900    0.3990 C.3       6 GLL5        0.0000 
      9 CA        104.1390    8.1210   -2.1580 C.3       4 GLP5        0.0000 
     10 CA        103.5090    4.6805   -1.3160 C.3       2 GLC5        0.0000 
     11 CA        102.3150    7.1120    1.5625 C.3       2 GLC5        0.0000 
     12 CA        104.4040    7.4790    1.9810 C.3       6 GLL5        0.0000 
     13 CA        100.2260    6.7450    1.1440 C.3       4 GLP5        0.0000 
     14 CA        106.3545    8.4705    4.8120 C.3       2 GLC5        0.0000 
     15 CA        105.0160    6.9600    5.6900 C.3       6 GLL5        0.0000 
     16 CA        107.6930    9.9810    3.9340 C.3       4 GLP5        0.0000 
     17 CA        103.9535    8.5315    6.8215 C.3       2 GLC5        0.0000 
     18 CA        102.8910   10.1030    7.9530 C.3       4 GLP5        0.0000 
     19 CA        106.7615    3.1070    9.5390 C.3       2 GLC5        0.0000 
     20 CA        108.2620    4.2710    9.4170 C.3       6 GLL5        0.0000 
     21 CA        105.2610    1.9430    9.6610 C.3       4 GLP5        0.0000 
     22 CA        109.7440    6.8860    7.3090 C.3       2 GLC5        0.0000 
     23 CA        110.0430    5.8860    9.1360 C.3       6 GLL5        0.0000 
     24 CA        109.4450    7.8860    5.4820 C.3       4 GLP5        0.0000 
     25 O         102.8105   -0.6760    1.4695 O.2       1 ALC1        0.0000 
     26 O         101.9120    0.0610    2.3300 O.2       5 ALL1        0.0000 
     27 O         103.7090   -1.4130    0.6090 O.2       3 ALP1        0.0000 
     28 CA        104.1593    2.2555    2.7755 C.3       2 GLC5        0.0000 
     29 CA        105.4260    0.8060    3.5920 C.3       4 GLP5        0.0000 
     30 CA        101.2368    4.6045    1.4855 C.3       2 GLC5        0.0000 
     31 CA         99.5810    5.5040    1.0120 C.3       4 GLP5        0.0000 
     32 CA        105.6633    4.6377    0.4550 C.3       2 GLC5        0.0000 
     33 CA        103.9530    6.0050    1.6790 C.3       6 GLL5        0.0000 
     34 CA        107.2480    3.6280   -0.1290 C.3       4 GLP5        0.0000 
     35 CA        102.1523    6.1963    1.0915 C.3       2 GLC5        0.0000 
     36 CA        104.3067    7.9170    0.2980 C.3       2 GLC5        0.0000 
     37 CA        104.4350    9.0920   -1.2340 C.3       4 GLP5        0.0000 
     38 CA        107.6304    6.7027    4.2586 C.3       2 GLC5        0.0000 
     39 CA        105.1790    6.7440    4.3210 C.3       6 GLL5        0.0000 
     40 CA        109.0970    7.8140    4.0150 C.3       4 GLP5        0.0000 
     41 CA        107.7937    6.7833    5.9663 C.3       2 GLC5        0.0000 
     42 CA        106.5770    5.1620    6.2400 C.3       6 GLL5        0.0000 
@<TRIPOS>BOND
@<TRIPOS>SUBSTRUCTURE
     1 ALC1        1 GROUP        1 X    ALC  0     ROOT ALC X 1
     2 GLC5        4 GROUP        1 X    GLC  0     **** GLC X 6
     3 ALP1        3 GROUP        1 Y    ALP  0     ROOT ALP Y 8
     4 GLP5        6 GROUP        1 Y    GLP  0     **** GLP Y 13
     5 ALL1        2 GROUP        1 Z    ALL  0     ROOT ALL Z 15
     6 GLL5        5 GROUP        1 Z    GLL  0     **** GLL Z 20
@<TRIPOS>SET

