#    Name: 3bhl_THG_1_ligand
#    Modification time : Mon Mar 24 19:34:35 2014

@<TRIPOS>MOLECULE
3bhl_THG_1_ligand
   52    54     1     0     0
SMALL
NO_CHARGES


@<TRIPOS>ATOM
      1 N3        101.8110    2.0550    3.5100 N.am      1 THG266      0.0000 
      2 C2        102.1390    1.3710    2.3950 C.2       1 THG266      0.0000 
      3 N1        102.7490    2.0090    1.3370 N.2       1 THG266      0.0000 
      4 C8A       103.0570    3.3120    1.3840 C.2       1 THG266      0.0000 
      5 C4A       102.7280    4.0980    2.5340 C.2       1 THG266      0.0000 
      6 C4        102.0470    3.3670    3.6270 C.2       1 THG266      0.0000 
      7 N8        103.7170    3.9250    0.3680 N.pl3     1 THG266      0.0000 
      8 C7        104.2040    5.2900    0.3990 C.3       1 THG266      0.0000 
      9 C6        103.9530    6.0050    1.6790 C.3       1 THG266      0.0000 
     10 N5        103.0010    5.4210    2.6170 N.3       1 THG266      0.0000 
     11 C9        104.4040    7.4790    1.9810 C.3       1 THG266      0.0000 
     12 N10       104.4760    7.5640    3.4520 N.pl3     1 THG266      0.0000 
     13 C4'       105.1790    6.7440    4.3210 C.ar      1 THG266      0.0000 
     14 C3'       106.0420    5.7120    3.9260 C.ar      1 THG266      0.0000 
     15 C2'       106.7170    4.9550    4.8810 C.ar      1 THG266      0.0000 
     16 C1'       106.5770    5.1620    6.2400 C.ar      1 THG266      0.0000 
     17 C6'       105.7080    6.1990    6.6610 C.ar      1 THG266      0.0000 
     18 C5'       105.0160    6.9600    5.6900 C.ar      1 THG266      0.0000 
     19 C11       107.3730    4.3150    7.1960 C.2       1 THG266      0.0000 
     20 N         107.5100    4.8500    8.3980 N.am      1 THG266      0.0000 
     21 CA        108.2620    4.2710    9.4170 C.3       1 THG266      0.0000 
     22 C         107.6870    4.5250   10.7220 C.2       1 THG266      0.0000 
     23 OX2       108.0940    3.7650   11.7110 O.co2     1 THG266      0.0000 
     24 OX1       106.9220    5.4790   10.9410 O.co2     1 THG266      0.0000 
     25 CB        109.7420    4.3760    9.2560 C.3       1 THG266      0.0000 
     26 CG        110.0430    5.8860    9.1360 C.3       1 THG266      0.0000 
     27 CD        111.5020    6.2720    8.9800 C.2       1 THG266      0.0000 
     28 OE1       112.0700    6.2800    7.8990 O.co2     1 THG266      0.0000 
     29 OE2       112.1770    6.6870   10.0510 O.co2     1 THG266      0.0000 
     30 O11       107.9060    3.2430    6.8760 O.2       1 THG266      0.0000 
     31 O4        101.7090    4.0300    4.6520 O.2       1 THG266      0.0000 
     32 N2        101.9120    0.0610    2.3300 N.pl3     1 THG266      0.0000 
     33 H         101.3558    1.5371    4.3100 H         1 THG266      0.0000 
     34 H         103.9083    3.3964   -0.5305 H         1 THG266      0.0000 
     35 H         103.7444    5.8789   -0.4324 H         1 THG266      0.0000 
     36 H         105.3021    5.3090    0.1914 H         1 THG266      0.0000 
     37 H         105.0415    5.4654    2.3224 H         1 THG266      0.0000 
     38 H         103.6627    8.1355    1.5833 H         1 THG266      0.0000 
     39 H         105.3594    7.6273    1.5296 H         1 THG266      0.0000 
     40 H         103.9026    8.3706    3.8701 H         1 THG266      0.0000 
     41 H         106.1747    5.5160    2.9253 H         1 THG266      0.0000 
     42 H         107.3598    4.1942    4.5485 H         1 THG266      0.0000 
     43 H         105.5840    6.3930    7.6497 H         1 THG266      0.0000 
     44 H         104.3662    7.7030    6.0152 H         1 THG266      0.0000 
     45 H         107.0310    5.7723    8.6272 H         1 THG266      0.0000 
     46 H         108.0688    3.0892    9.2675 H         1 THG266      0.0000 
     47 H         110.0628    3.8894    8.3586 H         1 THG266      0.0000 
     48 H         110.2469    3.9926   10.1180 H         1 THG266      0.0000 
     49 H         109.6258    6.3934   10.0340 H         1 THG266      0.0000 
     50 H         109.4660    6.2853    8.2725 H         1 THG266      0.0000 
     51 H         101.1539   -0.2823    2.8845 H         1 THG266      0.0000 
     52 H         102.5200   -0.4618    1.7326 H         1 THG266      0.0000 
@<TRIPOS>BOND
     1    2    1 1    
     2    6    1 am   
     3   33    1 1    
     4    3    2 2    
     5   32    2 1    
     6    4    3 1    
     7    5    4 2    
     8    7    4 1    
     9    6    5 1    
    10   10    5 1    
    11   31    6 2    
    12    8    7 1    
    13   34    7 1    
    14    9    8 1    
    15   35    8 1    
    16   36    8 1    
    17   10    9 1    
    18   11    9 1    
    19   37    9 1    
    20   12   11 1    
    21   38   11 1    
    22   39   11 1    
    23   13   12 1    
    24   40   12 1    
    25   14   13 ar   
    26   18   13 ar   
    27   15   14 ar   
    28   41   14 1    
    29   16   15 ar   
    30   42   15 1    
    31   17   16 ar   
    32   19   16 1    
    33   18   17 ar   
    34   43   17 1    
    35   44   18 1    
    36   20   19 am   
    37   30   19 2    
    38   21   20 1    
    39   45   20 1    
    40   22   21 1    
    41   25   21 1    
    42   46   21 1    
    43   23   22 ar   
    44   24   22 ar   
    45   26   25 1    
    46   47   25 1    
    47   48   25 1    
    48   27   26 1    
    49   49   26 1    
    50   50   26 1    
    51   28   27 ar   
    52   29   27 ar   
    53   51   32 1    
    54   52   32 1    
@<TRIPOS>SUBSTRUCTURE
     1 THG266      1 GROUP   
@<TRIPOS>SET

