#    Name: 4KSG_1_CAVITY_N1_ALL.mol2
#    Modification time : Tue Mar 11 12:02:12 2014

@<TRIPOS>MOLECULE
4KSG_1_CAVITY_N1_ALL.mol2
   62     0     6     0     0
SMALL
NO_CHARGES


@<TRIPOS>ATOM
      1 O           9.3742   -8.6384   17.9188 O.2       2 ALA2        0.0000 
      2 O          10.5356   -9.5852   17.8507 O.2       2 ALA2        0.0000 
      3 NZ         10.2559   -5.2636   19.0736 N.2       3 LYS4        0.0000 
      4 NZ          9.5538   -6.0480   18.0050 N.2       3 LYS4        0.0000 
      5 NZ         10.7152   -6.9948   17.9369 N.2       3 LYS4        0.0000 
      6 CA          8.8517   -6.8323   16.9364 C.3       5 GLY6        0.0000 
      7 CA         10.0131   -7.7791   16.8683 C.3       5 GLY6        0.0000 
      8 NZ         11.1746   -8.7260   16.8002 N.2       3 LYS4        0.0000 
      9 CA          6.9883   -6.6698   15.9359 C.3       5 GLY6        0.0000 
     10 CA          9.7334   -3.4575   18.0913 C.3       5 GLY6        0.0000 
     11 NZ         10.8948   -4.4044   18.0232 N.2       3 LYS4        0.0000 
     12 DU          9.0313   -4.2419   17.0227 H         6 CUB7        0.0000 
     13 DU         10.1927   -5.1887   16.9546 H         6 CUB7        0.0000 
     14 NZ         11.3542   -6.1355   16.8865 N.2       3 LYS4        0.0000 
     15 DU          8.3293   -5.0262   15.9540 H         6 CUB7        0.0000 
     16 DU          9.4907   -5.9730   15.8860 H         6 CUB7        0.0000 
     17 CA         10.6521   -6.9199   15.8179 C.3       5 GLY6        0.0000 
     18 NZ         11.8135   -7.8667   15.7498 N.2       3 LYS4        0.0000 
     19 CA          7.6272   -5.8105   14.8854 C.3       5 GLY6        0.0000 
     20 CA          8.7886   -6.7573   14.8173 C.3       5 GLY6        0.0000 
     21 N           9.2109   -1.6514   17.1089 N.2       2 ALA2        0.0000 
     22 N          10.3723   -2.5983   17.0408 N.2       2 ALA2        0.0000 
     23 N          11.5337   -3.5451   16.9727 N.2       2 ALA2        0.0000 
     24 N           8.5089   -2.4358   16.0403 N.2       2 ALA2        0.0000 
     25 N           9.6703   -3.3826   15.9722 N.2       2 ALA2        0.0000 
     26 N          10.8317   -4.3294   15.9041 N.2       2 ALA2        0.0000 
     27 CA         11.9931   -5.2763   15.8360 C.3       5 GLY6        0.0000 
     28 CA         13.1545   -6.2231   15.7679 C.3       5 GLY6        0.0000 
     29 N           7.8068   -3.2201   14.9717 N.2       2 ALA2        0.0000 
     30 DU          8.9682   -4.1669   14.9036 H         6 CUB7        0.0000 
     31 CA         10.1296   -5.1138   14.8355 C.3       5 GLY6        0.0000 
     32 CA         11.2910   -6.0606   14.7674 C.3       5 GLY6        0.0000 
     33 OG         12.4524   -7.0074   14.6993 O.2       1 SER1        0.0000 
     34 CA          7.1047   -4.0044   13.9031 C.3       5 GLY6        0.0000 
     35 CA          8.2661   -4.9512   13.8350 C.3       5 GLY6        0.0000 
     36 N          10.3092   -2.5233   14.9218 N.2       2 ALA2        0.0000 
     37 N          11.4706   -3.4702   14.8537 N.2       2 ALA2        0.0000 
     38 N          12.6320   -4.4170   14.7856 N.2       2 ALA2        0.0000 
     39 NZ         13.7934   -5.3638   14.7175 N.2       3 LYS4        0.0000 
     40 N           9.6071   -3.3077   13.8532 N.2       2 ALA2        0.0000 
     41 CA         10.7685   -4.2545   13.7851 C.3       5 GLY6        0.0000 
     42 CA         11.9299   -5.2013   13.7170 C.3       5 GLY6        0.0000 
     43 OG         13.0913   -6.1482   13.6489 O.2       1 SER1        0.0000 
     44 CA          7.7437   -3.1451   12.8526 C.3       5 GLY6        0.0000 
     45 CA          8.9051   -4.0920   12.7846 C.3       5 GLY6        0.0000 
     46 NZ         13.2709   -3.5577   13.7352 N.2       3 LYS4        0.0000 
     47 CA         10.2461   -2.4484   12.8027 C.3       5 GLY6        0.0000 
     48 CA         11.4075   -3.3952   12.7346 C.3       5 GLY6        0.0000 
     49 NZ         12.5689   -4.3421   12.6665 N.2       3 LYS4        0.0000 
     50 CA          9.5440   -3.2327   11.7341 C.3       5 GLY6        0.0000 
     51 CA         10.7054   -4.1796   11.6660 C.3       5 GLY6        0.0000 
     52 CA         11.8668   -5.1264   11.5979 C.3       5 GLY6        0.0000 
     53 CA         10.8850   -1.5891   11.7523 C.3       5 GLY6        0.0000 
     54 CA         12.0464   -2.5360   11.6842 C.3       5 GLY6        0.0000 
     55 NZ         13.2078   -3.4828   11.6161 N.2       3 LYS4        0.0000 
     56 CZ         10.1829   -2.3734   10.6837 C.ar      4 PHE5        0.0000 
     57 CA         11.3443   -3.3203   10.6156 C.3       5 GLY6        0.0000 
     58 O          11.5239   -0.7299   10.7018 O.2       2 ALA2        0.0000 
     59 CA         12.6853   -1.6767   10.6337 C.3       5 GLY6        0.0000 
     60 OG         13.8467   -2.6235   10.5657 O.2       1 SER1        0.0000 
     61 CA         11.9833   -2.4610    9.5651 C.3       5 GLY6        0.0000 
     62 CA         13.1447   -3.4079    9.4970 C.3       5 GLY6        0.0000 
@<TRIPOS>BOND
@<TRIPOS>SUBSTRUCTURE
     1 SER1       33 GROUP   
     2 ALA2        1 GROUP   
     3 LYS4        3 GROUP   
     4 PHE5       56 GROUP   
     5 GLY6        6 GROUP   
     6 CUB7       12 GROUP   
@<TRIPOS>SET

