#    Name: 4ksg_920_1_INTS_M
#    Modification time : Tue Mar 25 08:52:07 2014

@<TRIPOS>MOLECULE
4ksg_920_1_INTS_M
   78     0     6     0     0
SMALL
NO_CHARGES


@<TRIPOS>ATOM
      1 CA         10.6070    0.4455    9.1965 C.3       2 GLC5        0.0000 
      2 CA         10.1930   -1.1930   10.2690 C.3       6 GLL5        0.0000 
      3 CA         11.0210    2.0840    8.1240 C.3       4 GLP5        0.0000 
      4 CA          8.1300   -2.0165   10.5150 C.3       2 GLC5        0.0000 
      5 CA          6.0670   -2.8400   10.7610 C.3       4 GLP5        0.0000 
      6 CA          9.1960   -1.4670    8.8330 C.3       2 GLC5        0.0000 
      7 CA          8.1990   -1.7410    7.3970 C.3       4 GLP5        0.0000 
      8 CA          8.7290   -0.1725   10.2275 C.3       2 GLC5        0.0000 
      9 CA          7.2650    0.8480   10.1860 C.3       4 GLP5        0.0000 
     10 CA         13.0530   -0.6550    9.7245 C.3       2 GLC5        0.0000 
     11 CA         12.3010   -2.2000   10.6040 C.3       6 GLL5        0.0000 
     12 CA         13.8050    0.8900    8.8450 C.3       4 GLP5        0.0000 
     13 CA          8.2075   -2.8430   11.3730 C.3       2 GLC5        0.0000 
     14 CA         10.3480   -2.8460   11.9850 C.3       6 GLL5        0.0000 
     15 CA         11.2930   -2.6075   13.8455 C.3       2 GLC5        0.0000 
     16 CA         10.9290   -4.7380   13.7590 C.3       6 GLL5        0.0000 
     17 CA         11.6570   -0.4770   13.9320 C.3       4 GLP5        0.0000 
     18 CA          9.7070   -6.0450   13.0645 C.3       2 GLC5        0.0000 
     19 CA          9.7930   -5.2030   14.6100 C.3       6 GLL5        0.0000 
     20 CA          9.6210   -6.8870   11.5190 C.3       4 GLP5        0.0000 
     21 O           9.1425   -0.9540   15.6265 O.2       1 ALC1        0.0000 
     22 O           8.9270   -1.7500   16.7570 O.2       5 ALL1        0.0000 
     23 O           9.3580   -0.1580   14.4960 O.2       3 ALP1        0.0000 
     24 CA          7.3650   -6.4920   13.7380 C.3       2 GLC5        0.0000 
     25 CA          7.4410   -5.4170   15.3520 C.3       6 GLL5        0.0000 
     26 CA          7.2890   -7.5670   12.1240 C.3       4 GLP5        0.0000 
     27 CA          7.3390   -7.4465   15.1950 C.3       2 GLC5        0.0000 
     28 CA          7.2370   -9.4760   15.0380 C.3       4 GLP5        0.0000 
     29 CA         13.1420   -6.7270   16.5955 C.3       2 GLC5        0.0000 
     30 CA         11.3270   -6.7280   15.6300 C.3       6 GLL5        0.0000 
     31 CA         14.9570   -6.7260   17.5610 C.3       4 GLP5        0.0000 
     32 CA         10.2780   -7.8765   14.2370 C.3       2 GLC5        0.0000 
     33 CA          9.2290   -9.0250   12.8440 C.3       4 GLP5        0.0000 
     34 CA         13.4655   -5.3095   15.8200 C.3       2 GLC5        0.0000 
     35 CA         12.2320   -5.3970   13.9610 C.3       6 GLL5        0.0000 
     36 CA         14.6990   -5.2220   17.6790 C.3       4 GLP5        0.0000 
     37 CA         12.9770   -6.1935   12.2340 C.3       2 GLC5        0.0000 
     38 CA         13.7220   -6.9900   10.5070 C.3       4 GLP5        0.0000 
     39 O          14.5295   -4.8655   13.0690 O.2       1 ALC1        0.0000 
     40 O          13.1180   -4.8670   13.1100 O.2       5 ALL1        0.0000 
     41 O          15.9410   -4.8640   13.0280 O.2       3 ALP1        0.0000 
     42 O          15.2000   -4.0940   12.0020 O.2       1 ALC1        0.0000 
     43 O          14.4590   -3.3240   10.9760 O.2       5 ALL1        0.0000 
     44 CA         14.4585   -0.9530    9.3180 C.3       2 GLC5        0.0000 
     45 CA         15.1120   -2.7960    9.7910 C.3       6 GLL5        0.0000 
     46 CA         16.4470   -1.5255    9.6430 C.3       2 GLC5        0.0000 
     47 CA         17.7820   -0.2550    9.4950 C.3       4 GLP5        0.0000 
     48 CA         13.9110   -4.5745    9.6735 C.3       2 GLC5        0.0000 
     49 CA         12.7100   -6.3530    9.5560 C.3       4 GLP5        0.0000 
     50 CA         13.6100   -2.8925    8.4330 C.3       2 GLC5        0.0000 
     51 CA         12.1080   -2.9890    7.0750 C.3       4 GLP5        0.0000 
     52 CA         11.9045  -10.7915   17.2140 C.3       2 GLC5        0.0000 
     53 CA         10.3810   -9.6800   17.1890 C.3       6 GLL5        0.0000 
     54 CA         13.4280  -11.9030   17.2390 C.3       4 GLP5        0.0000 
     55 CA         11.1130   -1.0555   12.2735 C.3       2 GLC5        0.0000 
     56 CA         10.9450   -2.0750   10.9610 C.3       6 GLL5        0.0000 
     57 CA         11.3385   -2.3115    8.8450 C.3       2 GLC5        0.0000 
     58 CA          9.9573   -4.2468   10.8910 C.3       2 GLC5        0.0000 
     59 CA          9.2680   -6.0330   10.3090 C.3       4 GLP5        0.0000 
     60 CA         12.7165   -4.5055   10.2402 C.3       2 GLC5        0.0000 
     61 CA         12.4155   -2.8235    8.9997 C.3       2 GLC5        0.0000 
     62 CA         13.1450   -3.1160   11.2450 C.3       6 GLL5        0.0000 
     63 CA         11.2015   -1.8933   13.1280 C.3       2 GLC5        0.0000 
     64 CA         12.2818   -5.1025   11.0222 C.3       2 GLC5        0.0000 
     65 CA         11.1440   -3.7730   12.6630 C.3       6 GLL5        0.0000 
     66 CA          6.2465   -3.8110   13.5350 C.3       2 GLC5        0.0000 
     67 CA          8.1620   -3.3160   14.3150 C.3       6 GLL5        0.0000 
     68 CA          4.8500   -4.4730   12.2130 C.3       4 GLP5        0.0000 
     69 CA          5.7991   -4.6860   14.0044 C.3       2 GLC5        0.0000 
     70 CA          6.8060   -4.2740   16.1300 C.3       6 GLL5        0.0000 
     71 CA         12.1500   -1.8858   12.7756 C.3       2 GLC5        0.0000 
     72 CA         12.5630   -3.9310   12.3140 C.3       6 GLL5        0.0000 
     73 CA         10.8598   -5.6328   12.2345 C.3       2 GLC5        0.0000 
     74 CA          7.2365  -10.0207   17.5718 C.3       2 GLC5        0.0000 
     75 CA          8.6510   -9.4390   18.7620 C.3       6 GLL5        0.0000 
     76 CA          6.3650  -10.2950   15.9580 C.3       4 GLP5        0.0000 
     77 CA          8.6895   -8.8679   16.3496 C.3       2 GLC5        0.0000 
     78 CA          9.8010   -7.5270   18.0990 C.3       6 GLL5        0.0000 
@<TRIPOS>BOND
@<TRIPOS>SUBSTRUCTURE
     1 ALC1       21 GROUP        1 X    ALC  0     ROOT ALC X 1
     2 GLC5        1 GROUP        1 X    GLC  0     **** GLC X 6
     3 ALP1       23 GROUP        1 Y    ALP  0     ROOT ALP Y 8
     4 GLP5        3 GROUP        1 Y    GLP  0     **** GLP Y 13
     5 ALL1       22 GROUP        1 Z    ALL  0     ROOT ALL Z 15
     6 GLL5        2 GROUP        1 Z    GLL  0     **** GLL Z 20
@<TRIPOS>SET

