#    Name: 4ksg_920_1_ligand
#    Modification time : Tue Mar 25 08:52:07 2014

@<TRIPOS>MOLECULE
4ksg_920_1_ligand
   59    64     1     0     0
SMALL
NO_CHARGES


@<TRIPOS>ATOM
      1 F31        10.1930   -1.1930   10.2690 F         1 920301      0.0000 
      2 C6         10.9450   -2.0750   10.9610 C.ar      1 920301      0.0000 
      3 C1         12.3010   -2.2000   10.6040 C.ar      1 920301      0.0000 
      4 C5         10.3480   -2.8460   11.9850 C.ar      1 920301      0.0000 
      5 C4         11.1440   -3.7730   12.6630 C.ar      1 920301      0.0000 
      6 C9         10.9290   -4.7380   13.7590 C.ar      1 920301      0.0000 
      7 C10         9.7930   -5.2030   14.6100 C.ar      1 920301      0.0000 
      8 N22         8.5000   -4.6910   14.6650 N.3       1 920301      0.0000 
      9 C26         8.1620   -3.3160   14.3150 C.3       1 920301      0.0000 
     10 C25         7.1240   -2.9820   15.3990 C.3       1 920301      0.0000 
     11 C28         7.6020   -2.3560   16.7140 C.3       1 920301      0.0000 
     12 N29         8.9270   -1.7500   16.7570 N.4       1 920301      0.0000 
     13 C27         7.5120   -3.7290   17.3770 C.3       1 920301      0.0000 
     14 C24         6.8060   -4.2740   16.1300 C.3       1 920301      0.0000 
     15 C30         5.3050   -4.4880   16.3490 C.3       1 920301      0.0000 
     16 C23         7.4410   -5.4170   15.3520 C.3       1 920301      0.0000 
     17 N11        10.0950   -6.1710   15.5120 N.ar      1 920301      0.0000 
     18 C12        11.3270   -6.7280   15.6300 C.ar      1 920301      0.0000 
     19 N13        12.3780   -6.3450   14.8940 N.ar      1 920301      0.0000 
     20 C8         12.2320   -5.3970   13.9610 C.ar      1 920301      0.0000 
     21 N7         13.1180   -4.8670   13.1100 N.pl3     1 920301      0.0000 
     22 C3         12.5630   -3.9310   12.3140 C.ar      1 920301      0.0000 
     23 C2         13.1450   -3.1160   11.2450 C.ar      1 920301      0.0000 
     24 N32        14.4590   -3.3240   10.9760 N.pl3     1 920301      0.0000 
     25 C33        15.1120   -2.7960    9.7910 C.3       1 920301      0.0000 
     26 O14        11.5770   -7.7190   16.5250 O.3       1 920301      0.0000 
     27 C15        10.5850   -8.3050   17.2580 C.ar      1 920301      0.0000 
     28 C20        10.3810   -9.6800   17.1890 C.ar      1 920301      0.0000 
     29 N19         9.4110  -10.2190   17.9540 N.ar      1 920301      0.0000 
     30 C18         8.6510   -9.4390   18.7620 C.ar      1 920301      0.0000 
     31 C21         7.5650  -10.0540   19.6090 C.3       1 920301      0.0000 
     32 N17         8.8450   -8.1050   18.8340 N.ar      1 920301      0.0000 
     33 C16         9.8010   -7.5270   18.0990 C.ar      1 920301      0.0000 
     34 H          12.6798   -1.6006    9.8510 H         1 920301      0.0000 
     35 H           9.3714   -2.7242   12.2145 H         1 920301      0.0000 
     36 H           7.6943   -3.2535   13.3687 H         1 920301      0.0000 
     37 H           8.9885   -2.6660   14.4269 H         1 920301      0.0000 
     38 H           6.2609   -2.5692   15.0907 H         1 920301      0.0000 
     39 H           6.7995   -1.7963   17.0948 H         1 920301      0.0000 
     40 H           6.8643   -3.6986   18.1529 H         1 920301      0.0000 
     41 H           8.4334   -4.1378   17.4565 H         1 920301      0.0000 
     42 H           7.8285   -6.1237   16.0324 H         1 920301      0.0000 
     43 H           6.7328   -5.8091   14.6758 H         1 920301      0.0000 
     44 H          14.0743   -5.1288   13.0655 H         1 920301      0.0000 
     45 H          15.0592   -3.8815   11.6234 H         1 920301      0.0000 
     46 H          10.9624  -10.2483   16.5681 H         1 920301      0.0000 
     47 H           9.9736   -6.5070   18.1405 H         1 920301      0.0000 
     48 H           9.6454   -2.4123   16.5441 H         1 920301      0.0000 
     49 H           9.0145   -1.0013   16.0999 H         1 920301      0.0000 
     50 H           9.1339   -1.3732   17.6599 H         1 920301      0.0000 
     51 H           5.1184   -5.3439   16.8313 H         1 920301      0.0000 
     52 H           4.9001   -3.7517   16.8912 H         1 920301      0.0000 
     53 H           4.8049   -4.5240   15.4838 H         1 920301      0.0000 
     54 H          16.0784   -3.0503    9.7551 H         1 920301      0.0000 
     55 H          14.6882   -3.1352    8.9511 H         1 920301      0.0000 
     56 H          15.0703   -1.7974    9.7577 H         1 920301      0.0000 
     57 H           7.9302  -10.7336   20.2452 H         1 920301      0.0000 
     58 H           7.0871   -9.3670   20.1564 H         1 920301      0.0000 
     59 H           6.8755  -10.5157   19.0510 H         1 920301      0.0000 
@<TRIPOS>BOND
     1    2    1 1    
     2    3    2 ar   
     3    4    2 ar   
     4   23    3 ar   
     5   34    3 1    
     6    5    4 ar   
     7   35    4 1    
     8    6    5 1    
     9   22    5 ar   
    10    7    6 ar   
    11   20    6 ar   
    12    8    7 1    
    13   17    7 ar   
    14    9    8 1    
    15   16    8 1    
    16   10    9 1    
    17   36    9 1    
    18   37    9 1    
    19   11   10 1    
    20   14   10 1    
    21   38   10 1    
    22   12   11 1    
    23   13   11 1    
    24   39   11 1    
    25   48   12 1    
    26   49   12 1    
    27   50   12 1    
    28   14   13 1    
    29   40   13 1    
    30   41   13 1    
    31   15   14 1    
    32   16   14 1    
    33   51   15 1    
    34   52   15 1    
    35   53   15 1    
    36   42   16 1    
    37   43   16 1    
    38   18   17 ar   
    39   19   18 ar   
    40   26   18 1    
    41   20   19 ar   
    42   21   20 1    
    43   22   21 1    
    44   44   21 1    
    45   23   22 ar   
    46   24   23 1    
    47   25   24 1    
    48   45   24 1    
    49   54   25 1    
    50   55   25 1    
    51   56   25 1    
    52   27   26 1    
    53   28   27 ar   
    54   33   27 ar   
    55   29   28 ar   
    56   46   28 1    
    57   30   29 ar   
    58   31   30 1    
    59   32   30 ar   
    60   57   31 1    
    61   58   31 1    
    62   59   31 1    
    63   33   32 ar   
    64   47   33 1    
@<TRIPOS>SUBSTRUCTURE
     1 920301      1 GROUP   
@<TRIPOS>SET

