#    Name: 3n3y_FAD_7_INTS_M
#    Modification time : Tue Mar 25 00:39:02 2014

@<TRIPOS>MOLECULE
3n3y_FAD_7_INTS_M
  100     0    12     0     0
SMALL
NO_CHARGES


@<TRIPOS>ATOM
      1 N           4.8655   -6.5330   67.1855 N.am      2 SEC2        0.0000 
      2 N           5.1900   -4.9510   67.5840 N.am     10 SEL2        0.0000 
      3 N           4.5410   -8.1150   66.7870 N.am      6 SEP2        0.0000 
      4 NZ          1.5955   -3.4515   66.2320 N.4       3 LYC4        0.0000 
      5 NZ          2.7890   -4.3190   67.0700 N.4      11 LYL4        0.0000 
      6 NZ         -0.3700   -3.6460   65.5570 N.4       7 LYP4        0.0000 
      7 N           2.8385   -5.5850   67.7830 N.am      2 SEC2        0.0000 
      8 N           2.7890   -4.3190   67.0700 N.am     10 SEL2        0.0000 
      9 N           2.8880   -6.8510   68.4960 N.am      6 SEP2        0.0000 
     10 N           1.4165   -4.4860   66.6935 N.am      2 SEC2        0.0000 
     11 N           0.0440   -4.6530   66.3170 N.am      6 SEP2        0.0000 
     12 N           1.5955   -3.4515   66.2320 N.am      2 SEC2        0.0000 
     13 N           0.4020   -2.5840   65.3940 N.am      6 SEP2        0.0000 
     14 CA          6.8120   -3.3525   62.2975 C.3       4 GLC5        0.0000 
     15 CA          5.9870   -2.6220   63.8540 C.3      12 GLL5        0.0000 
     16 CA          7.6370   -4.0830   60.7410 C.3       8 GLP5        0.0000 
     17 CA          4.0530   -3.4270   60.6400 C.3       4 GLC5        0.0000 
     18 CA          4.4380   -2.4670   62.1350 C.3      12 GLL5        0.0000 
     19 CA          3.6680   -4.3870   59.1450 C.3       8 GLP5        0.0000 
     20 CA         -1.2055   -1.4095   61.5520 C.3       4 GLC5        0.0000 
     21 CA         -0.2790   -3.1260   61.1330 C.3      12 GLL5        0.0000 
     22 CA         -2.1320    0.3070   61.9710 C.3       8 GLP5        0.0000 
     23 CA          0.4050   -3.7115   59.4430 C.3       4 GLC5        0.0000 
     24 CA          1.0890   -4.2970   57.7530 C.3       8 GLP5        0.0000 
     25 N          -1.4220   -1.7555   59.3995 N.am      2 SEC2        0.0000 
     26 N          -0.3800   -2.0700   60.2540 N.am     10 SEL2        0.0000 
     27 N          -2.4640   -1.4410   58.5450 N.am      6 SEP2        0.0000 
     28 CA         -0.7105   -0.4835   60.9800 C.3       4 GLC5        0.0000 
     29 CA          0.7110   -1.2740   59.9890 C.3      12 GLL5        0.0000 
     30 CA          0.9000   -2.7855   58.8710 C.3       4 GLC5        0.0000 
     31 CA          0.9535    0.3695   61.0405 C.3       4 GLC5        0.0000 
     32 CA          1.1960    2.0130   62.0920 C.3       8 GLP5        0.0000 
     33 CA          0.9940   -0.8510   57.9635 C.3       4 GLC5        0.0000 
     34 CA          1.2770   -0.4280   55.9380 C.3       8 GLP5        0.0000 
     35 N          -4.4875   -0.0835   72.5805 N.am      2 SEC2        0.0000 
     36 N          -4.9940    1.3190   72.3450 N.am     10 SEL2        0.0000 
     37 N          -3.9810   -1.4860   72.8160 N.am      6 SEP2        0.0000 
     38 N          -4.2860    0.0700   71.4615 N.am      2 SEC2        0.0000 
     39 N          -3.5780   -1.1790   70.5780 N.am      6 SEP2        0.0000 
     40 N          -6.3740    1.3125   72.2975 N.am      2 SEC2        0.0000 
     41 N          -7.7540    1.3060   72.2500 N.am      6 SEP2        0.0000 
     42 O          -5.9280    2.8675   74.2170 O.2       1 ALC1        0.0000 
     43 O          -4.5070    3.0120   73.7200 O.2       9 ALL1        0.0000 
     44 O          -7.3490    2.7230   74.7140 O.2       5 ALP1        0.0000 
     45 CA          4.4625    6.9150   76.7985 C.3       4 GLC5        0.0000 
     46 CA          3.4250    5.0960   76.0230 C.3      12 GLL5        0.0000 
     47 CA          5.5000    8.7340   77.5740 C.3       8 GLP5        0.0000 
     48 CA          4.5420    4.7990   77.8425 C.3       4 GLC5        0.0000 
     49 CA          5.6590    4.5020   79.6620 C.3       8 GLP5        0.0000 
     50 CA          5.9745    2.3605   73.3235 C.3       4 GLC5        0.0000 
     51 CA          4.2310    2.8810   74.3190 C.3      12 GLL5        0.0000 
     52 CA          7.7180    1.8400   72.3280 C.3       8 GLP5        0.0000 
     53 CA          5.2055    1.2745   75.3145 C.3       4 GLC5        0.0000 
     54 CA          6.1800   -0.3320   76.3100 C.3       8 GLP5        0.0000 
     55 CA         -0.7500    2.2745   75.4285 C.3       4 GLC5        0.0000 
     56 CA          0.4650    2.7910   73.9290 C.3      12 GLL5        0.0000 
     57 CA         -1.9650    1.7580   76.9280 C.3       8 GLP5        0.0000 
     58 CA         -0.1175   -1.3420   72.5205 C.3       4 GLC5        0.0000 
     59 CA         -0.1280    0.8680   72.4000 C.3      12 GLL5        0.0000 
     60 CA         -0.1070   -3.5520   72.6410 C.3       8 GLP5        0.0000 
     61 CA         -1.2885    0.3310   73.9630 C.3       4 GLC5        0.0000 
     62 CA         -2.4490   -0.2060   75.5260 C.3       8 GLP5        0.0000 
     63 O          -0.9865    2.0165   68.9665 O.2       1 ALC1        0.0000 
     64 O          -0.6420    1.9150   70.2940 O.2       9 ALL1        0.0000 
     65 O          -1.3310    2.1180   67.6390 O.2       5 ALP1        0.0000 
     66 CA          3.9320   -2.9720   70.8180 C.3       4 GLC5        0.0000 
     67 CA          2.6360   -1.6630   69.8940 C.3      12 GLL5        0.0000 
     68 CA          5.2280   -4.2810   71.7420 C.3       8 GLP5        0.0000 
     69 NZ          4.1740    0.8095   65.9205 N.4       3 LYC4        0.0000 
     70 NZ          4.7350   -0.1130   67.0000 N.4      11 LYL4        0.0000 
     71 NZ          2.5710    1.4520   64.0620 N.4       7 LYP4        0.0000 
     72 N           4.1740    0.8095   65.9205 N.am      2 SEC2        0.0000 
     73 N           4.7350   -0.1130   67.0000 N.am     10 SEL2        0.0000 
     74 N           3.6130    1.7320   64.8410 N.am      6 SEP2        0.0000 
     75 N           6.2015   -0.6780   67.4675 N.am      2 SEC2        0.0000 
     76 N           7.6680   -1.2430   67.9350 N.am      6 SEP2        0.0000 
     77 NZ          2.1685   -0.4360   65.5340 N.4       3 LYC4        0.0000 
     78 NZ          2.5340   -1.2710   66.7370 N.4      11 LYL4        0.0000 
     79 NZ          1.4680   -1.9275   66.0655 N.4       3 LYC4        0.0000 
     80 N           2.1685   -0.4360   65.5340 N.am      2 SEC2        0.0000 
     81 N           2.5340   -1.2710   66.7370 N.am     10 SEL2        0.0000 
     82 N           1.8030    0.3990   64.3310 N.am      6 SEP2        0.0000 
     83 N           1.4680   -1.9275   66.0655 N.am      2 SEC2        0.0000 
     84 CA          5.6873   -5.0335   64.3928 C.3       4 GLC5        0.0000 
     85 CA          5.9840   -3.4840   65.1030 C.3      12 GLL5        0.0000 
     86 CA          5.3890   -7.0140   64.3070 C.3       8 GLP5        0.0000 
     87 CA          5.6745   -2.1608   60.8113 C.3       4 GLC5        0.0000 
     88 CA          6.8460   -2.5490   59.1960 C.3       8 GLP5        0.0000 
     89 CA          2.5755   -3.6845   60.3708 C.3       4 GLC5        0.0000 
     90 CA          2.0220   -2.5740   61.4510 C.3      12 GLL5        0.0000 
     91 CA         -0.2498    3.3860   76.3648 C.3       4 GLC5        0.0000 
     92 CA          0.0830    3.8610   74.7580 C.3      12 GLL5        0.0000 
     93 CA         -1.0660    2.5410   77.6380 C.3       8 GLP5        0.0000 
     94 CA          2.8751    6.1643   74.5416 C.3       4 GLC5        0.0000 
     95 CA          3.1770    7.5590   73.3930 C.3       8 GLP5        0.0000 
     96 CA          3.7122    4.5935   72.9253 C.3       4 GLC5        0.0000 
     97 CA          2.7760    3.2190   74.4700 C.3      12 GLL5        0.0000 
     98 CA          3.9210    6.1370   71.4560 C.3       8 GLP5        0.0000 
     99 CA          0.9397   -2.2995   71.4375 C.3       4 GLC5        0.0000 
    100 CA          1.8970   -0.8230   70.9140 C.3      12 GLL5        0.0000 
@<TRIPOS>BOND
@<TRIPOS>SUBSTRUCTURE
     1 ALC1       42 GROUP        1 X    ALC  0     ROOT ALC X 1
     2 SEC2        1 GROUP        1 X    SEC  0     **** SEC X 2
     3 LYC4        4 GROUP        1 X    LYC  0     **** LYC X 4
     4 GLC5       14 GROUP        1 X    GLC  0     **** GLC X 6
     5 ALP1       44 GROUP        1 Y    ALP  0     ROOT ALP Y 8
     6 SEP2        3 GROUP        1 Y    SEP  0     **** SEP Y 9
     7 LYP4        6 GROUP        1 Y    LYP  0     **** LYP Y 11
     8 GLP5       16 GROUP        1 Y    GLP  0     **** GLP Y 13
     9 ALL1       43 GROUP        1 Z    ALL  0     ROOT ALL Z 15
    10 SEL2        2 GROUP        1 Z    SEL  0     **** SEL Z 16
    11 LYL4        5 GROUP        1 Z    LYL  0     **** LYL Z 18
    12 GLL5       15 GROUP        1 Z    GLL  0     **** GLL Z 20
@<TRIPOS>SET

