#    Name: 3n3y_FAD_7_ligand
#    Modification time : Tue Mar 25 00:39:02 2014

@<TRIPOS>MOLECULE
3n3y_FAD_7_ligand
   84    89     1     0     0
SMALL
NO_CHARGES


@<TRIPOS>ATOM
      1 PA          4.2470   -3.9260   66.9900 P.3       1 FAD302      0.0000 
      2 O1A         5.1900   -4.9510   67.5840 O.co2     1 FAD302      0.0000 
      3 O2A         2.7890   -4.3190   67.0700 O.co2     1 FAD302      0.0000 
      4 O5B         4.6340   -3.6800   65.4610 O.3       1 FAD302      0.0000 
      5 C5B         5.9840   -3.4840   65.1030 C.3       1 FAD302      0.0000 
      6 C4B         5.9870   -2.6220   63.8540 C.3       1 FAD302      0.0000 
      7 O4B         5.3260   -3.3270   62.8190 O.3       1 FAD302      0.0000 
      8 C3B         5.1840   -1.3390   64.0750 C.3       1 FAD302      0.0000 
      9 O3B         6.0000   -0.2810   64.5200 O.3       1 FAD302      0.0000 
     10 C2B         4.5680   -1.0780   62.7180 C.3       1 FAD302      0.0000 
     11 O2B         5.5110   -0.4390   61.8960 O.3       1 FAD302      0.0000 
     12 C1B         4.4380   -2.4670   62.1350 C.3       1 FAD302      0.0000 
     13 N9A         3.0810   -3.0370   62.1800 N.pl3     1 FAD302      0.0000 
     14 C8A         2.6610   -4.1240   62.9070 C.2       1 FAD302      0.0000 
     15 N7A         1.3550   -4.3330   62.6290 N.2       1 FAD302      0.0000 
     16 C5A         0.9440   -3.3900   61.7420 C.ar      1 FAD302      0.0000 
     17 C6A        -0.2790   -3.1260   61.1330 C.ar      1 FAD302      0.0000 
     18 N6A        -1.2840   -3.9930   61.2340 N.pl3     1 FAD302      0.0000 
     19 N1A        -0.3800   -2.0700   60.2540 N.ar      1 FAD302      0.0000 
     20 C2A         0.7110   -1.2740   59.9890 C.ar      1 FAD302      0.0000 
     21 N3A         1.9120   -1.5310   60.6020 N.ar      1 FAD302      0.0000 
     22 C4A         2.0220   -2.5740   61.4510 C.ar      1 FAD302      0.0000 
     23 N1         -2.7950    1.6390   72.7560 N.2       1 FAD302      0.0000 
     24 C2         -4.1300    1.9600   72.9150 C.2       1 FAD302      0.0000 
     25 O2         -4.9940    1.3190   72.3450 O.2       1 FAD302      0.0000 
     26 N3         -4.5070    3.0120   73.7200 N.am      1 FAD302      0.0000 
     27 C4         -3.5600    3.7570   74.3820 C.2       1 FAD302      0.0000 
     28 O4         -3.9290    4.6880   75.0840 O.2       1 FAD302      0.0000 
     29 C4X        -2.2070    3.4490   74.2430 C.2       1 FAD302      0.0000 
     30 N5         -1.2500    4.1990   74.9070 N.2       1 FAD302      0.0000 
     31 C5X         0.0830    3.8610   74.7580 C.ar      1 FAD302      0.0000 
     32 C6          1.0500    4.6010   75.4250 C.ar      1 FAD302      0.0000 
     33 C7          2.3930    4.2850   75.2900 C.ar      1 FAD302      0.0000 
     34 C7M         3.4250    5.0960   76.0230 C.3       1 FAD302      0.0000 
     35 C8          2.7760    3.2190   74.4700 C.ar      1 FAD302      0.0000 
     36 C8M         4.2310    2.8810   74.3190 C.3       1 FAD302      0.0000 
     37 C9          1.8160    2.4720   73.7890 C.ar      1 FAD302      0.0000 
     38 C9A         0.4650    2.7910   73.9290 C.ar      1 FAD302      0.0000 
     39 N10        -0.4980    2.0510   73.2620 N.pl3     1 FAD302      0.0000 
     40 C10        -1.8300    2.3800   73.4210 C.2       1 FAD302      0.0000 
     41 C1'        -0.1280    0.8680   72.4000 C.3       1 FAD302      0.0000 
     42 C2'         0.3680    1.2230   71.0040 C.3       1 FAD302      0.0000 
     43 O2'        -0.6420    1.9150   70.2940 O.3       1 FAD302      0.0000 
     44 C3'         0.7770   -0.0390   70.2340 C.3       1 FAD302      0.0000 
     45 O3'        -0.3220   -0.8970   70.0110 O.3       1 FAD302      0.0000 
     46 C4'         1.8970   -0.8230   70.9140 C.3       1 FAD302      0.0000 
     47 O4'         2.8530    0.0840   71.3930 O.3       1 FAD302      0.0000 
     48 C5'         2.6360   -1.6630   69.8940 C.3       1 FAD302      0.0000 
     49 O5'         3.3710   -0.7590   69.0760 O.3       1 FAD302      0.0000 
     50 P           3.7830   -1.1450   67.5640 P.3       1 FAD302      0.0000 
     51 O1P         4.7350   -0.1130   67.0000 O.co2     1 FAD302      0.0000 
     52 O2P         2.5340   -1.2710   66.7370 O.co2     1 FAD302      0.0000 
     53 O3P         4.5960   -2.5290   67.7300 O.3       1 FAD302      0.0000 
     54 H           6.4897   -4.4179   64.8678 H         1 FAD302      0.0000 
     55 H           6.5448   -2.9603   65.8739 H         1 FAD302      0.0000 
     56 H           6.9796   -2.3666   63.5918 H         1 FAD302      0.0000 
     57 H           4.3853   -1.5836   64.7542 H         1 FAD302      0.0000 
     58 H           3.6591   -0.6371   62.7943 H         1 FAD302      0.0000 
     59 H           4.7555   -2.4046   61.0756 H         1 FAD302      0.0000 
     60 H           3.2083   -4.6361   63.5036 H         1 FAD302      0.0000 
     61 H          -2.1220   -3.7544   60.7432 H         1 FAD302      0.0000 
     62 H          -1.1104   -4.8048   61.7915 H         1 FAD302      0.0000 
     63 H           0.6245   -0.4838   59.3288 H         1 FAD302      0.0000 
     64 H          -5.5116    3.2427   73.8267 H         1 FAD302      0.0000 
     65 H           0.7661    5.3915   76.0252 H         1 FAD302      0.0000 
     66 H           2.1007    1.6922   73.1883 H         1 FAD302      0.0000 
     67 H          -1.0069    0.1989   72.3038 H         1 FAD302      0.0000 
     68 H           0.6552    0.2744   72.9136 H         1 FAD302      0.0000 
     69 H           1.2579    1.8400   71.1149 H         1 FAD302      0.0000 
     70 H           1.1831    0.3003   69.2561 H         1 FAD302      0.0000 
     71 H           1.5043   -1.4419   71.6635 H         1 FAD302      0.0000 
     72 H           1.9051   -2.2265   69.3223 H         1 FAD302      0.0000 
     73 H           3.2862   -2.3511   70.4255 H         1 FAD302      0.0000 
     74 H           4.3523    4.7690   75.8409 H         1 FAD302      0.0000 
     75 H           3.3968    6.0598   75.7580 H         1 FAD302      0.0000 
     76 H           3.2907    5.0602   77.0133 H         1 FAD302      0.0000 
     77 H           4.7536    3.6475   73.9457 H         1 FAD302      0.0000 
     78 H           4.6492    2.6401   75.1949 H         1 FAD302      0.0000 
     79 H           4.3701    2.1045   73.7044 H         1 FAD302      0.0000 
     80 H           5.6529   -0.0514   65.4293 H         1 FAD302      0.0000 
     81 H           6.1092    0.0567   62.5256 H         1 FAD302      0.0000 
     82 H          -0.4778    1.6968   69.3320 H         1 FAD302      0.0000 
     83 H          -0.6928   -0.6176   69.1253 H         1 FAD302      0.0000 
     84 H           3.5335    0.1520   70.6634 H         1 FAD302      0.0000 
@<TRIPOS>BOND
     1    2    1 ar   
     2    3    1 ar   
     3    4    1 1    
     4   53    1 1    
     5    5    4 1    
     6    6    5 1    
     7   54    5 1    
     8   55    5 1    
     9    7    6 1    
    10    8    6 1    
    11   56    6 1    
    12   12    7 1    
    13    9    8 1    
    14   10    8 1    
    15   57    8 1    
    16   80    9 1    
    17   11   10 1    
    18   12   10 1    
    19   58   10 1    
    20   81   11 1    
    21   13   12 1    
    22   59   12 1    
    23   14   13 1    
    24   22   13 1    
    25   15   14 2    
    26   60   14 1    
    27   16   15 1    
    28   17   16 ar   
    29   22   16 ar   
    30   18   17 1    
    31   19   17 ar   
    32   61   18 1    
    33   62   18 1    
    34   20   19 ar   
    35   21   20 ar   
    36   63   20 1    
    37   22   21 ar   
    38   24   23 1    
    39   40   23 2    
    40   25   24 2    
    41   26   24 am   
    42   27   26 am   
    43   64   26 1    
    44   28   27 2    
    45   29   27 1    
    46   30   29 2    
    47   40   29 1    
    48   31   30 1    
    49   32   31 ar   
    50   38   31 ar   
    51   33   32 ar   
    52   65   32 1    
    53   34   33 1    
    54   35   33 ar   
    55   74   34 1    
    56   75   34 1    
    57   76   34 1    
    58   36   35 1    
    59   37   35 ar   
    60   77   36 1    
    61   78   36 1    
    62   79   36 1    
    63   38   37 ar   
    64   66   37 1    
    65   39   38 1    
    66   40   39 1    
    67   41   39 1    
    68   42   41 1    
    69   67   41 1    
    70   68   41 1    
    71   43   42 1    
    72   44   42 1    
    73   69   42 1    
    74   82   43 1    
    75   45   44 1    
    76   46   44 1    
    77   70   44 1    
    78   83   45 1    
    79   47   46 1    
    80   48   46 1    
    81   71   46 1    
    82   84   47 1    
    83   49   48 1    
    84   72   48 1    
    85   73   48 1    
    86   50   49 1    
    87   51   50 ar   
    88   52   50 ar   
    89   53   50 1    
@<TRIPOS>SUBSTRUCTURE
     1 FAD302      1 GROUP   
@<TRIPOS>SET

