#    Name: 4c8b_0LI_2_INTS_M
#    Modification time : Tue Mar 25 09:05:13 2014

@<TRIPOS>MOLECULE
4c8b_0LI_2_INTS_M
  104     0     9     0     0
SMALL
NO_CHARGES


@<TRIPOS>ATOM
      1 CA         14.9490   -2.2845   23.3110 C.3       3 GLC5        0.0000 
      2 CA         15.8030   -0.6070   24.0540 C.3       9 GLL5        0.0000 
      3 CA         14.0950   -3.9620   22.5680 C.3       6 GLP5        0.0000 
      4 CA         15.9145    4.1990   22.8960 C.3       3 GLC5        0.0000 
      5 CA         16.1800    2.0970   23.5020 C.3       9 GLL5        0.0000 
      6 CA         15.6490    6.3010   22.2900 C.3       6 GLP5        0.0000 
      7 CA         11.0745    1.8010   22.3375 C.3       3 GLC5        0.0000 
      8 CA         11.2600    2.9790   23.9930 C.3       9 GLL5        0.0000 
      9 CA         10.8890    0.6230   20.6820 C.3       6 GLP5        0.0000 
     10 CA          9.6810    6.4630   25.7405 C.3       3 GLC5        0.0000 
     11 CA          7.6710    6.5310   25.5450 C.3       9 GLL5        0.0000 
     12 CA         11.6910    6.3950   25.9360 C.3       6 GLP5        0.0000 
     13 CA          5.6435    3.6865   23.4855 C.3       3 GLC5        0.0000 
     14 CA          5.6380    5.3310   24.6810 C.3       9 GLL5        0.0000 
     15 CA          5.6490    2.0420   22.2900 C.3       6 GLP5        0.0000 
     16 CA         22.6775    4.4520   19.8940 C.3       3 GLC5        0.0000 
     17 CA         22.8980    3.5610   21.8430 C.3       9 GLL5        0.0000 
     18 CA         22.4570    5.3430   17.9450 C.3       6 GLP5        0.0000 
     19 CA         21.1845    4.7555   21.4760 C.3       3 GLC5        0.0000 
     20 CA         19.4710    5.9500   21.1090 C.3       6 GLP5        0.0000 
     21 CA         22.2045    1.4935   19.2515 C.3       3 GLC5        0.0000 
     22 CA         21.3770    2.3480   20.8360 C.3       9 GLL5        0.0000 
     23 CA         23.0320    0.6390   17.6670 C.3       6 GLP5        0.0000 
     24 CA         21.2235    3.6075   19.1785 C.3       3 GLC5        0.0000 
     25 CA         21.0700    4.8670   17.5210 C.3       6 GLP5        0.0000 
     26 CA         21.3050    1.4685   24.0200 C.3       3 GLC5        0.0000 
     27 CA         20.9400    2.5990   22.1570 C.3       9 GLL5        0.0000 
     28 CA         21.6700    0.3380   25.8830 C.3       6 GLP5        0.0000 
     29 CA         18.1630    2.4075   21.5185 C.3       3 GLC5        0.0000 
     30 CA         19.6350    2.1160   22.6520 C.3       9 GLL5        0.0000 
     31 CA         16.6910    2.6990   20.3850 C.3       6 GLP5        0.0000 
     32 CA         19.9400   -0.3890   24.7505 C.3       3 GLC5        0.0000 
     33 CA         18.2100   -1.1160   23.6180 C.3       9 GLL5        0.0000 
     34 CA         19.9105   -1.0450   22.5375 C.3       3 GLC5        0.0000 
     35 CA         21.6110   -0.9740   21.4570 C.3       6 GLP5        0.0000 
     36 CA         19.3470   -2.8465   23.7590 C.3       3 GLC5        0.0000 
     37 CA         20.4840   -4.5770   23.9000 C.3       6 GLP5        0.0000 
     38 N          13.8195    5.0175   23.9690 N.am      2 SEC2        0.0000 
     39 N          14.0310    3.7830   23.5240 N.am      8 SEL2        0.0000 
     40 N          13.6080    6.2520   24.4140 N.am      5 SEP2        0.0000 
     41 O          12.2935    1.1580   25.1780 O.2       1 ALC1        0.0000 
     42 O          12.4260    2.1650   24.1020 O.2       7 ALL1        0.0000 
     43 O          12.1610    0.1510   26.2540 O.2       4 ALP1        0.0000 
     44 CA         12.7300    5.3375   22.5255 C.3       3 GLC5        0.0000 
     45 CA         11.2380    3.8820   22.9230 C.3       9 GLL5        0.0000 
     46 CA         14.2220    6.7930   22.1280 C.3       6 GLP5        0.0000 
     47 CA          9.8065    5.1405   18.9695 C.3       3 GLC5        0.0000 
     48 CA          9.0700    5.4730   20.7540 C.3       9 GLL5        0.0000 
     49 CA         10.5430    4.8080   17.1850 C.3       6 GLP5        0.0000 
     50 CA          7.5780    6.3250   19.5670 C.3       3 GLC5        0.0000 
     51 CA          6.0860    7.1770   18.3800 C.3       6 GLP5        0.0000 
     52 CA         10.9025    5.2005   19.0595 C.3       3 GLC5        0.0000 
     53 CA         11.2620    5.5930   20.9340 C.3       9 GLL5        0.0000 
     54 CA         11.5725    7.6140   20.6370 C.3       3 GLC5        0.0000 
     55 CA         11.8830    9.6350   20.3400 C.3       6 GLP5        0.0000 
     56 CA          9.7720    8.3960   22.6620 C.3       3 GLC5        0.0000 
     57 CA         10.0210    6.8810   22.1420 C.3       9 GLL5        0.0000 
     58 CA          9.5230    9.9110   23.1820 C.3       6 GLP5        0.0000 
     59 CA         10.9520    8.2580   21.2410 C.3       3 GLC5        0.0000 
     60 CA         10.8560    6.6380   24.0390 C.3       3 GLC5        0.0000 
     61 CA          5.5650    8.4160   24.9525 C.3       3 GLC5        0.0000 
     62 CA          4.9370    6.4840   25.3470 C.3       9 GLL5        0.0000 
     63 CA          6.1930   10.3480   24.5580 C.3       6 GLP5        0.0000 
     64 CA         20.3950    1.1173   24.3612 C.3       3 GLC5        0.0000 
     65 CA         18.6050    1.6770   23.0270 C.3       9 GLL5        0.0000 
     66 CA         20.3655    0.4613   22.1483 C.3       3 GLC5        0.0000 
     67 CA         18.8525    2.9852   24.4303 C.3       3 GLC5        0.0000 
     68 CA         18.5850    4.0740   26.0210 C.3       6 GLP5        0.0000 
     69 CA         17.4795   -1.5787   25.1968 C.3       3 GLC5        0.0000 
     70 CA         17.0740   -0.1550   23.7070 C.3       9 GLL5        0.0000 
     71 CA         17.3170   -2.5220   26.7310 C.3       6 GLP5        0.0000 
     72 CA         17.0964    1.6680   21.9289 C.3       3 GLC5        0.0000 
     73 CA         15.6388   -0.3690   25.8707 C.3       3 GLC5        0.0000 
     74 CA         16.0150   -0.5810   27.6530 C.3       6 GLP5        0.0000 
     75 CA         15.7142   -0.7500   22.2412 C.3       3 GLC5        0.0000 
     76 CA         16.1660   -1.3430   20.3940 C.3       6 GLP5        0.0000 
     77 CA         13.5062    0.4505   22.5163 C.3       3 GLC5        0.0000 
     78 CA         14.7220    0.2930   24.1230 C.3       9 GLL5        0.0000 
     79 CA         12.1930   -0.0640   21.0270 C.3       6 GLP5        0.0000 
     80 CA         16.1197    2.2830   22.0400 C.3       3 GLC5        0.0000 
     81 CA         14.9170    1.6370   23.8880 C.3       9 GLL5        0.0000 
     82 CA         10.3972    1.0045   25.0925 C.3       3 GLC5        0.0000 
     83 CA         10.0880   -0.9070   25.7940 C.3       6 GLP5        0.0000 
     84 CA         11.1988    4.6555   25.1635 C.3       3 GLC5        0.0000 
     85 CA         10.1530    2.8530   24.7890 C.3       9 GLL5        0.0000 
     86 CA         10.3575    5.2532   24.9960 C.3       3 GLC5        0.0000 
     87 CA          9.0300    3.6540   24.5770 C.3       9 GLL5        0.0000 
     88 CA         10.8963    3.0237   21.2620 C.3       3 GLC5        0.0000 
     89 CA         10.1130    4.6830   22.7030 C.3       9 GLL5        0.0000 
     90 CA         11.1170    1.7650   19.7110 C.3       6 GLP5        0.0000 
     91 CA         11.1833    5.3387   24.3745 C.3       3 GLC5        0.0000 
     92 CA          7.0122    3.3959   23.0020 C.3       3 GLC5        0.0000 
     93 CA          6.7432    8.4623   25.3805 C.3       3 GLC5        0.0000 
     94 CA          3.7748    5.2803   23.7165 C.3       3 GLC5        0.0000 
     95 CA          2.2620    4.6530   22.4190 C.3       6 GLP5        0.0000 
     96 CA         24.8005    2.7125   23.5807 C.3       3 GLC5        0.0000 
     97 CA         24.0590    4.8500   23.5020 C.3       9 GLL5        0.0000 
     98 CA         25.5600    0.8360   24.2980 C.3       6 GLP5        0.0000 
     99 CA         21.3848    0.7498   21.4768 C.3       3 GLC5        0.0000 
    100 CA         19.9339    4.1224   21.5916 C.3       3 GLC5        0.0000 
    101 CA         16.9265   -0.8223   21.9961 C.3       3 GLC5        0.0000 
    102 CA         17.2540    1.1810   23.4500 C.3       9 GLL5        0.0000 
    103 CA         10.7711    3.6742   20.3815 C.3       3 GLC5        0.0000 
    104 CA         12.2874    6.5252   21.9145 C.3       3 GLC5        0.0000 
@<TRIPOS>BOND
@<TRIPOS>SUBSTRUCTURE
     1 ALC1       41 GROUP        1 X    ALC  0     ROOT ALC X 1
     2 SEC2       38 GROUP        1 X    SEC  0     **** SEC X 2
     3 GLC5        1 GROUP        1 X    GLC  0     **** GLC X 6
     4 ALP1       43 GROUP        1 Y    ALP  0     ROOT ALP Y 8
     5 SEP2       40 GROUP        1 Y    SEP  0     **** SEP Y 9
     6 GLP5        3 GROUP        1 Y    GLP  0     **** GLP Y 13
     7 ALL1       42 GROUP        1 Z    ALL  0     ROOT ALL Z 15
     8 SEL2       39 GROUP        1 Z    SEL  0     **** SEL Z 16
     9 GLL5        2 GROUP        1 Z    GLL  0     **** GLL Z 20
@<TRIPOS>SET

