#    Name: 4c8b_0LI_2_ligand
#    Modification time : Tue Mar 25 09:05:13 2014

@<TRIPOS>MOLECULE
4c8b_0LI_2_ligand
   68    72     1     0     0
SMALL
NO_CHARGES


@<TRIPOS>ATOM
      1 N1         22.5650    2.9390   20.6770 N.pl3     1 0LI1000     0.0000 
      2 N3          7.0660    5.5060   24.6880 N.3       1 0LI1000     0.0000 
      3 C4         18.6050    1.6770   23.0270 C.1       1 0LI1000     0.0000 
      4 C5         17.2540    1.1810   23.4500 C.ar      1 0LI1000     0.0000 
      5 C6         17.0740   -0.1550   23.7070 C.ar      1 0LI1000     0.0000 
      6 C7         15.8030   -0.6070   24.0540 C.ar      1 0LI1000     0.0000 
      7 C8         14.7220    0.2930   24.1230 C.ar      1 0LI1000     0.0000 
      8 C10        16.1800    2.0970   23.5020 C.ar      1 0LI1000     0.0000 
      9 C13        11.2600    2.9790   23.9930 C.ar      1 0LI1000     0.0000 
     10 C15         9.0300    3.6540   24.5770 C.ar      1 0LI1000     0.0000 
     11 C17        10.1130    4.6830   22.7030 C.ar      1 0LI1000     0.0000 
     12 C20         7.7270    5.3880   23.3720 C.3       1 0LI1000     0.0000 
     13 C21         7.6710    6.5310   25.5450 C.3       1 0LI1000     0.0000 
     14 C22         6.9160    6.6220   26.8610 C.3       1 0LI1000     0.0000 
     15 C24         5.6380    5.3310   24.6810 C.3       1 0LI1000     0.0000 
     16 C81        24.0230    4.3280   22.2250 C.2       1 0LI1000     0.0000 
     17 C82        24.0590    4.8500   23.5020 C.2       1 0LI1000     0.0000 
     18 C83        23.0200    4.6340   24.3680 C.2       1 0LI1000     0.0000 
     19 N81        21.9450    3.9000   24.0220 N.2       1 0LI1000     0.0000 
     20 N82        21.8930    3.3670   22.7760 N.pl3     1 0LI1000     0.0000 
     21 C84        22.8980    3.5610   21.8430 C.2       1 0LI1000     0.0000 
     22 C1         21.3770    2.3480   20.8360 C.2       1 0LI1000     0.0000 
     23 C2         20.9400    2.5990   22.1570 C.2       1 0LI1000     0.0000 
     24 C3         19.6350    2.1160   22.6520 C.1       1 0LI1000     0.0000 
     25 C9         14.9170    1.6370   23.8880 C.ar      1 0LI1000     0.0000 
     26 C11        18.2100   -1.1160   23.6180 C.3       1 0LI1000     0.0000 
     27 C12        13.7840    2.6260   23.8640 C.2       1 0LI1000     0.0000 
     28 O1         14.0310    3.7830   23.5240 O.2       1 0LI1000     0.0000 
     29 N2         12.4260    2.1650   24.1020 N.am      1 0LI1000     0.0000 
     30 C14        10.1530    2.8530   24.7890 C.ar      1 0LI1000     0.0000 
     31 C16         9.0180    4.5690   23.5350 C.ar      1 0LI1000     0.0000 
     32 C18        11.2380    3.8820   22.9230 C.ar      1 0LI1000     0.0000 
     33 C19        10.1070    5.6750   21.5860 C.3       1 0LI1000     0.0000 
     34 F1          9.0700    5.4730   20.7540 F         1 0LI1000     0.0000 
     35 F2         11.2620    5.5930   20.9340 F         1 0LI1000     0.0000 
     36 F3         10.0210    6.8810   22.1420 F         1 0LI1000     0.0000 
     37 C23         4.9370    6.4840   25.3470 C.3       1 0LI1000     0.0000 
     38 C25         4.6520    7.2670   27.7030 C.3       1 0LI1000     0.0000 
     39 N4          5.4810    6.6680   26.6620 N.4       1 0LI1000     0.0000 
     40 H          23.1077    2.9350   19.8776 H         1 0LI1000     0.0000 
     41 H          15.6463   -1.6009   24.2619 H         1 0LI1000     0.0000 
     42 H          13.7846   -0.0686   24.3516 H         1 0LI1000     0.0000 
     43 H          16.3291    3.0725   23.2618 H         1 0LI1000     0.0000 
     44 H           8.2138    3.5628   25.1953 H         1 0LI1000     0.0000 
     45 H           7.9890    6.3667   22.9825 H         1 0LI1000     0.0000 
     46 H           7.0845    4.8771   22.6618 H         1 0LI1000     0.0000 
     47 H           7.6399    7.5094   25.0579 H         1 0LI1000     0.0000 
     48 H           8.7153    6.2881   25.7593 H         1 0LI1000     0.0000 
     49 H           7.2678    7.5212   27.3957 H         1 0LI1000     0.0000 
     50 H           7.1995    5.7525   27.4789 H         1 0LI1000     0.0000 
     51 H           5.3516    4.4018   25.2050 H         1 0LI1000     0.0000 
     52 H           5.2562    5.2430   23.6483 H         1 0LI1000     0.0000 
     53 H          24.7779    4.4819   21.5641 H         1 0LI1000     0.0000 
     54 H          24.8786    5.4078   23.8030 H         1 0LI1000     0.0000 
     55 H          23.0725    5.0582   25.3297 H         1 0LI1000     0.0000 
     56 H          20.8777    1.8399   20.2028 H         1 0LI1000     0.0000 
     57 H          12.3067    1.1608   24.3725 H         1 0LI1000     0.0000 
     58 H          10.1375    2.1604   25.5585 H         1 0LI1000     0.0000 
     59 H          12.0498    3.9556   22.2992 H         1 0LI1000     0.0000 
     60 H           3.8654    6.2627   25.3869 H         1 0LI1000     0.0000 
     61 H           5.0758    7.3779   24.7302 H         1 0LI1000     0.0000 
     62 H           5.2662    5.3965   27.0665 H         1 0LI1000     0.0000 
     63 H          18.6125   -1.1315   22.7027 H         1 0LI1000     0.0000 
     64 H          18.9436   -0.8841   24.2568 H         1 0LI1000     0.0000 
     65 H          17.9231   -2.0507   23.8279 H         1 0LI1000     0.0000 
     66 H           4.7456    6.7862   28.5748 H         1 0LI1000     0.0000 
     67 H           4.8956    8.2228   27.8677 H         1 0LI1000     0.0000 
     68 H           3.6818    7.2493   27.4612 H         1 0LI1000     0.0000 
@<TRIPOS>BOND
     1   21    1 2    
     2   22    1 1    
     3   40    1 1    
     4   12    2 1    
     5   13    2 1    
     6   15    2 1    
     7    4    3 1    
     8   24    3 3    
     9    5    4 ar   
    10    8    4 ar   
    11    6    5 ar   
    12   26    5 1    
    13    7    6 ar   
    14   41    6 1    
    15   25    7 ar   
    16   42    7 1    
    17   25    8 ar   
    18   43    8 1    
    19   29    9 1    
    20   30    9 ar   
    21   32    9 ar   
    22   30   10 ar   
    23   31   10 ar   
    24   44   10 1    
    25   31   11 ar   
    26   32   11 ar   
    27   33   11 1    
    28   31   12 1    
    29   45   12 1    
    30   46   12 1    
    31   14   13 1    
    32   47   13 1    
    33   48   13 1    
    34   39   14 1    
    35   49   14 1    
    36   50   14 1    
    37   37   15 1    
    38   51   15 1    
    39   52   15 1    
    40   17   16 2    
    41   21   16 1    
    42   53   16 1    
    43   18   17 1    
    44   54   17 1    
    45   19   18 2    
    46   55   18 1    
    47   20   19 1    
    48   21   20 1    
    49   23   20 1    
    50   23   22 2    
    51   56   22 1    
    52   24   23 1    
    53   27   25 1    
    54   63   26 1    
    55   64   26 1    
    56   65   26 1    
    57   28   27 2    
    58   29   27 am   
    59   57   29 1    
    60   58   30 1    
    61   59   32 1    
    62   34   33 1    
    63   35   33 1    
    64   36   33 1    
    65   39   37 1    
    66   60   37 1    
    67   61   37 1    
    68   39   38 1    
    69   66   38 1    
    70   67   38 1    
    71   68   38 1    
    72   62   39 1    
@<TRIPOS>SUBSTRUCTURE
     1 0LI1000     1 GROUP   
@<TRIPOS>SET

