#    Name: 3tq8_TOP_1_INTS_M
#    Modification time : Mon Mar 24 20:48:16 2014

@<TRIPOS>MOLECULE
3tq8_TOP_1_INTS_M
   61     0     9     0     0
SMALL
NO_CHARGES


@<TRIPOS>ATOM
      1 CA         13.8390    0.6010   18.4695 C.3       3 GLC5        0.0000 
      2 CA         13.7470    2.4170   17.4260 C.3       9 GLL5        0.0000 
      3 CA         13.9310   -1.2150   19.5130 C.3       6 GLP5        0.0000 
      4 N          11.5725    1.8335   18.3190 N.am      2 SEC2        0.0000 
      5 N          12.6420    1.6460   17.3960 N.am      8 SEL2        0.0000 
      6 N          10.5030    2.0210   19.2420 N.am      5 SEP2        0.0000 
      7 CA         12.6310   -1.0095   15.4170 C.3       3 GLC5        0.0000 
      8 CA         12.3370    0.8550   16.3310 C.3       9 GLL5        0.0000 
      9 CA         12.9250   -2.8740   14.5030 C.3       6 GLP5        0.0000 
     10 CA         11.8440    0.9105   14.3905 C.3       3 GLC5        0.0000 
     11 CA         11.3510    0.9660   12.4500 C.3       6 GLP5        0.0000 
     12 CA         10.6475    1.9655   16.1695 C.3       3 GLC5        0.0000 
     13 CA          8.9580    3.0760   16.0080 C.3       6 GLP5        0.0000 
     14 CA         13.1340   -0.1800   17.9220 C.3       3 GLC5        0.0000 
     15 O          10.2635    0.2015   17.4190 O.2       1 ALC1        0.0000 
     16 O          11.2240    0.0770   16.3590 O.2       7 ALL1        0.0000 
     17 O           9.3030    0.3260   18.4790 O.2       4 ALP1        0.0000 
     18 O          10.4445   -1.1095   15.7830 O.2       1 ALC1        0.0000 
     19 O           9.6650   -2.2960   15.2070 O.2       4 ALP1        0.0000 
     20 CA         14.7525   -0.3290   14.4080 C.3       3 GLC5        0.0000 
     21 CA         14.2570    1.5670   15.1730 C.3       9 GLL5        0.0000 
     22 CA         15.2480   -2.2250   13.6430 C.3       6 GLP5        0.0000 
     23 CA         12.8040    1.2665   13.8115 C.3       3 GLC5        0.0000 
     24 O          14.4470    0.7485   13.0355 O.2       1 ALC1        0.0000 
     25 O          15.0040    1.5020   14.0580 O.2       7 ALL1        0.0000 
     26 O          13.8900   -0.0050   12.0130 O.2       4 ALP1        0.0000 
     27 O          15.9435    2.1950   13.3575 O.2       1 ALC1        0.0000 
     28 O          16.8830    2.8880   12.6570 O.2       4 ALP1        0.0000 
     29 CA         16.1980    1.3775   16.5420 C.3       3 GLC5        0.0000 
     30 CA         15.9010    3.2630   16.2690 C.3       9 GLL5        0.0000 
     31 CA         16.4950   -0.5080   16.8150 C.3       6 GLP5        0.0000 
     32 CA         15.3170    4.1950   14.7575 C.3       3 GLC5        0.0000 
     33 CA         14.7330    5.1270   13.2460 C.3       6 GLP5        0.0000 
     34 CA         14.9295    4.1505   21.0000 C.3       3 GLC5        0.0000 
     35 CA         16.7220    4.6900   19.7640 C.3       9 GLL5        0.0000 
     36 CA         13.1370    3.6110   22.2360 C.3       6 GLP5        0.0000 
     37 CA         15.1095    3.2535   21.7940 C.3       3 GLC5        0.0000 
     38 CA         17.0820    2.8960   21.3520 C.3       9 GLL5        0.0000 
     39 CA         17.2765    1.4645   20.1520 C.3       3 GLC5        0.0000 
     40 CA         17.4710    0.0330   18.9520 C.3       6 GLP5        0.0000 
     41 CA         19.1265    2.7985   21.2045 C.3       3 GLC5        0.0000 
     42 CA         21.1710    2.7010   21.0570 C.3       6 GLP5        0.0000 
     43 CA         14.2170    7.2945   20.3275 C.3       3 GLC5        0.0000 
     44 CA         15.7800    7.3190   21.2910 C.3       9 GLL5        0.0000 
     45 CA         12.6540    7.2700   19.3640 C.3       6 GLP5        0.0000 
     46 CA         14.4260    8.0350   16.6770 C.3       3 GLC5        0.0000 
     47 CA         16.2730    8.3000   16.4490 C.3       9 GLL5        0.0000 
     48 CA         12.5790    7.7700   16.9050 C.3       6 GLP5        0.0000 
     49 CA         17.7425    9.7165   16.4740 C.3       3 GLC5        0.0000 
     50 CA         19.2120   11.1330   16.4990 C.3       6 GLP5        0.0000 
     51 CA         15.8455    9.2800   14.9350 C.3       3 GLC5        0.0000 
     52 CA         15.4180   10.2600   13.4210 C.3       6 GLP5        0.0000 
     53 CA         14.3555    6.6730   17.0175 C.3       3 GLC5        0.0000 
     54 CA         16.1320    5.5760   17.1300 C.3       9 GLL5        0.0000 
     55 CA         14.5938    6.8060   19.0805 C.3       3 GLC5        0.0000 
     56 CA         16.6960    6.1340   19.4840 C.3       9 GLL5        0.0000 
     57 CA         18.3735    6.3210   18.6085 C.3       3 GLC5        0.0000 
     58 CA         16.3710    6.5500   18.1100 C.3       9 GLL5        0.0000 
     59 CA         20.2070    6.6610   18.3500 C.3       6 GLP5        0.0000 
     60 CA         18.2930    5.0512   17.6045 C.3       3 GLC5        0.0000 
     61 CA         20.3600    5.3160   17.6090 C.3       6 GLP5        0.0000 
@<TRIPOS>BOND
@<TRIPOS>SUBSTRUCTURE
     1 ALC1       15 GROUP        1 X    ALC  0     ROOT ALC X 1
     2 SEC2        4 GROUP        1 X    SEC  0     **** SEC X 2
     3 GLC5        1 GROUP        1 X    GLC  0     **** GLC X 6
     4 ALP1       17 GROUP        1 Y    ALP  0     ROOT ALP Y 8
     5 SEP2        6 GROUP        1 Y    SEP  0     **** SEP Y 9
     6 GLP5        3 GROUP        1 Y    GLP  0     **** GLP Y 13
     7 ALL1       16 GROUP        1 Z    ALL  0     ROOT ALL Z 15
     8 SEL2        5 GROUP        1 Z    SEL  0     **** SEL Z 16
     9 GLL5        2 GROUP        1 Z    GLL  0     **** GLL Z 20
@<TRIPOS>SET

