#    Name: 3tq8_TOP_1_ligand
#    Modification time : Mon Mar 24 20:48:16 2014

@<TRIPOS>MOLECULE
3tq8_TOP_1_ligand
   39    40     1     0     0
SMALL
NO_CHARGES


@<TRIPOS>ATOM
      1 C1         13.7470    2.4170   17.4260 C.ar      1 TOP2001     0.0000 
      2 N2         12.6420    1.6460   17.3960 N.ar      1 TOP2001     0.0000 
      3 C3         12.3370    0.8550   16.3310 C.ar      1 TOP2001     0.0000 
      4 N4         11.2240    0.0770   16.3590 N.pl3     1 TOP2001     0.0000 
      5 N5         13.1420    0.8190   15.2400 N.ar      1 TOP2001     0.0000 
      6 C6         14.2570    1.5670   15.1730 C.ar      1 TOP2001     0.0000 
      7 N7         15.0040    1.5020   14.0580 N.pl3     1 TOP2001     0.0000 
      8 C8         14.6190    2.4390   16.3270 C.ar      1 TOP2001     0.0000 
      9 C9         15.9010    3.2630   16.2690 C.3       1 TOP2001     0.0000 
     10 C10        16.1750    4.2180   17.4180 C.ar      1 TOP2001     0.0000 
     11 C11        16.4650    3.7760   18.7220 C.ar      1 TOP2001     0.0000 
     12 C12        16.7220    4.6900   19.7640 C.ar      1 TOP2001     0.0000 
     13 O13        17.0130    4.2970   21.0500 O.3       1 TOP2001     0.0000 
     14 C14        17.0820    2.8960   21.3520 C.3       1 TOP2001     0.0000 
     15 C15        16.6960    6.1340   19.4840 C.ar      1 TOP2001     0.0000 
     16 O16        16.9230    7.0580   20.4720 O.3       1 TOP2001     0.0000 
     17 C17        15.7800    7.3190   21.2910 C.3       1 TOP2001     0.0000 
     18 C18        16.3710    6.5500   18.1100 C.ar      1 TOP2001     0.0000 
     19 O19        16.3400    7.8840   17.8150 O.3       1 TOP2001     0.0000 
     20 C20        16.2730    8.3000   16.4490 C.3       1 TOP2001     0.0000 
     21 C21        16.1320    5.5760   17.1300 C.ar      1 TOP2001     0.0000 
     22 H          13.9743    3.0018   18.2481 H         1 TOP2001     0.0000 
     23 H          11.2608   -0.7633   15.8181 H         1 TOP2001     0.0000 
     24 H          10.4661    0.4132   16.9180 H         1 TOP2001     0.0000 
     25 H          14.6837    0.8728   13.3499 H         1 TOP2001     0.0000 
     26 H          15.8135    2.0887   14.0359 H         1 TOP2001     0.0000 
     27 H          15.9033    3.8452   15.3123 H         1 TOP2001     0.0000 
     28 H          16.7680    2.5606   16.1738 H         1 TOP2001     0.0000 
     29 H          16.4903    2.7643   18.9204 H         1 TOP2001     0.0000 
     30 H          15.9166    5.8855   16.1604 H         1 TOP2001     0.0000 
     31 H          17.7842    2.4335   20.8107 H         1 TOP2001     0.0000 
     32 H          17.2997    2.7338   22.3144 H         1 TOP2001     0.0000 
     33 H          16.2157    2.4327   21.1654 H         1 TOP2001     0.0000 
     34 H          15.9784    7.9946   22.0011 H         1 TOP2001     0.0000 
     35 H          15.0127    7.6727   20.7560 H         1 TOP2001     0.0000 
     36 H          15.4584    6.4930   21.7539 H         1 TOP2001     0.0000 
     37 H          16.2556    9.2963   16.3646 H         1 TOP2001     0.0000 
     38 H          17.0588    7.9750   15.9228 H         1 TOP2001     0.0000 
     39 H          15.4524    7.9530   15.9949 H         1 TOP2001     0.0000 
@<TRIPOS>BOND
     1    2    1 ar   
     2    8    1 ar   
     3   22    1 1    
     4    3    2 ar   
     5    4    3 1    
     6    5    3 ar   
     7   23    4 1    
     8   24    4 1    
     9    6    5 ar   
    10    7    6 1    
    11    8    6 ar   
    12   25    7 1    
    13   26    7 1    
    14    9    8 1    
    15   10    9 1    
    16   27    9 1    
    17   28    9 1    
    18   11   10 ar   
    19   21   10 ar   
    20   12   11 ar   
    21   29   11 1    
    22   13   12 1    
    23   15   12 ar   
    24   14   13 1    
    25   31   14 1    
    26   32   14 1    
    27   33   14 1    
    28   16   15 1    
    29   18   15 ar   
    30   17   16 1    
    31   34   17 1    
    32   35   17 1    
    33   36   17 1    
    34   19   18 1    
    35   21   18 ar   
    36   20   19 1    
    37   37   20 1    
    38   38   20 1    
    39   39   20 1    
    40   30   21 1    
@<TRIPOS>SUBSTRUCTURE
     1 TOP2001     1 GROUP   
@<TRIPOS>SET

