#    Name: 1al7_HST_1_INTS_M
#    Modification time : Mon Mar 24 18:29:51 2014

@<TRIPOS>MOLECULE
1al7_HST_1_INTS_M
   71     0     9     0     0
SMALL
NO_CHARGES


@<TRIPOS>ATOM
      1 N          47.0520   53.8335   22.4210 N.am      1 SEC2        0.0000 
      2 N          47.4880   53.6560   21.0750 N.am      7 SEL2        0.0000 
      3 N          46.6160   54.0110   23.7670 N.am      4 SEP2        0.0000 
      4 N          47.4220   54.3730   22.2685 N.am      1 SEC2        0.0000 
      5 N          48.2280   54.7350   20.7700 N.am      7 SEL2        0.0000 
      6 N          49.0570   55.3625   21.6280 N.am      1 SEC2        0.0000 
      7 N          49.8860   55.9900   22.4860 N.am      4 SEP2        0.0000 
      8 NZ         49.5945   57.9900   19.6985 N.4       2 LYC4        0.0000 
      9 NZ         49.9400   56.5930   19.2470 N.4       8 LYL4        0.0000 
     10 NZ         49.2450   59.8790   18.9180 N.4       5 LYP4        0.0000 
     11 NZ         50.7315   56.7745   17.8485 N.4       2 LYC4        0.0000 
     12 NZ         52.6340   57.4860   16.9420 N.4       5 LYP4        0.0000 
     13 N          49.5565   57.8195   18.5655 N.am      1 SEC2        0.0000 
     14 N          49.9400   56.5930   19.2470 N.am      7 SEL2        0.0000 
     15 N          49.1730   59.0460   17.8840 N.am      4 SEP2        0.0000 
     16 N          49.5945   57.9900   19.6985 N.am      1 SEC2        0.0000 
     17 N          49.2490   59.3870   20.1500 N.am      4 SEP2        0.0000 
     18 N          49.9130   56.2915   20.8665 N.am      1 SEC2        0.0000 
     19 N          51.3330   57.1890   18.7390 N.am      1 SEC2        0.0000 
     20 N          52.7260   57.7850   18.2310 N.am      4 SEP2        0.0000 
     21 N          50.7315   56.7745   17.8485 N.am      1 SEC2        0.0000 
     22 N          51.5230   56.9560   16.4500 N.am      4 SEP2        0.0000 
     23 NZ         50.2900   56.3940   16.8860 N.4       2 LYC4        0.0000 
     24 NZ         49.0570   55.8320   17.3220 N.4       8 LYL4        0.0000 
     25 N          49.0465   54.9155   16.2685 N.am      1 SEC2        0.0000 
     26 N          49.0570   55.8320   17.3220 N.am      7 SEL2        0.0000 
     27 N          49.0360   53.9990   15.2150 N.am      4 SEP2        0.0000 
     28 N          49.1150   57.4390   17.6030 N.am      1 SEC2        0.0000 
     29 N          50.2900   56.3940   16.8860 N.am      1 SEC2        0.0000 
     30 CA         48.1095   54.3145   15.7220 C.3       3 GLC5        0.0000 
     31 CA         46.7560   53.8760   17.2990 C.3       9 GLL5        0.0000 
     32 CA         49.4630   54.7530   14.1450 C.3       6 GLP5        0.0000 
     33 CA         45.0905   57.9420   11.9555 C.3       3 GLC5        0.0000 
     34 CA         44.2430   58.3890   13.6330 C.3       9 GLL5        0.0000 
     35 CA         45.9380   57.4950   10.2780 C.3       6 GLP5        0.0000 
     36 CA         47.1385   56.6085   13.9430 C.3       3 GLC5        0.0000 
     37 CA         45.0680   57.1010   13.7820 C.3       9 GLL5        0.0000 
     38 CA         49.2090   56.1160   14.1040 C.3       6 GLP5        0.0000 
     39 CA         45.6545   56.6310   12.1685 C.3       3 GLC5        0.0000 
     40 CA         46.2410   56.1610   10.5550 C.3       6 GLP5        0.0000 
     41 CA         44.3945   58.5625   17.2135 C.3       3 GLC5        0.0000 
     42 CA         44.8490   57.0740   16.3570 C.3       9 GLL5        0.0000 
     43 CA         43.9400   60.0510   18.0700 C.3       6 GLP5        0.0000 
     44 CA         45.5850   57.8545   18.6315 C.3       3 GLC5        0.0000 
     45 CA         45.4970   56.2620   17.4910 C.3       9 GLL5        0.0000 
     46 CA         45.6730   59.4470   19.7720 C.3       6 GLP5        0.0000 
     47 CA         43.1595   53.1395   18.0110 C.3       3 GLC5        0.0000 
     48 CA         44.4670   54.1980   18.7400 C.3       9 GLL5        0.0000 
     49 CA         41.8520   52.0810   17.2820 C.3       6 GLP5        0.0000 
     50 CA         44.9475   57.3450   19.8090 C.3       3 GLC5        0.0000 
     51 CA         44.2220   55.2430   19.8460 C.3       9 GLL5        0.0000 
     52 CA         43.6250   53.8160   22.6340 C.3       3 GLC5        0.0000 
     53 CA         42.5450   55.0110   21.7890 C.3       9 GLL5        0.0000 
     54 CA         44.7050   52.6210   23.4790 C.3       6 GLP5        0.0000 
     55 CA         42.4540   53.0645   23.0370 C.3       3 GLC5        0.0000 
     56 CA         41.3780   54.0590   22.0950 C.3       9 GLL5        0.0000 
     57 CA         43.5300   52.0700   23.9790 C.3       6 GLP5        0.0000 
     58 CA         40.2255   52.7230   22.4485 C.3       3 GLC5        0.0000 
     59 CA         39.0730   51.3870   22.8020 C.3       6 GLP5        0.0000 
     60 CA         40.3195   55.4225   22.2575 C.3       3 GLC5        0.0000 
     61 CA         39.2610   56.7860   22.4200 C.3       6 GLP5        0.0000 
     62 CA         47.8230   52.2530   17.3642 C.3       3 GLC5        0.0000 
     63 CA         47.4680   53.8400   18.8920 C.3       9 GLL5        0.0000 
     64 CA         48.5340   50.6480   16.6330 C.3       6 GLP5        0.0000 
     65 CA         44.6925   52.8005   16.6578 C.3       3 GLC5        0.0000 
     66 CA         43.4160   51.2860   15.9260 C.3       6 GLP5        0.0000 
     67 CA         41.4428   56.4775   21.4588 C.3       3 GLC5        0.0000 
     68 CA         42.7500   55.2870   20.2900 C.3       9 GLL5        0.0000 
     69 CA         40.2380   57.8060   21.8780 C.3       6 GLP5        0.0000 
     70 CA         41.2284   53.5205   20.3531 C.3       3 GLC5        0.0000 
     71 CA         40.4440   52.4370   19.1390 C.3       6 GLP5        0.0000 
@<TRIPOS>BOND
@<TRIPOS>SUBSTRUCTURE
     1 SEC2        1 GROUP        1 X    SEC  0     ROOT SEC X 2
     2 LYC4        8 GROUP        1 X    LYC  0     **** LYC X 4
     3 GLC5       30 GROUP        1 X    GLC  0     **** GLC X 6
     4 SEP2        3 GROUP        1 Y    SEP  0     ROOT SEP Y 9
     5 LYP4       10 GROUP        1 Y    LYP  0     **** LYP Y 11
     6 GLP5       32 GROUP        1 Y    GLP  0     **** GLP Y 13
     7 SEL2        2 GROUP        1 Z    SEL  0     ROOT SEL Z 16
     8 LYL4        9 GROUP        1 Z    LYL  0     **** LYL Z 18
     9 GLL5       31 GROUP        1 Z    GLL  0     **** GLL Z 20
@<TRIPOS>SET

