#    Name: 1al7_HST_1_ligand
#    Modification time : Mon Mar 24 18:29:52 2014

@<TRIPOS>MOLECULE
1al7_HST_1_ligand
   44    44     1     0     0
SMALL
NO_CHARGES


@<TRIPOS>ATOM
      1 N1         47.0180   53.0920   19.9480 N.pl3     1 HST361      0.0000 
      2 N2         47.4880   53.6560   21.0750 N.2       1 HST361      0.0000 
      3 N3         48.2280   54.7350   20.7700 N.2       1 HST361      0.0000 
      4 CB1        47.4680   53.8400   18.8920 C.2       1 HST361      0.0000 
      5 CB2        48.2410   54.8740   19.3950 C.2       1 HST361      0.0000 
      6 CB3        49.2300   55.7830   18.6680 C.2       1 HST361      0.0000 
      7 O1         49.9400   56.5930   19.2470 O.co2     1 HST361      0.0000 
      8 O2         49.0570   55.8320   17.3220 O.co2     1 HST361      0.0000 
      9 S          46.7560   53.8760   17.2990 S.3       1 HST361      0.0000 
     10 C1         44.2430   58.3890   13.6330 C.3       1 HST361      0.0000 
     11 C2         45.0680   57.1010   13.7820 C.3       1 HST361      0.0000 
     12 C3         44.7280   56.2790   15.0390 C.3       1 HST361      0.0000 
     13 C4         44.8490   57.0740   16.3570 C.3       1 HST361      0.0000 
     14 C5         45.4970   56.2620   17.4910 C.3       1 HST361      0.0000 
     15 C6         45.1820   54.7540   17.4800 C.3       1 HST361      0.0000 
     16 C7         44.4670   54.1980   18.7400 C.3       1 HST361      0.0000 
     17 C8         44.2220   55.2430   19.8460 C.3       1 HST361      0.0000 
     18 C9         42.7500   55.2870   20.2900 C.3       1 HST361      0.0000 
     19 C10        42.5450   55.0110   21.7890 C.3       1 HST361      0.0000 
     20 C11        41.3780   54.0590   22.0950 C.3       1 HST361      0.0000 
     21 H          46.4686   52.3110   19.8804 H         1 HST361      0.0000 
     22 H          46.1365   57.3633   13.8088 H         1 HST361      0.0000 
     23 H          44.9092   56.4713   12.8934 H         1 HST361      0.0000 
     24 H          45.3983   55.4096   15.0881 H         1 HST361      0.0000 
     25 H          43.7009   55.8988   14.9489 H         1 HST361      0.0000 
     26 H          43.8490   57.3917   16.6710 H         1 HST361      0.0000 
     27 H          45.4474   57.9728   16.1737 H         1 HST361      0.0000 
     28 H          45.1727   56.6836   18.4599 H         1 HST361      0.0000 
     29 H          46.5933   56.3943   17.4410 H         1 HST361      0.0000 
     30 H          44.6765   54.4657   16.5865 H         1 HST361      0.0000 
     31 H          45.0727   53.3771   19.1521 H         1 HST361      0.0000 
     32 H          43.5012   53.7693   18.4334 H         1 HST361      0.0000 
     33 H          44.5125   56.2281   19.4742 H         1 HST361      0.0000 
     34 H          44.8479   55.0011   20.7079 H         1 HST361      0.0000 
     35 H          42.1817   54.5450   19.7109 H         1 HST361      0.0000 
     36 H          42.3361   56.2772   20.0509 H         1 HST361      0.0000 
     37 H          42.3694   55.9667   22.3053 H         1 HST361      0.0000 
     38 H          43.4711   54.5828   22.2011 H         1 HST361      0.0000 
     39 H          44.3773   59.0077   14.4071 H         1 HST361      0.0000 
     40 H          44.4906   58.8951   12.8069 H         1 HST361      0.0000 
     41 H          43.2630   58.1980   13.5771 H         1 HST361      0.0000 
     42 H          41.5078   53.1635   21.6692 H         1 HST361      0.0000 
     43 H          41.2729   53.9040   23.0773 H         1 HST361      0.0000 
     44 H          40.5073   54.4193   21.7603 H         1 HST361      0.0000 
@<TRIPOS>BOND
     1    2    1 1    
     2    4    1 1    
     3   21    1 1    
     4    3    2 2    
     5    5    3 1    
     6    5    4 2    
     7    9    4 1    
     8    6    5 1    
     9    7    6 ar   
    10    8    6 ar   
    11   15    9 1    
    12   11   10 1    
    13   39   10 1    
    14   40   10 1    
    15   41   10 1    
    16   12   11 1    
    17   22   11 1    
    18   23   11 1    
    19   13   12 1    
    20   24   12 1    
    21   25   12 1    
    22   14   13 1    
    23   26   13 1    
    24   27   13 1    
    25   15   14 1    
    26   28   14 1    
    27   29   14 1    
    28   16   15 1    
    29   30   15 1    
    30   17   16 1    
    31   31   16 1    
    32   32   16 1    
    33   18   17 1    
    34   33   17 1    
    35   34   17 1    
    36   19   18 1    
    37   35   18 1    
    38   36   18 1    
    39   20   19 1    
    40   37   19 1    
    41   38   19 1    
    42   42   20 1    
    43   43   20 1    
    44   44   20 1    
@<TRIPOS>SUBSTRUCTURE
     1 HST361      1 GROUP   
@<TRIPOS>SET

