#    Name: 1BC5_1_CAVITY_N1_ALL.mol2
#    Modification time : Mon Mar 10 14:28:15 2014

@<TRIPOS>MOLECULE
1BC5_1_CAVITY_N1_ALL.mol2
   60     0     6     0     0
SMALL
NO_CHARGES


@<TRIPOS>ATOM
      1 N          47.3143   33.1860   29.6334 N.2       2 ALA2        0.0000 
      2 CA         46.5190   33.6585   27.7244 C.3       5 GLY6        0.0000 
      3 CA         47.4995   32.6497   28.2448 C.3       5 GLY6        0.0000 
      4 CA         46.7042   33.1223   26.3358 C.3       5 GLY6        0.0000 
      5 CZ         48.2490   34.6943   30.7959 C.ar      4 PHE5        0.0000 
      6 CZ         47.4536   35.1668   28.8870 C.ar      4 PHE5        0.0000 
      7 CA         48.4342   34.1580   29.4074 C.3       5 GLY6        0.0000 
      8 CA         49.4148   33.1492   29.9278 C.3       5 GLY6        0.0000 
      9 CA         47.6389   34.6305   27.4984 C.3       5 GLY6        0.0000 
     10 CA         48.6194   33.6217   28.0188 C.3       5 GLY6        0.0000 
     11 CZ         46.8435   35.1030   25.5894 C.ar      4 PHE5        0.0000 
     12 DU         47.8241   34.0942   26.1098 H         6 CUB7        0.0000 
     13 CA         48.8047   33.0854   26.6303 C.3       5 GLY6        0.0000 
     14 N          47.0288   34.5668   24.2009 N.2       2 ALA2        0.0000 
     15 CA         48.0093   33.5580   24.7213 C.3       5 GLY6        0.0000 
     16 CA         48.3883   36.6750   30.0495 C.3       5 GLY6        0.0000 
     17 O          49.3689   35.6662   30.5700 O.2       2 ALA2        0.0000 
     18 CA         48.5735   36.1388   28.6610 C.3       5 GLY6        0.0000 
     19 CA         49.5541   35.1300   29.1814 C.3       5 GLY6        0.0000 
     20 CA         48.7588   35.6025   27.2724 C.3       5 GLY6        0.0000 
     21 CA         49.7393   34.5937   27.7928 C.3       5 GLY6        0.0000 
     22 CA         46.9829   37.0838   24.8430 C.3       5 GLY6        0.0000 
     23 CA         47.9634   36.0750   25.3635 C.3       5 GLY6        0.0000 
     24 DU         48.9440   35.0662   25.8839 H         6 CUB7        0.0000 
     25 CA         49.9246   34.0574   26.4043 C.3       5 GLY6        0.0000 
     26 N          47.1681   36.5475   23.4545 N.2       2 ALA2        0.0000 
     27 N          48.1487   35.5387   23.9749 N.2       2 ALA2        0.0000 
     28 N          49.1292   34.5300   24.4953 N.2       2 ALA2        0.0000 
     29 CA         50.1098   33.5212   25.0157 C.3       5 GLY6        0.0000 
     30 N          50.4888   36.6382   30.3440 N.2       2 ALA2        0.0000 
     31 CA         49.6934   37.1107   28.4350 C.3       5 GLY6        0.0000 
     32 O          50.6740   36.1019   28.9554 O.2       2 ALA2        0.0000 
     33 CA         48.8981   37.5833   26.5260 C.3       5 GLY6        0.0000 
     34 CA         49.8787   36.5745   27.0464 C.3       5 GLY6        0.0000 
     35 NZ         50.8592   35.5657   27.5668 N.2       3 LYS4        0.0000 
     36 CA         48.1028   38.0558   24.6171 C.3       5 GLY6        0.0000 
     37 CA         49.0833   37.0470   25.1375 C.3       5 GLY6        0.0000 
     38 NZ         50.0639   36.0382   25.6579 N.2       3 LYS4        0.0000 
     39 N          47.3074   38.5283   22.7081 N.2       2 ALA2        0.0000 
     40 N          48.2880   37.5195   23.2285 N.2       2 ALA2        0.0000 
     41 NZ         49.2686   36.5107   23.7489 N.2       3 LYS4        0.0000 
     42 NZ         50.2491   35.5019   24.2693 N.2       3 LYS4        0.0000 
     43 N          47.4927   37.9921   21.3195 N.2       2 ALA2        0.0000 
     44 N          48.4732   36.9833   21.8399 N.2       2 ALA2        0.0000 
     45 N          49.4538   35.9745   22.3603 N.2       2 ALA2        0.0000 
     46 N          47.4468   40.5091   21.9617 N.2       2 ALA2        0.0000 
     47 N          48.4273   39.5003   22.4821 N.2       2 ALA2        0.0000 
     48 N          49.4079   38.4915   23.0025 N.2       2 ALA2        0.0000 
     49 NZ         50.3885   37.4827   23.5229 N.2       3 LYS4        0.0000 
     50 O          47.6320   39.9728   20.5731 O.2       2 ALA2        0.0000 
     51 N          48.6126   38.9640   21.0935 N.2       2 ALA2        0.0000 
     52 CA         49.5932   37.9552   21.6139 C.3       5 GLY6        0.0000 
     53 CA         50.5737   36.9464   22.1343 C.3       5 GLY6        0.0000 
     54 N          47.5861   42.4899   21.2153 N.2       2 ALA2        0.0000 
     55 N          48.5667   41.4811   21.7357 N.2       2 ALA2        0.0000 
     56 O          47.7714   41.9536   19.8267 O.2       2 ALA2        0.0000 
     57 OG         48.7519   40.9448   20.3471 O.2       1 SER1        0.0000 
     58 N          49.7325   39.9360   20.8675 N.2       2 ALA2        0.0000 
     59 NZ         49.6866   42.4531   21.5097 N.2       3 LYS4        0.0000 
     60 OG         49.8718   41.9168   20.1211 O.2       1 SER1        0.0000 
@<TRIPOS>BOND
@<TRIPOS>SUBSTRUCTURE
     1 SER1       57 GROUP   
     2 ALA2        1 GROUP   
     3 LYS4       35 GROUP   
     4 PHE5        5 GROUP   
     5 GLY6        2 GROUP   
     6 CUB7       12 GROUP   
@<TRIPOS>SET

