#    Name: 1bc5_SAH_1_INTS_M
#    Modification time : Mon Mar 24 19:29:05 2014

@<TRIPOS>MOLECULE
1bc5_SAH_1_INTS_M
   85     0    15     0     0
SMALL
NO_CHARGES


@<TRIPOS>ATOM
      1 OD1        49.1690   43.5360   22.2105 O.co2     3 ASC3        0.0000 
      2 OD1        48.9140   42.0700   22.6360 O.co2    13 ASL3        0.0000 
      3 OD1        49.4240   45.0020   21.7850 O.co2     8 ASP3        0.0000 
      4 OD1        49.8790   43.5175   23.0325 O.co2     3 ASC3        0.0000 
      5 OD1        50.8440   44.9650   23.4290 O.co2     8 ASP3        0.0000 
      6 O          49.9785   41.5165   23.1410 O.2       1 ALC1        0.0000 
      7 O          48.9140   42.0700   22.6360 O.2      11 ALL1        0.0000 
      8 O          51.0430   40.9630   23.6460 O.2       6 ALP1        0.0000 
      9 O          49.1690   43.5360   22.2105 O.2       1 ALC1        0.0000 
     10 O          49.4240   45.0020   21.7850 O.2       6 ALP1        0.0000 
     11 O          47.5930   41.9485   23.1930 O.2       1 ALC1        0.0000 
     12 O          46.2720   41.8270   23.7500 O.2       6 ALP1        0.0000 
     13 CA         50.7880   43.1220   20.9600 C.3       5 GLC5        0.0000 
     14 CA         49.2220   41.6260   21.2870 C.3      15 GLL5        0.0000 
     15 CA         52.3540   44.6180   20.6330 C.3      10 GLP5        0.0000 
     16 CA         50.8880   39.0180   20.8650 C.3       5 GLC5        0.0000 
     17 CA         49.3240   40.0850   21.2210 C.3      15 GLL5        0.0000 
     18 CA         52.4520   37.9510   20.5090 C.3      10 GLP5        0.0000 
     19 CA         46.0315   40.1110   21.3955 C.3       5 GLC5        0.0000 
     20 CA         48.0040   39.3480   21.2900 C.3      15 GLL5        0.0000 
     21 CA         44.0590   40.8740   21.5010 C.3      10 GLP5        0.0000 
     22 CA         48.9055   35.9805   20.4170 C.3       5 GLC5        0.0000 
     23 CA         48.1630   37.5730   21.2920 C.3      15 GLL5        0.0000 
     24 CA         49.6480   34.3880   19.5420 C.3      10 GLP5        0.0000 
     25 CA         50.3075   37.7620   20.9005 C.3       5 GLC5        0.0000 
     26 N          45.7650   42.9520   20.4705 N.am      2 SEC2        0.0000 
     27 N          47.3330   42.9960   20.7420 N.am     12 SEL2        0.0000 
     28 N          44.1970   42.9080   20.1990 N.am      7 SEP2        0.0000 
     29 NZ         47.1680   41.3175   18.5785 N.4       4 LYC4        0.0000 
     30 NZ         48.3380   41.9400   19.1060 N.4      14 LYL4        0.0000 
     31 NZ         44.9720   41.2080   17.3910 N.4       9 LYP4        0.0000 
     32 N          49.5310   41.5190   18.4740 N.am      2 SEC2        0.0000 
     33 N          48.3380   41.9400   19.1060 N.am     12 SEL2        0.0000 
     34 N          50.7240   41.0980   17.8420 N.am      7 SEP2        0.0000 
     35 N          47.1680   41.3175   18.5785 N.am      2 SEC2        0.0000 
     36 N          45.9980   40.6950   18.0510 N.am      7 SEP2        0.0000 
     37 CA         47.0375   38.1020   24.8445 C.3       5 GLC5        0.0000 
     38 CA         47.9800   37.2040   23.0740 C.3      15 GLL5        0.0000 
     39 CA         46.0950   39.0000   26.6150 C.3      10 GLP5        0.0000 
     40 CA         46.0355   36.2965   23.4465 C.3       5 GLC5        0.0000 
     41 CA         44.0910   35.3890   23.8190 C.3      10 GLP5        0.0000 
     42 CA         49.6555   34.8375   21.4830 C.3       5 GLC5        0.0000 
     43 CA         49.6630   35.2870   23.4240 C.3      15 GLL5        0.0000 
     44 N          51.1760   34.2615   22.2425 N.am      2 SEC2        0.0000 
     45 N          50.9090   35.4620   22.7390 N.am     12 SEL2        0.0000 
     46 N          51.4430   33.0610   21.7460 N.am      7 SEP2        0.0000 
     47 O          51.8705   36.1240   23.7070 O.2       1 ALC1        0.0000 
     48 O          50.9090   35.4620   22.7390 O.2      11 ALL1        0.0000 
     49 O          52.8320   36.7860   24.6750 O.2       6 ALP1        0.0000 
     50 CA         49.7255   32.5670   24.4760 C.3       5 GLC5        0.0000 
     51 CA         49.8540   34.4600   24.7080 C.3      15 GLL5        0.0000 
     52 CA         49.5970   30.6740   24.2440 C.3      10 GLP5        0.0000 
     53 CA         50.5900   34.1245   27.2435 C.3       5 GLC5        0.0000 
     54 CA         49.5800   35.4890   25.8110 C.3      15 GLL5        0.0000 
     55 CA         51.6000   32.7600   28.6760 C.3      10 GLP5        0.0000 
     56 CA         48.0460   36.6550   26.6495 C.3       5 GLC5        0.0000 
     57 CA         46.5120   37.8210   27.4880 C.3      10 GLP5        0.0000 
     58 CA         48.7555   36.4850   31.8545 C.3       5 GLC5        0.0000 
     59 CA         49.0700   34.8480   30.5760 C.3      15 GLL5        0.0000 
     60 CA         48.4410   38.1220   33.1330 C.3      10 GLP5        0.0000 
     61 O          47.5500   33.1600   31.7985 O.2       1 ALC1        0.0000 
     62 O          48.4810   34.1870   31.5730 O.2      11 ALL1        0.0000 
     63 O          46.6190   32.1330   32.0240 O.2       6 ALP1        0.0000 
     64 O          49.2650   33.9020   32.8655 O.2       1 ALC1        0.0000 
     65 O          50.0490   33.6170   34.1580 O.2       6 ALP1        0.0000 
     66 N          50.1920   36.2170   32.2910 N.am      2 SEC2        0.0000 
     67 N          50.0470   35.7280   30.8750 N.am     12 SEL2        0.0000 
     68 N          50.3370   36.7060   33.7070 N.am      7 SEP2        0.0000 
     69 CA         52.5280   36.7315   28.8065 C.3       5 GLC5        0.0000 
     70 CA         50.6530   36.3820   29.8760 C.3      15 GLL5        0.0000 
     71 CA         54.4030   37.0810   27.7370 C.3      10 GLP5        0.0000 
     72 CA         51.5905   34.7515   29.8475 C.3       5 GLC5        0.0000 
     73 CA         52.5280   33.1210   29.8190 C.3      10 GLP5        0.0000 
     74 CA         51.4855   35.8305   31.8320 C.3       5 GLC5        0.0000 
     75 CA         52.3180   35.2790   33.7880 C.3      10 GLP5        0.0000 
     76 CA         49.4600   37.8755   30.4440 C.3       5 GLC5        0.0000 
     77 CA         48.2670   39.3690   31.0120 C.3      10 GLP5        0.0000 
     78 CA         49.9065   40.3083   19.3330 C.3       5 GLC5        0.0000 
     79 CA         50.5400   39.7610   17.4120 C.3      10 GLP5        0.0000 
     80 CA         49.0445   38.5692   24.6380 C.3       5 GLC5        0.0000 
     81 CA         49.5180   40.2080   25.8050 C.3      10 GLP5        0.0000 
     82 CA         47.8083   36.4292   28.1242 C.3       5 GLC5        0.0000 
     83 CA         48.7400   34.6710   29.2210 C.3      15 GLL5        0.0000 
     84 CA         50.3935   33.9209   28.8876 C.3       5 GLC5        0.0000 
     85 CA         49.4690   35.4040   28.3000 C.3      15 GLL5        0.0000 
@<TRIPOS>BOND
@<TRIPOS>SUBSTRUCTURE
     1 ALC1        6 GROUP        1 X    ALC  0     ROOT ALC X 1
     2 SEC2       26 GROUP        1 X    SEC  0     **** SEC X 2
     3 ASC3        1 GROUP        1 X    ASC  0     **** ASC X 3
     4 LYC4       29 GROUP        1 X    LYC  0     **** LYC X 4
     5 GLC5       13 GROUP        1 X    GLC  0     **** GLC X 6
     6 ALP1        8 GROUP        1 Y    ALP  0     ROOT ALP Y 8
     7 SEP2       28 GROUP        1 Y    SEP  0     **** SEP Y 9
     8 ASP3        3 GROUP        1 Y    ASP  0     **** ASP Y 10
     9 LYP4       31 GROUP        1 Y    LYP  0     **** LYP Y 11
    10 GLP5       15 GROUP        1 Y    GLP  0     **** GLP Y 13
    11 ALL1        7 GROUP        1 Z    ALL  0     ROOT ALL Z 15
    12 SEL2       27 GROUP        1 Z    SEL  0     **** SEL Z 16
    13 ASL3        2 GROUP        1 Z    ASL  0     **** ASL Z 17
    14 LYL4       30 GROUP        1 Z    LYL  0     **** LYL Z 18
    15 GLL5       14 GROUP        1 Z    GLL  0     **** GLL Z 20
@<TRIPOS>SET

