#    Name: 1bc5_SAH_1_ligand
#    Modification time : Mon Mar 24 19:29:05 2014

@<TRIPOS>MOLECULE
1bc5_SAH_1_ligand
   46    48     1     0     0
SMALL
NO_CHARGES


@<TRIPOS>ATOM
      1 N          48.9140   42.0700   22.6360 N.4       1 SAH287      0.0000 
      2 CA         49.2220   41.6260   21.2870 C.3       1 SAH287      0.0000 
      3 CB         49.3240   40.0850   21.2210 C.3       1 SAH287      0.0000 
      4 CG         48.0040   39.3480   21.2900 C.3       1 SAH287      0.0000 
      5 SD         48.1630   37.5730   21.2920 S.3       1 SAH287      0.0000 
      6 C          48.1420   42.1310   20.3220 C.2       1 SAH287      0.0000 
      7 O          47.3330   42.9960   20.7420 O.co2     1 SAH287      0.0000 
      8 OXT        48.3380   41.9400   19.1060 O.co2     1 SAH287      0.0000 
      9 C5'        47.9800   37.2040   23.0740 C.3       1 SAH287      0.0000 
     10 C4'        49.1620   36.6570   23.8680 C.3       1 SAH287      0.0000 
     11 O4'        48.7960   36.5120   25.2560 O.3       1 SAH287      0.0000 
     12 C3'        49.6630   35.2870   23.4240 C.3       1 SAH287      0.0000 
     13 O3'        50.9090   35.4620   22.7390 O.3       1 SAH287      0.0000 
     14 C2'        49.8540   34.4600   24.7080 C.3       1 SAH287      0.0000 
     15 O2'        51.0980   33.8320   24.8600 O.3       1 SAH287      0.0000 
     16 C1'        49.5800   35.4890   25.8110 C.3       1 SAH287      0.0000 
     17 N9         49.0050   35.0230   27.0680 N.pl3     1 SAH287      0.0000 
     18 C8         47.9820   34.1340   27.3070 C.2       1 SAH287      0.0000 
     19 N7         47.7930   33.8830   28.5780 N.2       1 SAH287      0.0000 
     20 C5         48.7400   34.6710   29.2210 C.ar      1 SAH287      0.0000 
     21 C6         49.0700   34.8480   30.5760 C.ar      1 SAH287      0.0000 
     22 N6         48.4810   34.1870   31.5730 N.pl3     1 SAH287      0.0000 
     23 N1         50.0470   35.7280   30.8750 N.ar      1 SAH287      0.0000 
     24 C2         50.6530   36.3820   29.8760 C.ar      1 SAH287      0.0000 
     25 N3         50.4450   36.2900   28.5640 N.ar      1 SAH287      0.0000 
     26 C4         49.4690   35.4040   28.3000 C.ar      1 SAH287      0.0000 
     27 H          50.1727   42.0345   20.9617 H         1 SAH287      0.0000 
     28 H          49.9774   39.7473   22.0492 H         1 SAH287      0.0000 
     29 H          49.8476   39.8143   20.2832 H         1 SAH287      0.0000 
     30 H          47.3674   39.5303   20.4332 H         1 SAH287      0.0000 
     31 H          47.4545   39.5401   22.2030 H         1 SAH287      0.0000 
     32 H          47.1101   36.5193   23.0684 H         1 SAH287      0.0000 
     33 H          47.6108   38.1728   23.4622 H         1 SAH287      0.0000 
     34 H          49.9922   37.3568   23.7925 H         1 SAH287      0.0000 
     35 H          48.9203   34.8301   22.8285 H         1 SAH287      0.0000 
     36 H          49.0090   33.7626   24.7468 H         1 SAH287      0.0000 
     37 H          50.5940   35.9459   26.0420 H         1 SAH287      0.0000 
     38 H          47.4526   33.7358   26.5553 H         1 SAH287      0.0000 
     39 H          48.7688   34.4373   32.4974 H         1 SAH287      0.0000 
     40 H          47.8045   33.5004   31.3066 H         1 SAH287      0.0000 
     41 H          51.4382   37.1008   30.1879 H         1 SAH287      0.0000 
     42 H          48.0463   41.6945   22.9615 H         1 SAH287      0.0000 
     43 H          49.6178   41.7901   23.2889 H         1 SAH287      0.0000 
     44 H          48.8418   43.0658   22.6918 H         1 SAH287      0.0000 
     45 H          51.3961   36.1611   23.2625 H         1 SAH287      0.0000 
     46 H          51.5895   34.0227   24.0103 H         1 SAH287      0.0000 
@<TRIPOS>BOND
     1    2    1 1    
     2   42    1 1    
     3   43    1 1    
     4   44    1 1    
     5    3    2 1    
     6    6    2 1    
     7   27    2 1    
     8    4    3 1    
     9   28    3 1    
    10   29    3 1    
    11    5    4 1    
    12   30    4 1    
    13   31    4 1    
    14    9    5 1    
    15    7    6 ar   
    16    8    6 ar   
    17   10    9 1    
    18   32    9 1    
    19   33    9 1    
    20   11   10 1    
    21   12   10 1    
    22   34   10 1    
    23   16   11 1    
    24   13   12 1    
    25   14   12 1    
    26   35   12 1    
    27   45   13 1    
    28   15   14 1    
    29   16   14 1    
    30   36   14 1    
    31   46   15 1    
    32   17   16 1    
    33   37   16 1    
    34   18   17 1    
    35   26   17 1    
    36   19   18 2    
    37   38   18 1    
    38   20   19 1    
    39   21   20 ar   
    40   26   20 ar   
    41   22   21 1    
    42   23   21 ar   
    43   39   22 1    
    44   40   22 1    
    45   24   23 ar   
    46   25   24 ar   
    47   41   24 1    
    48   26   25 ar   
@<TRIPOS>SUBSTRUCTURE
     1 SAH287      1 GROUP   
@<TRIPOS>SET

