#    Name: 1gph_AMP_7_INTS_M
#    Modification time : Tue Mar 25 03:27:00 2014

@<TRIPOS>MOLECULE
1gph_AMP_7_INTS_M
   42     0    12     0     0
SMALL
NO_CHARGES


@<TRIPOS>ATOM
      1 N          85.4250   40.2600   32.6870 N.am      2 SEC2        0.0000 
      2 N          86.0140   40.5430   31.2090 N.am     10 SEL2        0.0000 
      3 N          84.8360   39.9770   34.1650 N.am      6 SEP2        0.0000 
      4 N          85.6505   41.9150   31.4855 N.am      2 SEC2        0.0000 
      5 N          85.2870   43.2870   31.7620 N.am      6 SEP2        0.0000 
      6 NZ         89.5600   40.8950   29.6740 N.4       3 LYC4        0.0000 
      7 NZ         88.1700   40.6610   29.9860 N.4      11 LYL4        0.0000 
      8 NZ         91.2600   41.9790   30.3430 N.4       7 LYP4        0.0000 
      9 N          89.2950   41.4050   30.6810 N.am      2 SEC2        0.0000 
     10 N          88.1700   40.6610   29.9860 N.am     10 SEL2        0.0000 
     11 N          90.4200   42.1490   31.3760 N.am      6 SEP2        0.0000 
     12 N          89.5600   40.8950   29.6740 N.am      2 SEC2        0.0000 
     13 N          90.9500   41.1290   29.3620 N.am      6 SEP2        0.0000 
     14 N          87.6260   41.0840   28.6605 N.am      2 SEC2        0.0000 
     15 N          87.0820   41.5070   27.3350 N.am      6 SEP2        0.0000 
     16 N          88.3055   40.0000   28.7690 N.am      2 SEC2        0.0000 
     17 N          88.4410   39.3390   27.5520 N.am      6 SEP2        0.0000 
     18 N          87.4795   41.2160   33.2470 N.am      2 SEC2        0.0000 
     19 N          88.1620   40.2550   32.4350 N.am     10 SEL2        0.0000 
     20 N          86.7970   42.1770   34.0590 N.am      6 SEP2        0.0000 
     21 N          89.2910   41.2020   31.9055 N.am      2 SEC2        0.0000 
     22 CA         84.5655   38.4670   32.2390 C.3       4 GLC5        0.0000 
     23 CA         86.3630   37.6430   31.4070 C.3      12 GLL5        0.0000 
     24 CA         82.7680   39.2910   33.0710 C.3       8 GLP5        0.0000 
     25 CA         86.3535   37.8040   33.4565 C.3       4 GLC5        0.0000 
     26 CA         86.3440   37.9650   35.5060 C.3       8 GLP5        0.0000 
     27 CA         84.4535   35.1515   33.1570 C.3       4 GLC5        0.0000 
     28 CA         85.9560   35.1230   31.6480 C.3      12 GLL5        0.0000 
     29 CA         82.9510   35.1800   34.6660 C.3       8 GLP5        0.0000 
     30 O          84.6570   33.3945   30.7645 O.2       1 ALC1        0.0000 
     31 O          85.0650   34.6250   30.6220 O.2       9 ALL1        0.0000 
     32 O          84.2490   32.1640   30.9070 O.2       5 ALP1        0.0000 
     33 O          85.6820   32.6670   30.8010 O.2       1 ALC1        0.0000 
     34 O          87.1150   33.1700   30.6950 O.2       9 ALL1        0.0000 
     35 CA         87.9110   36.6030   35.5470 C.3       4 GLC5        0.0000 
     36 CA         89.4780   35.2410   35.5880 C.3      12 GLL5        0.0000 
     37 O          91.6390   36.5940   38.3900 O.2       1 ALC1        0.0000 
     38 O          90.4090   35.6550   37.7620 O.2       9 ALL1        0.0000 
     39 O          92.8690   37.5330   39.0180 O.2       5 ALP1        0.0000 
     40 CA         88.2615   32.7195   32.1505 C.3       4 GLC5        0.0000 
     41 CA         88.2880   34.7520   32.2230 C.3      12 GLL5        0.0000 
     42 CA         88.8880   31.0450   32.2640 C.3       8 GLP5        0.0000 
@<TRIPOS>BOND
@<TRIPOS>SUBSTRUCTURE
     1 ALC1       30 GROUP        1 X    ALC  0     ROOT ALC X 1
     2 SEC2        1 GROUP        1 X    SEC  0     **** SEC X 2
     3 LYC4        6 GROUP        1 X    LYC  0     **** LYC X 4
     4 GLC5       22 GROUP        1 X    GLC  0     **** GLC X 6
     5 ALP1       32 GROUP        1 Y    ALP  0     ROOT ALP Y 8
     6 SEP2        3 GROUP        1 Y    SEP  0     **** SEP Y 9
     7 LYP4        8 GROUP        1 Y    LYP  0     **** LYP Y 11
     8 GLP5       24 GROUP        1 Y    GLP  0     **** GLP Y 13
     9 ALL1       31 GROUP        1 Z    ALL  0     ROOT ALL Z 15
    10 SEL2        2 GROUP        1 Z    SEL  0     **** SEL Z 16
    11 LYL4        7 GROUP        1 Z    LYL  0     **** LYL Z 18
    12 GLL5       23 GROUP        1 Z    GLL  0     **** GLL Z 20
@<TRIPOS>SET

