#    Name: 1gph_AMP_7_ligand
#    Modification time : Tue Mar 25 03:27:00 2014

@<TRIPOS>MOLECULE
1gph_AMP_7_ligand
   35    37     1     0     0
SMALL
NO_CHARGES


@<TRIPOS>ATOM
      1 P          87.4380   40.1270   31.1560 P.3       1 AMP467      0.0000 
      2 O1P        86.0140   40.5430   31.2090 O.co2     1 AMP467      0.0000 
      3 O2P        88.1700   40.6610   29.9860 O.co2     1 AMP467      0.0000 
      4 O3P        88.1620   40.2550   32.4350 O.co2     1 AMP467      0.0000 
      5 O5'        87.3450   38.5620   30.8930 O.3       1 AMP467      0.0000 
      6 C5'        86.3630   37.6430   31.4070 C.3       1 AMP467      0.0000 
      7 C4'        86.8570   36.2410   31.1940 C.3       1 AMP467      0.0000 
      8 O4'        88.1120   36.1020   31.8450 O.3       1 AMP467      0.0000 
      9 C3'        85.9560   35.1230   31.6480 C.3       1 AMP467      0.0000 
     10 O3'        85.0650   34.6250   30.6220 O.3       1 AMP467      0.0000 
     11 C2'        86.9820   34.0360   31.8510 C.3       1 AMP467      0.0000 
     12 O2'        87.1150   33.1700   30.6950 O.3       1 AMP467      0.0000 
     13 C1'        88.2880   34.7520   32.2230 C.3       1 AMP467      0.0000 
     14 N9         88.5850   34.6600   33.6630 N.pl3     1 AMP467      0.0000 
     15 C8         87.6670   34.6550   34.6860 C.2       1 AMP467      0.0000 
     16 N7         88.1290   35.0520   35.8360 N.2       1 AMP467      0.0000 
     17 C5         89.4780   35.2410   35.5880 C.ar      1 AMP467      0.0000 
     18 C6         90.5520   35.5000   36.4450 C.ar      1 AMP467      0.0000 
     19 N6         90.4090   35.6550   37.7620 N.pl3     1 AMP467      0.0000 
     20 N1         91.7620   35.5560   35.9010 N.ar      1 AMP467      0.0000 
     21 C2         91.8920   35.3310   34.6050 C.ar      1 AMP467      0.0000 
     22 N3         90.9710   35.0570   33.7020 N.ar      1 AMP467      0.0000 
     23 C4         89.7580   35.0440   34.2670 C.ar      1 AMP467      0.0000 
     24 H          85.4057   37.7590   30.8923 H         1 AMP467      0.0000 
     25 H          86.1987   37.7977   32.4765 H         1 AMP467      0.0000 
     26 H          87.0260   36.1085   30.1015 H         1 AMP467      0.0000 
     27 H          85.5151   35.3387   32.5501 H         1 AMP467      0.0000 
     28 H          86.6775   33.4659   32.7351 H         1 AMP467      0.0000 
     29 H          89.0786   34.2965   31.6462 H         1 AMP467      0.0000 
     30 H          86.7139   34.3587   34.5197 H         1 AMP467      0.0000 
     31 H          91.2403   35.8762   38.2719 H         1 AMP467      0.0000 
     32 H          89.4833   35.5361   38.1211 H         1 AMP467      0.0000 
     33 H          92.9391   35.3806   34.2179 H         1 AMP467      0.0000 
     34 H          84.8613   33.6836   30.8909 H         1 AMP467      0.0000 
     35 H          86.2234   32.7274   30.5994 H         1 AMP467      0.0000 
@<TRIPOS>BOND
     1    2    1 ar   
     2    3    1 ar   
     3    4    1 ar   
     4    5    1 1    
     5    6    5 1    
     6    7    6 1    
     7   24    6 1    
     8   25    6 1    
     9    8    7 1    
    10    9    7 1    
    11   26    7 1    
    12   13    8 1    
    13   10    9 1    
    14   11    9 1    
    15   27    9 1    
    16   34   10 1    
    17   12   11 1    
    18   13   11 1    
    19   28   11 1    
    20   35   12 1    
    21   14   13 1    
    22   29   13 1    
    23   15   14 1    
    24   23   14 1    
    25   16   15 2    
    26   30   15 1    
    27   17   16 1    
    28   18   17 ar   
    29   23   17 ar   
    30   19   18 1    
    31   20   18 ar   
    32   31   19 1    
    33   32   19 1    
    34   21   20 ar   
    35   22   21 ar   
    36   33   21 1    
    37   23   22 ar   
@<TRIPOS>SUBSTRUCTURE
     1 AMP467      1 GROUP   
@<TRIPOS>SET

