#    Name: 3oy1_589_1_INTS_M
#    Modification time : Tue Mar 25 05:38:52 2014

@<TRIPOS>MOLECULE
3oy1_589_1_INTS_M
   94     0     9     0     0
SMALL
NO_CHARGES


@<TRIPOS>ATOM
      1 CA        -16.8495   11.0570  -38.4150 C.3       3 GLC5        0.0000 
      2 CA        -17.3960   11.9000  -36.4350 C.3       9 GLL5        0.0000 
      3 CA        -16.3030   10.2140  -40.3950 C.3       6 GLP5        0.0000 
      4 CA        -16.9495   10.2335  -35.9250 C.3       3 GLC5        0.0000 
      5 CA        -16.5030    8.5670  -35.4150 C.3       6 GLP5        0.0000 
      6 CA        -15.5355   12.3730  -33.5690 C.3       3 GLC5        0.0000 
      7 CA        -17.3080   13.2680  -33.9990 C.3       9 GLL5        0.0000 
      8 CA        -13.7630   11.4780  -33.1390 C.3       6 GLP5        0.0000 
      9 CA        -16.6630   15.0535  -36.3115 C.3       3 GLC5        0.0000 
     10 CA        -16.3320   13.4410  -34.9370 C.3       9 GLL5        0.0000 
     11 CA        -16.9940   16.6660  -37.6860 C.3       6 GLP5        0.0000 
     12 CA        -14.8280   13.1150  -37.5485 C.3       3 GLC5        0.0000 
     13 CA        -16.3880   12.7750  -36.1330 C.3       9 GLL5        0.0000 
     14 CA        -13.2680   13.4550  -38.9640 C.3       6 GLP5        0.0000 
     15 CA        -15.7800   10.7695  -36.1380 C.3       3 GLC5        0.0000 
     16 CA        -15.1720    8.7640  -36.1430 C.3       6 GLP5        0.0000 
     17 CA        -19.8760   11.2820  -31.4475 C.3       3 GLC5        0.0000 
     18 CA        -20.3880   11.3190  -33.5110 C.3       9 GLL5        0.0000 
     19 CA        -19.3640   11.2450  -29.3840 C.3       6 GLP5        0.0000 
     20 CA        -17.9525    9.7060  -35.5720 C.3       3 GLC5        0.0000 
     21 CA        -19.4020   10.8450  -35.7290 C.3       9 GLL5        0.0000 
     22 CA        -24.7920   12.4785  -32.8920 C.3       3 GLC5        0.0000 
     23 CA        -25.1120   12.5780  -30.9870 C.3       9 GLL5        0.0000 
     24 CA        -24.4720   12.3790  -34.7970 C.3       6 GLP5        0.0000 
     25 CA        -27.4225   11.3810  -31.2930 C.3       3 GLC5        0.0000 
     26 CA        -26.1970   12.5140  -29.9740 C.3       9 GLL5        0.0000 
     27 CA        -28.6480   10.2480  -32.6120 C.3       6 GLP5        0.0000 
     28 CA        -24.5100   13.2830  -26.1005 C.3       3 GLC5        0.0000 
     29 CA        -24.6230   13.2110  -28.3240 C.3       9 GLL5        0.0000 
     30 CA        -24.3970   13.3550  -23.8770 C.3       6 GLP5        0.0000 
     31 CA        -21.4235   12.0915  -29.3325 C.3       3 GLC5        0.0000 
     32 CA        -23.4830   12.9380  -29.2810 C.3       9 GLL5        0.0000 
     33 CA        -22.4920    9.3730  -33.9855 C.3       3 GLC5        0.0000 
     34 CA        -21.2980    8.5610  -32.2970 C.3       9 GLL5        0.0000 
     35 CA        -23.6860   10.1850  -35.6740 C.3       6 GLP5        0.0000 
     36 CA        -20.3310    9.9030  -30.8405 C.3       3 GLC5        0.0000 
     37 CA        -18.6270    9.4360  -31.5910 C.3       3 GLC5        0.0000 
     38 CA        -20.0340    8.2450  -32.6630 C.3       9 GLL5        0.0000 
     39 CA        -17.2200   10.6270  -30.5190 C.3       6 GLP5        0.0000 
     40 CA        -18.5180    5.7685  -31.8815 C.3       3 GLC5        0.0000 
     41 CA        -19.6930    6.9450  -32.8320 C.3       9 GLL5        0.0000 
     42 CA        -17.3430    4.5920  -30.9310 C.3       6 GLP5        0.0000 
     43 N         -19.8205    4.6470  -32.8155 N.am      2 SEC2        0.0000 
     44 N         -20.5390    5.9800  -32.6720 N.am      8 SEL2        0.0000 
     45 N         -19.1020    3.3140  -32.9590 N.am      5 SEP2        0.0000 
     46 CA        -20.9875    6.7020  -34.3305 C.3       3 GLC5        0.0000 
     47 CA        -21.7910    6.2200  -32.3010 C.3       9 GLL5        0.0000 
     48 CA        -20.1840    7.1840  -36.3600 C.3       6 GLP5        0.0000 
     49 CA        -21.7675    4.9445  -33.9840 C.3       3 GLC5        0.0000 
     50 CA        -21.7440    3.6690  -35.6670 C.3       6 GLP5        0.0000 
     51 CA        -20.2395    5.0790  -31.4575 C.3       3 GLC5        0.0000 
     52 CA        -18.6880    3.9380  -30.6140 C.3       6 GLP5        0.0000 
     53 O         -22.0030    3.7475  -32.0505 O.2       1 ALC1        0.0000 
     54 O         -22.6050    5.1780  -32.1550 O.2       7 ALL1        0.0000 
     55 O         -21.4010    2.3170  -31.9460 O.2       4 ALP1        0.0000 
     56 CA        -24.0265    5.8315  -33.3815 C.3       3 GLC5        0.0000 
     57 CA        -23.8990    5.2040  -31.5690 C.3       9 GLL5        0.0000 
     58 CA        -24.1540    6.4590  -35.1940 C.3       6 GLP5        0.0000 
     59 CA        -24.7205    6.2160  -27.5205 C.3       3 GLC5        0.0000 
     60 CA        -25.1140    5.1560  -29.3770 C.3       9 GLL5        0.0000 
     61 CA        -24.3270    7.2760  -25.6640 C.3       6 GLP5        0.0000 
     62 CA        -19.3495   12.8820  -36.6288 C.3       3 GLC5        0.0000 
     63 CA        -18.3760   11.6940  -35.5180 C.3       9 GLL5        0.0000 
     64 CA        -20.8130   13.9670  -37.2810 C.3       6 GLP5        0.0000 
     65 CA        -16.8750   13.4988  -37.7335 C.3       3 GLC5        0.0000 
     66 CA        -16.8580   14.6600  -39.1830 C.3       6 GLP5        0.0000 
     67 CA        -17.4417   10.6430  -34.3097 C.3       3 GLC5        0.0000 
     68 CA        -16.5230    9.2400  -33.7410 C.3       6 GLP5        0.0000 
     69 CA        -15.3725   14.7402  -34.2125 C.3       3 GLC5        0.0000 
     70 CA        -13.9250   16.1260  -33.9570 C.3       6 GLP5        0.0000 
     71 CA        -16.6715   11.2973  -34.1045 C.3       3 GLC5        0.0000 
     72 CA        -14.7400   12.6215  -34.9515 C.3       3 GLC5        0.0000 
     73 CA        -13.1200   12.1350  -34.3680 C.3       6 GLP5        0.0000 
     74 CA        -19.5481   13.9805  -34.5205 C.3       3 GLC5        0.0000 
     75 CA        -18.3450   12.3980  -34.2390 C.3       9 GLL5        0.0000 
     76 CA        -20.5110   15.4560  -35.3220 C.3       6 GLP5        0.0000 
     77 CA        -17.9026   11.5660  -32.1190 C.3       3 GLC5        0.0000 
     78 CA        -20.0335    8.9760  -35.7990 C.3       3 GLC5        0.0000 
     79 CA        -20.3640   10.6910  -34.7470 C.3       9 GLL5        0.0000 
     80 CA        -20.3480   12.3675  -36.2595 C.3       3 GLC5        0.0000 
     81 CA        -18.3190   10.2297  -33.9110 C.3       3 GLC5        0.0000 
     82 CA        -21.7875   10.5550  -35.3015 C.3       3 GLC5        0.0000 
     83 CA        -20.4535    8.0400  -30.4470 C.3       3 GLC5        0.0000 
     84 CA        -20.2410    7.6770  -28.4140 C.3       6 GLP5        0.0000 
     85 CA        -18.1932    8.4175  -33.2443 C.3       3 GLC5        0.0000 
     86 CA        -20.1818    7.4290  -34.5080 C.3       3 GLC5        0.0000 
     87 CA        -23.0688    6.6657  -33.6990 C.3       3 GLC5        0.0000 
     88 CA        -21.1122    7.2747  -30.3090 C.3       3 GLC5        0.0000 
     89 CA        -25.9630    5.0473  -33.0900 C.3       3 GLC5        0.0000 
     90 CA        -24.6320    3.9500  -31.9480 C.3       9 GLL5        0.0000 
     91 CA        -26.6210    6.1710  -34.5690 C.3       6 GLP5        0.0000 
     92 CA        -23.7864    3.8729  -28.3678 C.3       3 GLC5        0.0000 
     93 CA        -25.8950    3.9370  -29.7770 C.3       9 GLL5        0.0000 
     94 CA        -22.9340    2.8430  -26.9130 C.3       6 GLP5        0.0000 
@<TRIPOS>BOND
@<TRIPOS>SUBSTRUCTURE
     1 ALC1       53 GROUP        1 X    ALC  0     ROOT ALC X 1
     2 SEC2       43 GROUP        1 X    SEC  0     **** SEC X 2
     3 GLC5        1 GROUP        1 X    GLC  0     **** GLC X 6
     4 ALP1       55 GROUP        1 Y    ALP  0     ROOT ALP Y 8
     5 SEP2       45 GROUP        1 Y    SEP  0     **** SEP Y 9
     6 GLP5        3 GROUP        1 Y    GLP  0     **** GLP Y 13
     7 ALL1       54 GROUP        1 Z    ALL  0     ROOT ALL Z 15
     8 SEL2       44 GROUP        1 Z    SEL  0     **** SEL Z 16
     9 GLL5        2 GROUP        1 Z    GLL  0     **** GLL Z 20
@<TRIPOS>SET

