#    Name: 3oy1_589_1_ligand
#    Modification time : Tue Mar 25 05:38:52 2014

@<TRIPOS>MOLECULE
3oy1_589_1_ligand
   66    71     1     0     0
SMALL
NO_CHARGES


@<TRIPOS>ATOM
      1 C1        -17.3960   11.9000  -36.4350 C.ar      1 5891        0.0000 
      2 C2        -18.3760   11.6940  -35.5180 C.ar      1 5891        0.0000 
      3 C3        -18.3450   12.3980  -34.2390 C.ar      1 5891        0.0000 
      4 C4        -17.3080   13.2680  -33.9990 C.ar      1 5891        0.0000 
      5 C5        -16.3320   13.4410  -34.9370 C.ar      1 5891        0.0000 
      6 C6        -16.3880   12.7750  -36.1330 C.ar      1 5891        0.0000 
      7 C7        -19.3440   12.1770  -33.3190 C.ar      1 5891        0.0000 
      8 C8        -20.3880   11.3190  -33.5110 C.ar      1 5891        0.0000 
      9 C9        -20.3640   10.6910  -34.7470 C.ar      1 5891        0.0000 
     10 C10       -19.4020   10.8450  -35.7290 C.ar      1 5891        0.0000 
     11 N11       -21.3340   11.1230  -32.6040 N.am      1 5891        0.0000 
     12 C12       -21.7130    9.9670  -32.0810 C.2       1 5891        0.0000 
     13 N13       -22.7020   10.2500  -31.2490 N.2       1 5891        0.0000 
     14 N14       -22.8720   11.5740  -31.2630 N.am      1 5891        0.0000 
     15 C15       -22.0140   12.0740  -32.0940 C.2       1 5891        0.0000 
     16 O16       -21.8700   13.2810  -32.3970 O.2       1 5891        0.0000 
     17 C17       -23.9180   11.9890  -30.3460 C.3       1 5891        0.0000 
     18 C18       -25.1120   12.5780  -30.9870 C.3       1 5891        0.0000 
     19 C19       -26.1970   12.5140  -29.9740 C.3       1 5891        0.0000 
     20 O20       -25.8880   13.3920  -28.9400 O.3       1 5891        0.0000 
     21 C21       -24.6230   13.2110  -28.3240 C.3       1 5891        0.0000 
     22 C22       -23.4830   12.9380  -29.2810 C.3       1 5891        0.0000 
     23 C23       -21.2980    8.5610  -32.2970 C.ar      1 5891        0.0000 
     24 C24       -20.0340    8.2450  -32.6630 C.ar      1 5891        0.0000 
     25 C25       -19.6930    6.9450  -32.8320 C.ar      1 5891        0.0000 
     26 N26       -20.5390    5.9800  -32.6720 N.ar      1 5891        0.0000 
     27 C27       -21.7910    6.2200  -32.3010 C.ar      1 5891        0.0000 
     28 C28       -22.1760    7.5250  -32.1070 C.ar      1 5891        0.0000 
     29 N29       -22.6050    5.1780  -32.1550 N.pl3     1 5891        0.0000 
     30 C30       -23.8990    5.2040  -31.5690 C.3       1 5891        0.0000 
     31 C31       -24.6320    3.9500  -31.9480 C.3       1 5891        0.0000 
     32 C32       -25.9780    3.8970  -31.2740 C.3       1 5891        0.0000 
     33 C33       -25.8950    3.9370  -29.7770 C.3       1 5891        0.0000 
     34 C34       -25.1140    5.1560  -29.3770 C.3       1 5891        0.0000 
     35 C35       -23.7730    5.2590  -30.0680 C.3       1 5891        0.0000 
     36 H         -17.4065   11.4109  -37.3394 H         1 5891        0.0000 
     37 H         -17.2715   13.7896  -33.1057 H         1 5891        0.0000 
     38 H         -15.5372   14.0839  -34.7445 H         1 5891        0.0000 
     39 H         -15.6307   12.9422  -36.8423 H         1 5891        0.0000 
     40 H         -19.2955   12.7116  -32.3999 H         1 5891        0.0000 
     41 H         -21.1748   10.0172  -34.9625 H         1 5891        0.0000 
     42 H         -19.4830   10.3095  -36.6066 H         1 5891        0.0000 
     43 H         -24.2918   11.0719  -29.7919 H         1 5891        0.0000 
     44 H         -25.3888   12.0054  -31.8595 H         1 5891        0.0000 
     45 H         -24.9221   13.6056  -31.2584 H         1 5891        0.0000 
     46 H         -26.2819   11.4746  -29.6240 H         1 5891        0.0000 
     47 H         -27.1458   12.7718  -30.4673 H         1 5891        0.0000 
     48 H         -24.6503   12.3671  -27.5875 H         1 5891        0.0000 
     49 H         -24.3398   14.1071  -27.7139 H         1 5891        0.0000 
     50 H         -23.1604   13.8799  -29.7299 H         1 5891        0.0000 
     51 H         -22.6436   12.5151  -28.7249 H         1 5891        0.0000 
     52 H         -19.3308    8.9926  -32.8132 H         1 5891        0.0000 
     53 H         -18.6833    6.7368  -33.1071 H         1 5891        0.0000 
     54 H         -23.1543    7.7297  -31.8098 H         1 5891        0.0000 
     55 H         -22.2858    4.2102  -32.5018 H         1 5891        0.0000 
     56 H         -24.4672    6.0505  -31.8994 H         1 5891        0.0000 
     57 H         -24.0433    3.0777  -31.6513 H         1 5891        0.0000 
     58 H         -24.7680    3.9188  -33.0324 H         1 5891        0.0000 
     59 H         -26.5015    2.9753  -31.5862 H         1 5891        0.0000 
     60 H         -26.5923    4.7444  -31.6284 H         1 5891        0.0000 
     61 H         -25.3934    3.0465  -29.4136 H         1 5891        0.0000 
     62 H         -26.8932    3.9884  -29.3556 H         1 5891        0.0000 
     63 H         -24.9546    5.1462  -28.2849 H         1 5891        0.0000 
     64 H         -25.7049    6.0600  -29.6047 H         1 5891        0.0000 
     65 H         -23.2893    6.2019  -29.7776 H         1 5891        0.0000 
     66 H         -23.1275    4.4380  -29.7266 H         1 5891        0.0000 
@<TRIPOS>BOND
     1    2    1 ar   
     2    6    1 ar   
     3   36    1 1    
     4    3    2 ar   
     5   10    2 ar   
     6    4    3 ar   
     7    7    3 ar   
     8    5    4 ar   
     9   37    4 1    
    10    6    5 ar   
    11   38    5 1    
    12   39    6 1    
    13    8    7 ar   
    14   40    7 1    
    15    9    8 ar   
    16   11    8 1    
    17   10    9 ar   
    18   41    9 1    
    19   42   10 1    
    20   12   11 1    
    21   15   11 am   
    22   13   12 2    
    23   23   12 1    
    24   14   13 1    
    25   15   14 am   
    26   17   14 1    
    27   16   15 2    
    28   18   17 1    
    29   22   17 1    
    30   43   17 1    
    31   19   18 1    
    32   44   18 1    
    33   45   18 1    
    34   20   19 1    
    35   46   19 1    
    36   47   19 1    
    37   21   20 1    
    38   22   21 1    
    39   48   21 1    
    40   49   21 1    
    41   50   22 1    
    42   51   22 1    
    43   24   23 ar   
    44   28   23 ar   
    45   25   24 ar   
    46   52   24 1    
    47   26   25 ar   
    48   53   25 1    
    49   27   26 ar   
    50   28   27 ar   
    51   29   27 1    
    52   54   28 1    
    53   30   29 1    
    54   55   29 1    
    55   31   30 1    
    56   35   30 1    
    57   56   30 1    
    58   32   31 1    
    59   57   31 1    
    60   58   31 1    
    61   33   32 1    
    62   59   32 1    
    63   60   32 1    
    64   34   33 1    
    65   61   33 1    
    66   62   33 1    
    67   35   34 1    
    68   63   34 1    
    69   64   34 1    
    70   65   35 1    
    71   66   35 1    
@<TRIPOS>SUBSTRUCTURE
     1 5891        1 GROUP   
@<TRIPOS>SET

