#    Name: 4c0b_ATP_1_INTS_M
#    Modification time : Tue Mar 25 08:37:34 2014

@<TRIPOS>MOLECULE
4c0b_ATP_1_INTS_M
   71     0    12     0     0
SMALL
NO_CHARGES


@<TRIPOS>ATOM
      1 NZ        -21.5250  -21.3035   49.6200 N.4       2 LYC4        0.0000 
      2 NZ        -21.6040  -23.1550   49.4030 N.4      10 LYL4        0.0000 
      3 NZ        -21.4460  -19.4520   49.8370 N.4       6 LYP4        0.0000 
      4 N         -22.3970  -23.7045   50.4230 N.am      1 SEC2        0.0000 
      5 N         -21.6040  -23.1550   49.4030 N.am      9 SEL2        0.0000 
      6 N         -23.1900  -24.2540   51.4430 N.am      5 SEP2        0.0000 
      7 NZ        -21.6645  -24.8945   45.7600 N.4       2 LYC4        0.0000 
      8 NZ        -22.2240  -24.6440   47.5120 N.4      10 LYL4        0.0000 
      9 NZ        -21.1050  -25.1450   44.0080 N.4       6 LYP4        0.0000 
     10 N         -22.4435  -25.8860   48.6495 N.am      1 SEC2        0.0000 
     11 N         -22.2240  -24.6440   47.5120 N.am      9 SEL2        0.0000 
     12 N         -22.6630  -27.1280   49.7870 N.am      5 SEP2        0.0000 
     13 NZ        -20.6690  -24.2090   45.6715 N.4       2 LYC4        0.0000 
     14 NZ        -20.2330  -23.2730   47.3350 N.4      10 LYL4        0.0000 
     15 Zn        -19.1520  -23.1695   47.1150 Zn        3 ZIC7        0.0000 
     16 Zn        -20.2330  -23.2730   47.3350 Zn       11 ZIL7        0.0000 
     17 Zn        -18.0710  -23.0660   46.8950 Zn        7 ZIP7        0.0000 
     18 Zn        -18.1035  -24.1980   47.3105 Zn        3 ZIC7        0.0000 
     19 Zn        -18.1360  -25.3300   47.7260 Zn       11 ZIL7        0.0000 
     20 N         -16.8070  -25.7400   47.2730 N.am      1 SEC2        0.0000 
     21 N         -18.1360  -25.3300   47.7260 N.am      9 SEL2        0.0000 
     22 N         -15.4780  -26.1500   46.8200 N.am      5 SEP2        0.0000 
     23 N         -17.1560  -24.4570   47.4970 N.am      1 SEC2        0.0000 
     24 N         -16.1760  -23.5840   47.2680 N.am      5 SEP2        0.0000 
     25 N         -20.3975  -28.4135   48.4645 N.am      1 SEC2        0.0000 
     26 N         -19.6340  -27.2670   47.7630 N.am      9 SEL2        0.0000 
     27 N         -21.1610  -29.5600   49.1660 N.am      5 SEP2        0.0000 
     28 N         -19.0820  -28.6270   48.3235 N.am      1 SEC2        0.0000 
     29 N         -18.5300  -29.9870   48.8840 N.am      5 SEP2        0.0000 
     30 N         -18.3710  -27.9425   47.3585 N.am      1 SEC2        0.0000 
     31 N         -17.1080  -28.6180   46.9540 N.am      5 SEP2        0.0000 
     32 N         -21.4520  -26.1725   49.3685 N.am      1 SEC2        0.0000 
     33 N         -20.2410  -25.2170   48.9500 N.am      9 SEL2        0.0000 
     34 N         -14.6635  -26.8780   49.2315 N.am      1 SEC2        0.0000 
     35 N         -15.9130  -26.8710   49.9170 N.am      9 SEL2        0.0000 
     36 N         -13.4140  -26.8850   48.5460 N.am      5 SEP2        0.0000 
     37 N         -14.8310  -27.3125   50.5580 N.am      1 SEC2        0.0000 
     38 N         -13.7490  -27.7540   51.1990 N.am      5 SEP2        0.0000 
     39 N         -18.4460  -28.3185   49.3725 N.am      1 SEC2        0.0000 
     40 N         -18.3620  -26.6500   49.8610 N.am      9 SEL2        0.0000 
     41 CA        -19.9535  -26.0185   52.7820 C.3       4 GLC5        0.0000 
     42 CA        -18.0920  -26.1290   53.0450 C.3      12 GLL5        0.0000 
     43 CA        -21.8150  -25.9080   52.5190 C.3       8 GLP5        0.0000 
     44 CA        -18.1980  -28.0795   52.6930 C.3       4 GLC5        0.0000 
     45 CA        -18.3040  -30.0300   52.3410 C.3       8 GLP5        0.0000 
     46 N         -17.7705  -28.4930   55.4025 N.am      1 SEC2        0.0000 
     47 N         -16.8760  -27.2330   54.8350 N.am      9 SEL2        0.0000 
     48 N         -18.6650  -29.7530   55.9700 N.am      5 SEP2        0.0000 
     49 CA        -12.9400  -26.0450   54.1775 C.3       4 GLC5        0.0000 
     50 CA        -15.0130  -25.8490   54.5390 C.3      12 GLL5        0.0000 
     51 CA        -10.8670  -26.2410   53.8160 C.3       8 GLP5        0.0000 
     52 CA        -13.5150  -31.1700   59.7915 C.3       4 GLC5        0.0000 
     53 CA        -14.1470  -29.9260   58.2910 C.3      12 GLL5        0.0000 
     54 CA        -12.8830  -32.4140   61.2920 C.3       8 GLP5        0.0000 
     55 CA        -12.1465  -30.1625   58.0165 C.3       4 GLC5        0.0000 
     56 CA        -10.1460  -30.3990   57.7420 C.3       8 GLP5        0.0000 
     57 CA        -14.9235  -31.8055   57.5245 C.3       4 GLC5        0.0000 
     58 CA        -15.7000  -33.6850   56.7580 C.3       8 GLP5        0.0000 
     59 CA        -12.4355  -28.6725   56.4040 C.3       4 GLC5        0.0000 
     60 CA        -14.4340  -29.1010   56.2570 C.3      12 GLL5        0.0000 
     61 CA        -10.4370  -28.2440   56.5510 C.3       8 GLP5        0.0000 
     62 CA        -18.5214  -24.4278   54.7822 C.3       4 GLC5        0.0000 
     63 CA        -17.4070  -25.9650   54.3830 C.3      12 GLL5        0.0000 
     64 CA        -20.0400  -23.3540   55.4830 C.3       8 GLP5        0.0000 
     65 CA        -11.9612  -30.2170   56.2228 C.3       4 GLC5        0.0000 
     66 CA        -13.7990  -30.1840   55.6670 C.3      12 GLL5        0.0000 
     67 CA        -10.3570  -29.7430   56.3470 C.3       8 GLP5        0.0000 
     68 CA        -14.6327  -32.1880   56.4283 C.3       4 GLC5        0.0000 
     69 CA        -13.3320  -31.1980   56.5300 C.3      12 GLL5        0.0000 
     70 CA        -15.7683  -30.4143   55.1845 C.3       4 GLC5        0.0000 
     71 CA        -17.4200  -31.1860   54.4070 C.3       8 GLP5        0.0000 
@<TRIPOS>BOND
@<TRIPOS>SUBSTRUCTURE
     1 SEC2        4 GROUP        1 X    SEC  0     ROOT SEC X 2
     2 LYC4        1 GROUP        1 X    LYC  0     **** LYC X 4
     3 ZIC7       15 GROUP        1 X    ZIC  0     **** ZIC X 5
     4 GLC5       41 GROUP        1 X    GLC  0     **** GLC X 6
     5 SEP2        6 GROUP        1 Y    SEP  0     ROOT SEP Y 9
     6 LYP4        3 GROUP        1 Y    LYP  0     **** LYP Y 11
     7 ZIP7       17 GROUP        1 Y    ZIP  0     **** ZIP Y 12
     8 GLP5       43 GROUP        1 Y    GLP  0     **** GLP Y 13
     9 SEL2        5 GROUP        1 Z    SEL  0     ROOT SEL Z 16
    10 LYL4        2 GROUP        1 Z    LYL  0     **** LYL Z 18
    11 ZIL7       16 GROUP        1 Z    ZIL  0     **** ZIL Z 19
    12 GLL5       42 GROUP        1 Z    GLL  0     **** GLL Z 20
@<TRIPOS>SET

