#    Name: 4c0b_ATP_1_ligand
#    Modification time : Tue Mar 25 08:37:34 2014

@<TRIPOS>MOLECULE
4c0b_ATP_1_ligand
   43    45     1     0     0
SMALL
NO_CHARGES


@<TRIPOS>ATOM
      1 PG        -21.1020  -24.0310   48.2950 P.3       1 ATP1446     0.0000 
      2 O1G       -21.6040  -23.1550   49.4030 O.co2     1 ATP1446     0.0000 
      3 O2G       -22.2240  -24.6440   47.5120 O.co2     1 ATP1446     0.0000 
      4 O3G       -20.2330  -23.2730   47.3350 O.co2     1 ATP1446     0.0000 
      5 PB        -19.1020  -26.1060   48.5460 P.3       1 ATP1446     0.0000 
      6 O1B       -18.1360  -25.3300   47.7260 O.co2     1 ATP1446     0.0000 
      7 O2B       -19.6340  -27.2670   47.7630 O.co2     1 ATP1446     0.0000 
      8 O3B       -20.2410  -25.2170   48.9500 O.3       1 ATP1446     0.0000 
      9 PA        -17.1180  -26.2400   50.5900 P.3       1 ATP1446     0.0000 
     10 O1A       -15.9130  -26.8710   49.9170 O.co2     1 ATP1446     0.0000 
     11 O2A       -16.9690  -24.7640   50.5500 O.co2     1 ATP1446     0.0000 
     12 O3A       -18.3620  -26.6500   49.8610 O.3       1 ATP1446     0.0000 
     13 O5'       -17.1940  -26.7610   52.1060 O.3       1 ATP1446     0.0000 
     14 C5'       -18.0920  -26.1290   53.0450 C.3       1 ATP1446     0.0000 
     15 C4'       -17.4070  -25.9650   54.3830 C.3       1 ATP1446     0.0000 
     16 O4'       -16.8760  -27.2330   54.8350 O.3       1 ATP1446     0.0000 
     17 C3'       -16.2560  -24.9560   54.4490 C.3       1 ATP1446     0.0000 
     18 O3'       -16.3970  -24.0880   55.5700 O.3       1 ATP1446     0.0000 
     19 C2'       -15.0130  -25.8490   54.5390 C.3       1 ATP1446     0.0000 
     20 O2'       -13.9170  -25.2160   55.1890 O.3       1 ATP1446     0.0000 
     21 C1'       -15.5680  -27.0300   55.3300 C.3       1 ATP1446     0.0000 
     22 N9        -14.8160  -28.2820   55.2210 N.pl3     1 ATP1446     0.0000 
     23 C8        -14.3830  -28.9040   54.0780 C.2       1 ATP1446     0.0000 
     24 N7        -13.7670  -30.0410   54.2870 N.2       1 ATP1446     0.0000 
     25 C5        -13.7990  -30.1840   55.6670 C.ar      1 ATP1446     0.0000 
     26 C6        -13.3320  -31.1980   56.5300 C.ar      1 ATP1446     0.0000 
     27 N6        -12.7040  -32.3000   56.1090 N.pl3     1 ATP1446     0.0000 
     28 N1        -13.5300  -31.0340   57.8610 N.ar      1 ATP1446     0.0000 
     29 C2        -14.1470  -29.9260   58.2910 C.ar      1 ATP1446     0.0000 
     30 N3        -14.6390  -28.9100   57.5730 N.ar      1 ATP1446     0.0000 
     31 C4        -14.4340  -29.1010   56.2570 C.ar      1 ATP1446     0.0000 
     32 H         -18.9972  -26.7300   53.1912 H         1 ATP1446     0.0000 
     33 H         -18.4005  -25.1384   52.6906 H         1 ATP1446     0.0000 
     34 H         -18.1629  -25.6360   55.1229 H         1 ATP1446     0.0000 
     35 H         -16.2243  -24.4465   53.5104 H         1 ATP1446     0.0000 
     36 H         -14.8022  -26.1973   53.5524 H         1 ATP1446     0.0000 
     37 H         -15.6296  -26.7185   56.3755 H         1 ATP1446     0.0000 
     38 H         -14.5405  -28.4960   53.1716 H         1 ATP1446     0.0000 
     39 H         -12.3854  -32.9245   56.8221 H         1 ATP1446     0.0000 
     40 H         -12.6091  -32.4012   55.1187 H         1 ATP1446     0.0000 
     41 H         -14.2655  -29.8396   59.3869 H         1 ATP1446     0.0000 
     42 H         -16.6630  -23.2055   55.1821 H         1 ATP1446     0.0000 
     43 H         -14.3112  -24.4156   55.6406 H         1 ATP1446     0.0000 
@<TRIPOS>BOND
     1    2    1 ar   
     2    3    1 ar   
     3    4    1 ar   
     4    8    1 1    
     5    6    5 ar   
     6    7    5 ar   
     7    8    5 1    
     8   12    5 1    
     9   10    9 ar   
    10   11    9 ar   
    11   12    9 1    
    12   13    9 1    
    13   14   13 1    
    14   15   14 1    
    15   32   14 1    
    16   33   14 1    
    17   16   15 1    
    18   17   15 1    
    19   34   15 1    
    20   21   16 1    
    21   18   17 1    
    22   19   17 1    
    23   35   17 1    
    24   42   18 1    
    25   20   19 1    
    26   21   19 1    
    27   36   19 1    
    28   43   20 1    
    29   22   21 1    
    30   37   21 1    
    31   23   22 1    
    32   31   22 1    
    33   24   23 2    
    34   38   23 1    
    35   25   24 1    
    36   26   25 ar   
    37   31   25 ar   
    38   27   26 1    
    39   28   26 ar   
    40   39   27 1    
    41   40   27 1    
    42   29   28 ar   
    43   30   29 ar   
    44   41   29 1    
    45   31   30 ar   
@<TRIPOS>SUBSTRUCTURE
     1 ATP1446     1 GROUP   
@<TRIPOS>SET

