#    Name: 3ozr_OZR_1_INTS_M
#    Modification time : Tue Mar 25 05:42:33 2014

@<TRIPOS>MOLECULE
3ozr_OZR_1_INTS_M
   58     0    15     0     0
SMALL
NO_CHARGES


@<TRIPOS>ATOM
      1 CA        -18.2180   29.3185   10.1995 C.3       5 GLC5        0.0000 
      2 CA        -19.6090   30.7010   11.0200 C.3      15 GLL5        0.0000 
      3 CA        -16.8270   27.9360    9.3790 C.3      10 GLP5        0.0000 
      4 O         -18.8190   29.1825   14.9260 O.2       1 ALC1        0.0000 
      5 O         -18.9300   29.7130   13.8080 O.2      11 ALL1        0.0000 
      6 O         -18.7080   28.6520   16.0440 O.2       6 ALP1        0.0000 
      7 O         -18.8200   30.2315   15.2220 O.2       1 ALC1        0.0000 
      8 O         -18.7100   30.7500   16.6360 O.2       6 ALP1        0.0000 
      9 O         -19.4325   31.3855   15.8865 O.2       1 ALC1        0.0000 
     10 O         -20.1550   32.0210   15.1370 O.2      11 ALL1        0.0000 
     11 CA        -18.5245   28.8870    9.0855 C.3       5 GLC5        0.0000 
     12 CA        -20.2220   29.8380    8.7920 C.3      15 GLL5        0.0000 
     13 CA        -18.3695   30.4545    8.0255 C.3       5 GLC5        0.0000 
     14 CA        -16.5170   31.0710    7.2590 C.3      10 GLP5        0.0000 
     15 CA        -20.1720   28.8560    6.8975 C.3       5 GLC5        0.0000 
     16 CA        -20.1220   27.8740    5.0030 C.3      10 GLP5        0.0000 
     17 CA        -21.6905   28.3645    5.8715 C.3       5 GLC5        0.0000 
     18 CA        -23.2590   28.8550    6.7400 C.3      15 GLL5        0.0000 
     19 CA        -26.3440   26.2450    4.2110 C.3       5 GLC5        0.0000 
     20 CA        -25.3630   27.3590    5.6000 C.3      15 GLL5        0.0000 
     21 CA        -27.3250   25.1310    2.8220 C.3      10 GLP5        0.0000 
     22 CA        -23.8200   29.6440    4.0885 C.3       5 GLC5        0.0000 
     23 CA        -24.2620   29.4990    6.0050 C.3      15 GLL5        0.0000 
     24 CA        -23.3780   29.7890    2.1720 C.3      10 GLP5        0.0000 
     25 NZ        -21.0760   26.8820    6.9195 N.4       3 LYC4        0.0000 
     26 NZ        -22.3800   26.7390    7.6040 N.4      13 LYL4        0.0000 
     27 NZ        -19.7720   27.0250    6.2350 N.4       8 LYP4        0.0000 
     28 Zn        -22.5340   25.6870    7.3505 Zn        4 ZIC7        0.0000 
     29 Zn        -22.3800   26.7390    7.6040 Zn       14 ZIL7        0.0000 
     30 Zn        -22.6880   24.6350    7.0970 Zn        9 ZIP7        0.0000 
     31 N         -21.0760   26.8820    6.9195 N.am      2 SEC2        0.0000 
     32 N         -22.3800   26.7390    7.6040 N.am     12 SEL2        0.0000 
     33 N         -19.7720   27.0250    6.2350 N.am      7 SEP2        0.0000 
     34 Zn        -23.5755   25.0015    6.7985 Zn        4 ZIC7        0.0000 
     35 Zn        -24.4630   25.3680    6.5000 Zn       14 ZIL7        0.0000 
     36 N         -24.0555   25.0685    5.1735 N.am      2 SEC2        0.0000 
     37 N         -24.4630   25.3680    6.5000 N.am     12 SEL2        0.0000 
     38 N         -23.6480   24.7690    3.8470 N.am      7 SEP2        0.0000 
     39 O         -25.6430   25.1985    6.8630 O.2       1 ALC1        0.0000 
     40 O         -24.4630   25.3680    6.5000 O.2      11 ALL1        0.0000 
     41 O         -26.8230   25.0290    7.2260 O.2       6 ALP1        0.0000 
     42 CA        -22.0992   31.4965   15.8800 C.3       5 GLC5        0.0000 
     43 CA        -21.0150   31.1480   14.4280 C.3      15 GLL5        0.0000 
     44 CA        -22.7440   31.4390   17.8160 C.3      10 GLP5        0.0000 
     45 CA        -22.6747   30.2131   14.2846 C.3       5 GLC5        0.0000 
     46 CA        -21.8940   31.9600   13.4600 C.3      15 GLL5        0.0000 
     47 CA        -24.1060   29.0810   14.8780 C.3      10 GLP5        0.0000 
     48 CA        -18.9243   31.9603    9.6932 C.3       5 GLC5        0.0000 
     49 CA        -17.7790   33.3050    8.8410 C.3      10 GLP5        0.0000 
     50 CA        -22.4280   30.1270    9.7272 C.3       5 GLC5        0.0000 
     51 CA        -20.5300   30.5300   10.0710 C.3      15 GLL5        0.0000 
     52 CA        -24.4800   30.0700   10.0230 C.3      10 GLP5        0.0000 
     53 CA        -24.1203   29.6235    8.1977 C.3       5 GLC5        0.0000 
     54 CA        -24.3880   28.1627    3.8217 C.3       5 GLC5        0.0000 
     55 CA        -23.4530   28.2660    2.1250 C.3      10 GLP5        0.0000 
     56 CA        -25.6271   27.9708    7.5504 C.3       5 GLC5        0.0000 
     57 CA        -25.2830   28.7600    5.4370 C.3      15 GLL5        0.0000 
     58 CA        -26.1790   28.0380    9.3910 C.3      10 GLP5        0.0000 
@<TRIPOS>BOND
@<TRIPOS>SUBSTRUCTURE
     1 ALC1        4 GROUP        1 X    ALC  0     ROOT ALC X 1
     2 SEC2       31 GROUP        1 X    SEC  0     **** SEC X 2
     3 LYC4       25 GROUP        1 X    LYC  0     **** LYC X 4
     4 ZIC7       28 GROUP        1 X    ZIC  0     **** ZIC X 5
     5 GLC5        1 GROUP        1 X    GLC  0     **** GLC X 6
     6 ALP1        6 GROUP        1 Y    ALP  0     ROOT ALP Y 8
     7 SEP2       33 GROUP        1 Y    SEP  0     **** SEP Y 9
     8 LYP4       27 GROUP        1 Y    LYP  0     **** LYP Y 11
     9 ZIP7       30 GROUP        1 Y    ZIP  0     **** ZIP Y 12
    10 GLP5        3 GROUP        1 Y    GLP  0     **** GLP Y 13
    11 ALL1        5 GROUP        1 Z    ALL  0     ROOT ALL Z 15
    12 SEL2       32 GROUP        1 Z    SEL  0     **** SEL Z 16
    13 LYL4       26 GROUP        1 Z    LYL  0     **** LYL Z 18
    14 ZIL7       29 GROUP        1 Z    ZIL  0     **** ZIL Z 19
    15 GLL5        2 GROUP        1 Z    GLL  0     **** GLL Z 20
@<TRIPOS>SET

