#    Name: 3ozr_OZR_1_ligand
#    Modification time : Tue Mar 25 05:42:33 2014

@<TRIPOS>MOLECULE
3ozr_OZR_1_ligand
   39    40     1     0     0
SMALL
NO_CHARGES


@<TRIPOS>ATOM
      1 C1        -20.1710   30.3130   13.4170 C.3       1 OZR224      0.0000 
      2 C2        -21.0150   31.1480   14.4280 C.3       1 OZR224      0.0000 
      3 C3        -21.8940   31.9600   13.4600 C.3       1 OZR224      0.0000 
      4 O4        -21.0800   32.2130   12.2910 O.3       1 OZR224      0.0000 
      5 C5        -19.8870   31.3840   12.3220 C.3       1 OZR224      0.0000 
      6 C6        -19.6090   30.7010   11.0200 C.2       1 OZR224      0.0000 
      7 O7        -18.9300   29.7130   13.8080 O.3       1 OZR224      0.0000 
      8 O8        -20.1550   32.0210   15.1370 O.3       1 OZR224      0.0000 
      9 C9        -20.5300   30.5300   10.0710 C.2       1 OZR224      0.0000 
     10 C10       -20.2220   29.8380    8.7920 C.3       1 OZR224      0.0000 
     11 N11       -21.3330   29.0860    8.2730 N.am      1 OZR224      0.0000 
     12 C12       -22.1520   29.6430    7.3490 C.2       1 OZR224      0.0000 
     13 C13       -23.2590   28.8550    6.7400 C.ar      1 OZR224      0.0000 
     14 C14       -23.3120   27.4510    6.9250 C.ar      1 OZR224      0.0000 
     15 C15       -24.3720   26.7350    6.3650 C.ar      1 OZR224      0.0000 
     16 C16       -25.3630   27.3590    5.6000 C.ar      1 OZR224      0.0000 
     17 C17       -25.2830   28.7600    5.4370 C.ar      1 OZR224      0.0000 
     18 C18       -24.2620   29.4990    6.0050 C.ar      1 OZR224      0.0000 
     19 N19       -26.2750   29.5410    4.6820 N.pl3     1 OZR224      0.0000 
     20 O20       -22.3800   26.7390    7.6040 O.co2     1 OZR224      0.0000 
     21 O21       -24.4630   25.3680    6.5000 O.3       1 OZR224      0.0000 
     22 O22       -22.0050   30.8400    7.0220 O.2       1 OZR224      0.0000 
     23 O23       -27.1140   29.0050    3.9920 O.2       1 OZR224      0.0000 
     24 O24       -26.1780   30.7300    4.8010 O.2       1 OZR224      0.0000 
     25 H         -20.8564   29.6173   12.9325 H         1 OZR224      0.0000 
     26 H         -21.5977   30.5148   14.9790 H         1 OZR224      0.0000 
     27 H         -22.1810   32.8741   13.9549 H         1 OZR224      0.0000 
     28 H         -22.7646   31.3696   13.2228 H         1 OZR224      0.0000 
     29 H         -19.0386   31.9425   12.6498 H         1 OZR224      0.0000 
     30 H         -18.6237   30.3649   10.9129 H         1 OZR224      0.0000 
     31 H         -21.5075   30.8656   10.1657 H         1 OZR224      0.0000 
     32 H         -19.3435   29.1728    8.9524 H         1 OZR224      0.0000 
     33 H         -19.8869   30.5980    8.0505 H         1 OZR224      0.0000 
     34 H         -21.4730   28.1327    8.6258 H         1 OZR224      0.0000 
     35 H         -26.1108   26.8332    5.1771 H         1 OZR224      0.0000 
     36 H         -24.2320   30.5199    5.8926 H         1 OZR224      0.0000 
     37 H         -18.9093   29.7878   14.8050 H         1 OZR224      0.0000 
     38 H         -20.0160   31.5824   16.0249 H         1 OZR224      0.0000 
     39 H         -25.1263   25.2242    7.2344 H         1 OZR224      0.0000 
@<TRIPOS>BOND
     1    2    1 1    
     2    5    1 1    
     3    7    1 1    
     4   25    1 1    
     5    3    2 1    
     6    8    2 1    
     7   26    2 1    
     8    4    3 1    
     9   27    3 1    
    10   28    3 1    
    11    5    4 1    
    12    6    5 1    
    13   29    5 1    
    14    9    6 2    
    15   30    6 1    
    16   37    7 1    
    17   38    8 1    
    18   10    9 1    
    19   31    9 1    
    20   11   10 1    
    21   32   10 1    
    22   33   10 1    
    23   12   11 am   
    24   34   11 1    
    25   13   12 1    
    26   22   12 2    
    27   14   13 ar   
    28   18   13 ar   
    29   15   14 ar   
    30   20   14 ar   
    31   16   15 ar   
    32   21   15 1    
    33   17   16 ar   
    34   35   16 1    
    35   18   17 ar   
    36   19   17 1    
    37   36   18 1    
    38   23   19 2    
    39   24   19 2    
    40   39   21 1    
@<TRIPOS>SUBSTRUCTURE
     1 OZR224      1 GROUP   
@<TRIPOS>SET

