#    Name: 2wyv_NAD_2_INTS_M
#    Modification time : Tue Mar 25 04:47:59 2014

@<TRIPOS>MOLECULE
2wyv_NAD_2_INTS_M
   93     0     9     0     0
SMALL
NO_CHARGES


@<TRIPOS>ATOM
      1 N          23.4615  -24.7045   52.3495 N.am      2 SEC2        0.0000 
      2 N          22.4960  -25.6420   53.1900 N.am      8 SEL2        0.0000 
      3 N          24.4270  -23.7670   51.5090 N.am      5 SEP2        0.0000 
      4 N          23.5005  -26.9830   56.3505 N.am      2 SEC2        0.0000 
      5 N          23.2610  -26.0540   55.4830 N.am      8 SEL2        0.0000 
      6 N          23.7400  -27.9120   57.2180 N.am      5 SEP2        0.0000 
      7 CA         20.9725  -23.9385   53.0250 C.3       3 GLC5        0.0000 
      8 CA         19.7350  -25.1840   54.1960 C.3       9 GLL5        0.0000 
      9 CA         22.2100  -22.6930   51.8540 C.3       6 GLP5        0.0000 
     10 CA         17.8960  -27.4480   55.7985 C.3       3 GLC5        0.0000 
     11 CA         18.7960  -26.3890   54.2340 C.3       9 GLL5        0.0000 
     12 CA         16.9960  -28.5070   57.3630 C.3       6 GLP5        0.0000 
     13 CA         16.9430  -25.3800   54.8135 C.3       3 GLC5        0.0000 
     14 CA         15.0900  -24.3710   55.3930 C.3       6 GLP5        0.0000 
     15 CA         21.1840  -28.8145   53.9085 C.3       3 GLC5        0.0000 
     16 CA         19.4290  -27.6670   53.6580 C.3       9 GLL5        0.0000 
     17 CA         22.9390  -29.9620   54.1590 C.3       6 GLP5        0.0000 
     18 N          20.6295  -29.2450   54.0860 N.am      2 SEC2        0.0000 
     19 N          19.5750  -28.6350   54.6770 N.am      8 SEL2        0.0000 
     20 N          21.6840  -29.8550   53.4950 N.am      5 SEP2        0.0000 
     21 O          17.6495  -29.7325   51.1530 O.2       1 ALC1        0.0000 
     22 O          18.4170  -29.5190   52.3590 O.2       7 ALL1        0.0000 
     23 O          16.8820  -29.9460   49.9470 O.2       4 ALP1        0.0000 
     24 CA         17.0910  -27.9855   55.1965 C.3       3 GLC5        0.0000 
     25 CA         17.1860  -27.4640   53.0300 C.3       9 GLL5        0.0000 
     26 CA         15.6335  -27.0780   54.3865 C.3       3 GLC5        0.0000 
     27 CA         14.0810  -26.6920   55.7430 C.3       6 GLP5        0.0000 
     28 CA         11.5080  -27.8320   51.3595 C.3       3 GLC5        0.0000 
     29 CA         13.0510  -28.5140   50.5250 C.3       9 GLL5        0.0000 
     30 CA          9.9650  -27.1500   52.1940 C.3       6 GLP5        0.0000 
     31 O          11.3815  -29.4525   49.1510 O.2       1 ALC1        0.0000 
     32 O          12.3730  -28.4110   49.3620 O.2       7 ALL1        0.0000 
     33 O          10.3900  -30.4940   48.9400 O.2       4 ALP1        0.0000 
     34 N          11.0940  -29.7620   51.7070 N.am      2 SEC2        0.0000 
     35 N          12.5560  -29.3690   51.4720 N.am      8 SEL2        0.0000 
     36 N           9.6320  -30.1550   51.9420 N.am      5 SEP2        0.0000 
     37 CA         14.2680  -30.6450   51.4385 C.3       3 GLC5        0.0000 
     38 CA         13.2520  -29.6210   52.6380 C.3       9 GLL5        0.0000 
     39 CA         15.2840  -31.6690   50.2390 C.3       6 GLP5        0.0000 
     40 CA         11.9325  -30.9600   51.9670 C.3       3 GLC5        0.0000 
     41 CA         10.6130  -32.2990   51.2960 C.3       6 GLP5        0.0000 
     42 CA         11.5220  -29.0065   53.5295 C.3       3 GLC5        0.0000 
     43 CA          9.7920  -28.3920   54.4210 C.3       6 GLP5        0.0000 
     44 CA         13.0130  -28.5580   54.4140 C.3       3 GLC5        0.0000 
     45 CA         12.7740  -27.4950   56.1900 C.3       6 GLP5        0.0000 
     46 N          24.1515  -22.7425   54.6030 N.am      2 SEC2        0.0000 
     47 N          22.6710  -23.6440   54.7280 N.am      8 SEL2        0.0000 
     48 N          25.6320  -21.8410   54.4780 N.am      5 SEP2        0.0000 
     49 N          24.4760  -21.6880   55.0995 N.am      2 SEC2        0.0000 
     50 N          23.3200  -21.5350   55.7210 N.am      8 SEL2        0.0000 
     51 N          23.1420  -23.8865   58.5775 N.am      2 SEC2        0.0000 
     52 N          22.7160  -23.5020   57.2750 N.am      8 SEL2        0.0000 
     53 N          23.5680  -24.2710   59.8800 N.am      5 SEP2        0.0000 
     54 CA         18.7460  -23.5650   58.3405 C.3       3 GLC5        0.0000 
     55 CA         19.9730  -22.5480   56.9560 C.3       9 GLL5        0.0000 
     56 CA         17.5190  -24.5820   59.7250 C.3       6 GLP5        0.0000 
     57 CA         17.7215  -22.6185   58.0815 C.3       3 GLC5        0.0000 
     58 CA         19.0940  -21.3070   57.1480 C.3       9 GLL5        0.0000 
     59 CA         16.3490  -23.9300   59.0150 C.3       6 GLP5        0.0000 
     60 CA         18.3380  -20.1870   58.5790 C.3       3 GLC5        0.0000 
     61 CA         17.5820  -19.0670   60.0100 C.3       6 GLP5        0.0000 
     62 N          16.4625  -19.1115   55.6870 N.am      2 SEC2        0.0000 
     63 N          17.1140  -20.4170   56.1000 N.am      8 SEL2        0.0000 
     64 N          15.8110  -17.8060   55.2740 N.am      5 SEP2        0.0000 
     65 N          17.2490  -18.2630   54.9300 N.am      2 SEC2        0.0000 
     66 N          18.6870  -18.7200   54.5860 N.am      8 SEL2        0.0000 
     67 CA         21.2655  -19.3775   58.2945 C.3       3 GLC5        0.0000 
     68 CA         19.6290  -19.0760   56.8010 C.3       9 GLL5        0.0000 
     69 CA         22.9020  -19.6790   59.7880 C.3       6 GLP5        0.0000 
     70 CA         18.6055  -19.0715   58.4055 C.3       3 GLC5        0.0000 
     71 N          26.5600  -16.9255   56.4985 N.am      2 SEC2        0.0000 
     72 N          25.3750  -17.0340   55.7650 N.am      8 SEL2        0.0000 
     73 N          27.7450  -16.8170   57.2320 N.am      5 SEP2        0.0000 
     74 O          26.3345  -19.2290   55.9245 O.2       1 ALC1        0.0000 
     75 O          24.7700  -19.2680   56.1240 O.2       7 ALL1        0.0000 
     76 O          27.8990  -19.1900   55.7250 O.2       4 ALP1        0.0000 
     77 CA         14.0008  -26.6352   52.5487 C.3       3 GLC5        0.0000 
     78 CA         14.3020  -27.9000   50.7870 C.3       9 GLL5        0.0000 
     79 CA         13.3550  -25.2380   53.7180 C.3       6 GLP5        0.0000 
     80 CA         13.0732  -26.3915   50.3920 C.3       3 GLC5        0.0000 
     81 CA         12.4700  -24.5760   50.1280 C.3       6 GLP5        0.0000 
     82 CA         14.8089  -29.9275   50.7765 C.3       3 GLC5        0.0000 
     83 CA         17.6462  -20.5330   54.1655 C.3       3 GLC5        0.0000 
     84 CA         18.4550  -20.8280   55.8470 C.3       9 GLL5        0.0000 
     85 CA         16.4010  -20.8250   52.6950 C.3       6 GLP5        0.0000 
     86 CA         22.7700  -18.3956   58.2779 C.3       3 GLC5        0.0000 
     87 CA         22.0000  -18.4560   56.5400 C.3       9 GLL5        0.0000 
     88 CA         20.2115  -14.6773   56.4590 C.3       3 GLC5        0.0000 
     89 CA         21.4480  -15.8520   57.2900 C.3       9 GLL5        0.0000 
     90 CA         19.4880  -13.0320   55.6550 C.3       6 GLP5        0.0000 
     91 CA         21.8899  -16.0938   59.0846 C.3       3 GLC5        0.0000 
     92 CA         20.4220  -16.7930   57.2360 C.3       9 GLL5        0.0000 
     93 CA         22.5180  -15.7720   60.9860 C.3       6 GLP5        0.0000 
@<TRIPOS>BOND
@<TRIPOS>SUBSTRUCTURE
     1 ALC1       21 GROUP        1 X    ALC  0     ROOT ALC X 1
     2 SEC2        1 GROUP        1 X    SEC  0     **** SEC X 2
     3 GLC5        7 GROUP        1 X    GLC  0     **** GLC X 6
     4 ALP1       23 GROUP        1 Y    ALP  0     ROOT ALP Y 8
     5 SEP2        3 GROUP        1 Y    SEP  0     **** SEP Y 9
     6 GLP5        9 GROUP        1 Y    GLP  0     **** GLP Y 13
     7 ALL1       22 GROUP        1 Z    ALL  0     ROOT ALL Z 15
     8 SEL2        2 GROUP        1 Z    SEL  0     **** SEL Z 16
     9 GLL5        8 GROUP        1 Z    GLL  0     **** GLL Z 20
@<TRIPOS>SET

