#    Name: 2wyv_NAD_2_ligand
#    Modification time : Tue Mar 25 04:47:59 2014

@<TRIPOS>MOLECULE
2wyv_NAD_2_ligand
   70    74     1     0     0
SMALL
NO_CHARGES


@<TRIPOS>ATOM
      1 PA         22.3740  -25.2480   54.6110 P.3       1 NAD1258     0.0000 
      2 O1A        22.4960  -25.6420   53.1900 O.co2     1 NAD1258     0.0000 
      3 O2A        23.2610  -26.0540   55.4830 O.co2     1 NAD1258     0.0000 
      4 O5B        20.8410  -25.4580   55.0500 O.3       1 NAD1258     0.0000 
      5 C5B        19.7350  -25.1840   54.1960 C.3       1 NAD1258     0.0000 
      6 C4B        18.7960  -26.3890   54.2340 C.3       1 NAD1258     0.0000 
      7 O4B        17.6220  -26.1840   53.4790 O.3       1 NAD1258     0.0000 
      8 C3B        19.4290  -27.6670   53.6580 C.3       1 NAD1258     0.0000 
      9 O3B        19.5750  -28.6350   54.6770 O.3       1 NAD1258     0.0000 
     10 C2B        18.4830  -28.1120   52.5530 C.3       1 NAD1258     0.0000 
     11 O2B        18.4170  -29.5190   52.3590 O.3       1 NAD1258     0.0000 
     12 C1B        17.1860  -27.4640   53.0300 C.3       1 NAD1258     0.0000 
     13 N9A        16.1570  -27.4440   51.9630 N.pl3     1 NAD1258     0.0000 
     14 C8A        16.1930  -26.7430   50.7800 C.2       1 NAD1258     0.0000 
     15 N7A        15.0570  -27.0080   50.1040 N.2       1 NAD1258     0.0000 
     16 C5A        14.3020  -27.9000   50.7870 C.ar      1 NAD1258     0.0000 
     17 C6A        13.0510  -28.5140   50.5250 C.ar      1 NAD1258     0.0000 
     18 N6A        12.3730  -28.4110   49.3620 N.pl3     1 NAD1258     0.0000 
     19 N1A        12.5560  -29.3690   51.4720 N.ar      1 NAD1258     0.0000 
     20 C2A        13.2520  -29.6210   52.6380 C.ar      1 NAD1258     0.0000 
     21 N3A        14.4720  -29.0080   52.8980 N.ar      1 NAD1258     0.0000 
     22 C4A        14.9910  -28.1650   51.9720 C.ar      1 NAD1258     0.0000 
     23 O3         22.6710  -23.6440   54.7280 O.3       1 NAD1258     0.0000 
     24 PN         22.4930  -22.7100   56.0400 P.3       1 NAD1258     0.0000 
     25 O1N        23.3200  -21.5350   55.7210 O.co2     1 NAD1258     0.0000 
     26 O2N        22.7160  -23.5020   57.2750 O.co2     1 NAD1258     0.0000 
     27 O5D        20.9550  -22.2240   55.9820 O.3       1 NAD1258     0.0000 
     28 C5D        19.9730  -22.5480   56.9560 C.3       1 NAD1258     0.0000 
     29 C4D        19.0940  -21.3070   57.1480 C.3       1 NAD1258     0.0000 
     30 O4D        19.9030  -20.2130   57.6070 O.3       1 NAD1258     0.0000 
     31 C3D        18.4550  -20.8280   55.8470 C.3       1 NAD1258     0.0000 
     32 O3D        17.1140  -20.4170   56.1000 O.3       1 NAD1258     0.0000 
     33 C2D        19.3280  -19.6540   55.4250 C.3       1 NAD1258     0.0000 
     34 O2D        18.6870  -18.7200   54.5860 O.3       1 NAD1258     0.0000 
     35 C1D        19.6290  -19.0760   56.8010 C.3       1 NAD1258     0.0000 
     36 N1N        20.7100  -18.0780   56.8570 N.pl3     1 NAD1258     0.0000 
     37 C2N        22.0000  -18.4560   56.5400 C.ar      1 NAD1258     0.0000 
     38 C3N        23.0420  -17.5450   56.5890 C.ar      1 NAD1258     0.0000 
     39 C7N        24.4350  -17.9820   56.1630 C.2       1 NAD1258     0.0000 
     40 O7N        25.3750  -17.0340   55.7650 O.2       1 NAD1258     0.0000 
     41 N7N        24.7700  -19.2680   56.1240 N.am      1 NAD1258     0.0000 
     42 C4N        22.7550  -16.2240   56.9710 C.ar      1 NAD1258     0.0000 
     43 C5N        21.4480  -15.8520   57.2900 C.ar      1 NAD1258     0.0000 
     44 C6N        20.4220  -16.7930   57.2360 C.ar      1 NAD1258     0.0000 
     45 H          20.0438  -25.0338   53.1616 H         1 NAD1258     0.0000 
     46 H          19.1711  -24.3108   54.5238 H         1 NAD1258     0.0000 
     47 H          18.5452  -26.6063   55.2726 H         1 NAD1258     0.0000 
     48 H          20.3597  -27.3804   53.2077 H         1 NAD1258     0.0000 
     49 H          18.7824  -27.5633   51.6608 H         1 NAD1258     0.0000 
     50 H          16.8483  -28.0583   53.8764 H         1 NAD1258     0.0000 
     51 H          16.9083  -26.1703   50.4998 H         1 NAD1258     0.0000 
     52 H          12.8055  -27.8607   48.6478 H         1 NAD1258     0.0000 
     53 H          11.4986  -28.8942   49.3181 H         1 NAD1258     0.0000 
     54 H          12.8589  -30.2816   53.3373 H         1 NAD1258     0.0000 
     55 H          20.4126  -22.7945   57.9188 H         1 NAD1258     0.0000 
     56 H          19.3293  -23.3636   56.6373 H         1 NAD1258     0.0000 
     57 H          18.3182  -21.5237   57.8511 H         1 NAD1258     0.0000 
     58 H          18.5427  -21.5965   55.1310 H         1 NAD1258     0.0000 
     59 H          20.2415  -20.0528   55.0499 H         1 NAD1258     0.0000 
     60 H          18.6849  -18.6223   57.1554 H         1 NAD1258     0.0000 
     61 H          22.1931  -19.4365   56.2608 H         1 NAD1258     0.0000 
     62 H          25.7056  -19.4704   55.8346 H         1 NAD1258     0.0000 
     63 H          24.0562  -19.9168   56.3876 H         1 NAD1258     0.0000 
     64 H          23.5126  -15.5321   57.0145 H         1 NAD1258     0.0000 
     65 H          21.2437  -14.8834   57.5646 H         1 NAD1258     0.0000 
     66 H          19.4641  -16.5164   57.4795 H         1 NAD1258     0.0000 
     67 H          18.9952  -29.3988   54.3933 H         1 NAD1258     0.0000 
     68 H          17.5990  -29.6654   51.8029 H         1 NAD1258     0.0000 
     69 H          17.1518  -19.9355   56.9757 H         1 NAD1258     0.0000 
     70 H          19.4293  -18.2408   54.1177 H         1 NAD1258     0.0000 
@<TRIPOS>BOND
     1    2    1 ar   
     2    3    1 ar   
     3    4    1 1    
     4   23    1 1    
     5    5    4 1    
     6    6    5 1    
     7   45    5 1    
     8   46    5 1    
     9    7    6 1    
    10    8    6 1    
    11   47    6 1    
    12   12    7 1    
    13    9    8 1    
    14   10    8 1    
    15   48    8 1    
    16   67    9 1    
    17   11   10 1    
    18   12   10 1    
    19   49   10 1    
    20   68   11 1    
    21   13   12 1    
    22   50   12 1    
    23   14   13 1    
    24   22   13 1    
    25   15   14 2    
    26   51   14 1    
    27   16   15 1    
    28   17   16 ar   
    29   22   16 ar   
    30   18   17 1    
    31   19   17 ar   
    32   52   18 1    
    33   53   18 1    
    34   20   19 ar   
    35   21   20 ar   
    36   54   20 1    
    37   22   21 ar   
    38   24   23 1    
    39   25   24 ar   
    40   26   24 ar   
    41   27   24 1    
    42   28   27 1    
    43   29   28 1    
    44   55   28 1    
    45   56   28 1    
    46   30   29 1    
    47   31   29 1    
    48   57   29 1    
    49   35   30 1    
    50   32   31 1    
    51   33   31 1    
    52   58   31 1    
    53   69   32 1    
    54   34   33 1    
    55   35   33 1    
    56   59   33 1    
    57   70   34 1    
    58   36   35 1    
    59   60   35 1    
    60   37   36 ar   
    61   44   36 ar   
    62   38   37 ar   
    63   61   37 1    
    64   39   38 1    
    65   42   38 ar   
    66   40   39 2    
    67   41   39 am   
    68   62   41 1    
    69   63   41 1    
    70   43   42 ar   
    71   64   42 1    
    72   44   43 ar   
    73   65   43 1    
    74   66   44 1    
@<TRIPOS>SUBSTRUCTURE
     1 NAD1258     1 GROUP   
@<TRIPOS>SET

