#    Name: 3vev_0H4_1_INTS_M
#    Modification time : Tue Mar 25 00:42:50 2014

@<TRIPOS>MOLECULE
3vev_0H4_1_INTS_M
   70     0     6     0     0
SMALL
NO_CHARGES


@<TRIPOS>ATOM
      1 O          -9.7715    1.8340   22.4990 O.2       1 ALC1        0.0000 
      2 O          -9.2150    1.1240   21.3840 O.2       5 ALL1        0.0000 
      3 O         -10.3280    2.5440   23.6140 O.2       3 ALP1        0.0000 
      4 CA         -9.5405   -5.4525   21.3495 C.3       2 GLC5        0.0000 
      5 CA         -8.3220   -4.3640   22.3520 C.3       6 GLL5        0.0000 
      6 CA        -10.7590   -6.5410   20.3470 C.3       4 GLP5        0.0000 
      7 CA         -6.7320   -5.2905   21.2520 C.3       2 GLC5        0.0000 
      8 CA         -5.1420   -6.2170   20.1520 C.3       4 GLP5        0.0000 
      9 CA        -10.4410    0.2350   23.9775 C.3       2 GLC5        0.0000 
     10 CA         -9.1700   -0.7380   22.9070 C.3       6 GLL5        0.0000 
     11 CA        -11.7120    1.2080   25.0480 C.3       4 GLP5        0.0000 
     12 CA         -9.2380   -3.0570   19.2685 C.3       2 GLC5        0.0000 
     13 CA         -8.4190   -2.3590   20.8430 C.3       6 GLL5        0.0000 
     14 CA        -10.0570   -3.7550   17.6940 C.3       4 GLP5        0.0000 
     15 CA         -7.6570    2.7835   21.4200 C.3       2 GLC5        0.0000 
     16 CA         -9.3320    3.3260   20.2880 C.3       6 GLL5        0.0000 
     17 CA         -5.9820    2.2410   22.5520 C.3       4 GLP5        0.0000 
     18 CA         -7.7690    4.0440   14.9450 C.3       2 GLC5        0.0000 
     19 CA         -7.9540    4.5440   17.0370 C.3       6 GLL5        0.0000 
     20 CA         -7.5840    3.5440   12.8530 C.3       4 GLP5        0.0000 
     21 CA        -11.9285    1.8835   20.3065 C.3       2 GLC5        0.0000 
     22 CA        -10.8390    3.3920   19.9900 C.3       6 GLL5        0.0000 
     23 CA        -13.0180    0.3750   20.6230 C.3       4 GLP5        0.0000 
     24 CA        -11.8385    2.8365   18.2285 C.3       2 GLC5        0.0000 
     25 CA        -12.8380    2.2810   16.4670 C.3       4 GLP5        0.0000 
     26 CA        -10.6550    6.3760   18.6325 C.3       2 GLC5        0.0000 
     27 CA        -11.3500    4.8330   19.9500 C.3       6 GLL5        0.0000 
     28 CA         -9.9600    7.9190   17.3150 C.3       4 GLP5        0.0000 
     29 CA        -10.9310    5.1945   23.2700 C.3       2 GLC5        0.0000 
     30 CA        -11.2790    5.5320   21.3120 C.3       6 GLL5        0.0000 
     31 CA        -10.5830    4.8570   25.2280 C.3       4 GLP5        0.0000 
     32 CA        -12.5755    7.5930   19.2680 C.3       2 GLC5        0.0000 
     33 CA        -13.3570    6.1730   20.1600 C.3       6 GLL5        0.0000 
     34 CA        -11.7940    9.0130   18.3760 C.3       4 GLP5        0.0000 
     35 CA        -12.8350    3.5775   18.0120 C.3       2 GLC5        0.0000 
     36 CA        -12.8320    4.8740   19.5570 C.3       6 GLL5        0.0000 
     37 CA        -12.0700    6.5675   18.4335 C.3       2 GLC5        0.0000 
     38 CA        -11.3080    8.2610   17.3100 C.3       4 GLP5        0.0000 
     39 CA         -9.9440   -0.7505   24.6805 C.3       2 GLC5        0.0000 
     40 CA         -8.9990   -2.0910   23.1470 C.3       6 GLL5        0.0000 
     41 CA        -10.8890    0.5900   26.2140 C.3       4 GLP5        0.0000 
     42 CA         -5.8500    6.2700   13.7450 C.3       2 GLC5        0.0000 
     43 CA         -5.4180    5.5270   15.7070 C.3       6 GLL5        0.0000 
     44 CA         -6.2820    7.0130   11.7830 C.3       4 GLP5        0.0000 
     45 CA         -5.3095    4.1995   14.5540 C.3       2 GLC5        0.0000 
     46 CA         -5.2010    2.8720   13.4010 C.3       4 GLP5        0.0000 
     47 CA         -8.5300    7.3620   16.3745 C.3       2 GLC5        0.0000 
     48 CA         -7.1000    6.8050   15.4340 C.3       6 GLL5        0.0000 
     49 CA         -8.0460    7.6635   14.2410 C.3       2 GLC5        0.0000 
     50 CA         -8.9920    8.5220   13.0480 C.3       4 GLP5        0.0000 
     51 CA         -7.3420    5.1745   14.1435 C.3       2 GLC5        0.0000 
     52 CA         -9.5403    3.4365   16.2728 C.3       2 GLC5        0.0000 
     53 CA        -10.7700    2.6790   15.0440 C.3       4 GLP5        0.0000 
     54 CA        -11.4385    7.6765   20.4027 C.3       2 GLC5        0.0000 
     55 CA        -10.9640    9.3940   19.4290 C.3       4 GLP5        0.0000 
     56 CA         -7.5200    7.5810   17.4620 C.3       2 GLC5        0.0000 
     57 CA         -6.2880    6.2970   16.3770 C.3       6 GLL5        0.0000 
     58 CA         -9.1100    8.3400   18.3320 C.3       4 GLP5        0.0000 
     59 CA         -6.7514   -2.4000   21.5819 C.3       2 GLC5        0.0000 
     60 CA         -5.0640   -1.7980   21.6260 C.3       4 GLP5        0.0000 
     61 CA        -14.5672    4.5512   19.3308 C.3       2 GLC5        0.0000 
     62 CA        -16.0400    3.5790   18.8030 C.3       4 GLP5        0.0000 
     63 CA        -14.2975    4.8989   21.3629 C.3       2 GLC5        0.0000 
     64 CA        -15.7030    4.2210   22.5470 C.3       4 GLP5        0.0000 
     65 CA        -10.9733   -1.3323   22.5902 C.3       2 GLC5        0.0000 
     66 CA         -8.9860   -0.2540   21.6010 C.3       6 GLL5        0.0000 
     67 CA        -12.9080   -1.3710   22.4800 C.3       4 GLP5        0.0000 
     68 CA         -7.5843   -0.1163   23.0703 C.3       2 GLC5        0.0000 
     69 CA         -6.1300    1.0610   23.4400 C.3       4 GLP5        0.0000 
     70 CA         -7.0512   -1.5457   22.1632 C.3       2 GLC5        0.0000 
@<TRIPOS>BOND
@<TRIPOS>SUBSTRUCTURE
     1 ALC1        1 GROUP        1 X    ALC  0     ROOT ALC X 1
     2 GLC5        4 GROUP        1 X    GLC  0     **** GLC X 6
     3 ALP1        3 GROUP        1 Y    ALP  0     ROOT ALP Y 8
     4 GLP5        6 GROUP        1 Y    GLP  0     **** GLP Y 13
     5 ALL1        2 GROUP        1 Z    ALL  0     ROOT ALL Z 15
     6 GLL5        5 GROUP        1 Z    GLL  0     **** GLL Z 20
@<TRIPOS>SET

