#    Name: 3vev_0H4_1_ligand
#    Modification time : Tue Mar 25 00:42:50 2014

@<TRIPOS>MOLECULE
3vev_0H4_1_ligand
   50    52     1     0     0
SMALL
NO_CHARGES


@<TRIPOS>ATOM
      1 N3         -8.6120   -1.0550   20.5550 N.ar      1 0H4502      0.0000 
      2 C4         -8.6670    3.8440   17.9660 C.2       1 0H4502      0.0000 
      3 N2         -9.2150    1.1240   21.3840 N.am      1 0H4502      0.0000 
      4 C7         -6.8240    5.7800   18.7800 C.2       1 0H4502      0.0000 
      5 C6         -7.0330    5.5340   17.4710 C.2       1 0H4502      0.0000 
      6 C9         -7.5840    5.0610   19.7950 C.2       1 0H4502      0.0000 
      7 C13       -12.5470    6.3860   21.4410 C.3       1 0H4502      0.0000 
      8 C20        -8.3220   -4.3640   22.3520 C.3       1 0H4502      0.0000 
      9 C8         -6.2880    6.2970   16.3770 C.3       1 0H4502      0.0000 
     10 C18        -8.5950   -2.9260   22.1130 C.ar      1 0H4502      0.0000 
     11 C16        -9.1700   -0.7380   22.9070 C.ar      1 0H4502      0.0000 
     12 C19        -8.4190   -2.3590   20.8430 C.ar      1 0H4502      0.0000 
     13 N1         -8.5330    4.1070   19.3220 N.am      1 0H4502      0.0000 
     14 C1         -9.3320    3.3260   20.2880 C.3       1 0H4502      0.0000 
     15 C2         -8.8800    1.8470   20.2340 C.2       1 0H4502      0.0000 
     16 O1         -8.2960    1.3770   19.2780 O.2       1 0H4502      0.0000 
     17 C3         -8.9860   -0.2540   21.6010 C.ar      1 0H4502      0.0000 
     18 C5         -7.9540    4.5440   17.0370 C.2       1 0H4502      0.0000 
     19 O2         -7.4700    5.2490   21.0010 O.2       1 0H4502      0.0000 
     20 C10       -10.8390    3.3920   19.9900 C.3       1 0H4502      0.0000 
     21 C11       -11.3500    4.8330   19.9500 C.3       1 0H4502      0.0000 
     22 C12       -11.2790    5.5320   21.3120 C.3       1 0H4502      0.0000 
     23 C14       -13.3570    6.1730   20.1600 C.3       1 0H4502      0.0000 
     24 C15       -12.8320    4.8740   19.5570 C.3       1 0H4502      0.0000 
     25 C17        -8.9990   -2.0910   23.1470 C.ar      1 0H4502      0.0000 
     26 F1         -5.4180    5.5270   15.7070 F         1 0H4502      0.0000 
     27 F2         -7.1000    6.8050   15.4340 F         1 0H4502      0.0000 
     28 F3         -5.5720    7.3470   16.8070 F         1 0H4502      0.0000 
     29 H          -9.3261    3.0971   17.6625 H         1 0H4502      0.0000 
     30 H          -9.6893    1.6594   22.1770 H         1 0H4502      0.0000 
     31 H          -6.1369    6.4680   19.1130 H         1 0H4502      0.0000 
     32 H         -12.2753    7.4185   21.5278 H         1 0H4502      0.0000 
     33 H         -13.1162    6.0555   22.2861 H         1 0H4502      0.0000 
     34 H          -9.4244   -0.0980   23.6572 H         1 0H4502      0.0000 
     35 H          -8.1117   -3.0202   20.0667 H         1 0H4502      0.0000 
     36 H          -9.1641    3.6777   21.2921 H         1 0H4502      0.0000 
     37 H          -8.0632    4.3766   16.0340 H         1 0H4502      0.0000 
     38 H         -11.3778    2.8399   20.7630 H         1 0H4502      0.0000 
     39 H         -11.0312    2.9146   19.0268 H         1 0H4502      0.0000 
     40 H         -10.8001    5.4075   19.2381 H         1 0H4502      0.0000 
     41 H         -11.2609    4.7980   22.0919 H         1 0H4502      0.0000 
     42 H         -10.4158    6.1653   21.3461 H         1 0H4502      0.0000 
     43 H         -13.1808    6.9815   19.4865 H         1 0H4502      0.0000 
     44 H         -14.3903    6.0670   20.4034 H         1 0H4502      0.0000 
     45 H         -13.3380    4.0440   19.9883 H         1 0H4502      0.0000 
     46 H         -12.9188    4.9054   18.4976 H         1 0H4502      0.0000 
     47 H          -9.1694   -2.4768   24.0833 H         1 0H4502      0.0000 
     48 H          -7.3719   -4.6005   22.1486 H         1 0H4502      0.0000 
     49 H          -8.4907   -4.6209   23.3036 H         1 0H4502      0.0000 
     50 H          -8.8983   -4.9510   21.7833 H         1 0H4502      0.0000 
@<TRIPOS>BOND
     1   12    1 ar   
     2   17    1 ar   
     3   13    2 1    
     4   18    2 2    
     5   29    2 1    
     6   15    3 am   
     7   17    3 1    
     8   30    3 1    
     9    5    4 2    
    10    6    4 1    
    11   31    4 1    
    12    9    5 1    
    13   18    5 1    
    14   13    6 am   
    15   19    6 2    
    16   22    7 1    
    17   23    7 1    
    18   32    7 1    
    19   33    7 1    
    20   10    8 1    
    21   48    8 1    
    22   49    8 1    
    23   50    8 1    
    24   26    9 1    
    25   27    9 1    
    26   28    9 1    
    27   12   10 ar   
    28   25   10 ar   
    29   17   11 ar   
    30   25   11 ar   
    31   34   11 1    
    32   35   12 1    
    33   14   13 1    
    34   15   14 1    
    35   20   14 1    
    36   36   14 1    
    37   16   15 2    
    38   37   18 1    
    39   21   20 1    
    40   38   20 1    
    41   39   20 1    
    42   22   21 1    
    43   24   21 1    
    44   40   21 1    
    45   41   22 1    
    46   42   22 1    
    47   24   23 1    
    48   43   23 1    
    49   44   23 1    
    50   45   24 1    
    51   46   24 1    
    52   47   25 1    
@<TRIPOS>SUBSTRUCTURE
     1 0H4502      1 GROUP   
@<TRIPOS>SET

