#    Name: 1lhu_EST_1_INTS_M
#    Modification time : Tue Mar 25 11:07:59 2014

@<TRIPOS>MOLECULE
1lhu_EST_1_INTS_M
   72     0     9     0     0
SMALL
NO_CHARGES


@<TRIPOS>ATOM
      1 CA         21.6565    7.5435   31.7525 C.3       3 GLC5        0.0000 
      2 CA         20.8340    8.7500   33.1660 C.3       9 GLL5        0.0000 
      3 CA         22.4790    6.3370   30.3390 C.3       6 GLP5        0.0000 
      4 CA         22.0590    7.1590   33.3820 C.3       3 GLC5        0.0000 
      5 CA         23.2840    5.5680   33.5980 C.3       6 GLP5        0.0000 
      6 CA         19.9825    7.1215   35.1325 C.3       3 GLC5        0.0000 
      7 CA         19.5420    8.2930   33.2950 C.3       9 GLL5        0.0000 
      8 CA         20.4230    5.9500   36.9700 C.3       6 GLP5        0.0000 
      9 CA         18.8115    6.6705   32.4785 C.3       3 GLC5        0.0000 
     10 CA         18.0810    5.0480   31.6620 C.3       6 GLP5        0.0000 
     11 CA         17.2690    9.1945   31.9335 C.3       3 GLC5        0.0000 
     12 CA         18.4990    9.1910   33.5750 C.3       9 GLL5        0.0000 
     13 CA         16.0390    9.1980   30.2920 C.3       6 GLP5        0.0000 
     14 N          16.7635    7.4610   34.3015 N.am      2 SEC2        0.0000 
     15 N          17.2330    8.6960   33.6900 N.am      8 SEL2        0.0000 
     16 N          16.2940    6.2260   34.9130 N.am      5 SEP2        0.0000 
     17 N          16.4235    8.5230   32.5670 N.am      2 SEC2        0.0000 
     18 N          15.6140    8.3500   31.4440 N.am      5 SEP2        0.0000 
     19 O          16.3740    9.4750   33.9745 O.2       1 ALC1        0.0000 
     20 O          17.2330    8.6960   33.6900 O.2       7 ALL1        0.0000 
     21 O          15.5150   10.2540   34.2590 O.2       4 ALP1        0.0000 
     22 CA         18.9355   14.1010   34.3060 C.3       3 GLC5        0.0000 
     23 CA         20.3720   12.5580   33.7540 C.3       9 GLL5        0.0000 
     24 CA         17.4990   15.6440   34.8580 C.3       6 GLP5        0.0000 
     25 CA         20.0240   12.9755   31.7620 C.3       3 GLC5        0.0000 
     26 CA         19.6760   13.3930   29.7700 C.3       6 GLP5        0.0000 
     27 CA         22.6330   10.0300   35.0135 C.3       3 GLC5        0.0000 
     28 CA         22.6420   10.6140   33.1440 C.3       9 GLL5        0.0000 
     29 CA         22.6240    9.4460   36.8830 C.3       6 GLP5        0.0000 
     30 CA         23.3800    7.6540   32.8830 C.3       3 GLC5        0.0000 
     31 CA         23.4760    9.7400   32.1680 C.3       9 GLL5        0.0000 
     32 CA         26.4110    9.8325   33.0915 C.3       3 GLC5        0.0000 
     33 CA         24.9130   10.2600   32.0010 C.3       9 GLL5        0.0000 
     34 CA         27.9090    9.4050   34.1820 C.3       6 GLP5        0.0000 
     35 CA         22.7315   14.3440   31.1875 C.3       3 GLC5        0.0000 
     36 CA         24.4940   14.0470   32.2090 C.3       9 GLL5        0.0000 
     37 CA         20.9690   14.6410   30.1660 C.3       6 GLP5        0.0000 
     38 CA         27.4075   15.5480   31.9680 C.3       3 GLC5        0.0000 
     39 CA         25.9340   13.9470   31.6090 C.3       9 GLL5        0.0000 
     40 CA         28.8810   17.1490   32.3270 C.3       6 GLP5        0.0000 
     41 CA         26.7735   12.9185   33.6310 C.3       3 GLC5        0.0000 
     42 CA         26.3000   12.4550   31.6550 C.3       9 GLL5        0.0000 
     43 CA         27.2470   13.3820   35.6070 C.3       6 GLP5        0.0000 
     44 CA         27.1045   10.9300   32.9185 C.3       3 GLC5        0.0000 
     45 N          27.8820   13.2890   30.2990 N.am      2 SEC2        0.0000 
     46 N          27.1830   12.1630   30.5530 N.am      8 SEL2        0.0000 
     47 N          28.5810   14.4150   30.0450 N.am      5 SEP2        0.0000 
     48 O          28.2165   11.1015   30.7545 O.2       1 ALC1        0.0000 
     49 O          27.1830   12.1630   30.5530 O.2       7 ALL1        0.0000 
     50 O          29.2500   10.0400   30.9560 O.2       4 ALP1        0.0000 
     51 CA         23.0840   11.3115   28.8485 C.3       3 GLC5        0.0000 
     52 CA         24.3800   11.8400   30.1030 C.3       9 GLL5        0.0000 
     53 CA         21.7880   10.7830   27.5940 C.3       6 GLP5        0.0000 
     54 CA         22.6745   13.2405   30.1345 C.3       3 GLC5        0.0000 
     55 CA         24.9085   12.7445   28.5125 C.3       3 GLC5        0.0000 
     56 CA         25.4370   13.6490   26.9220 C.3       6 GLP5        0.0000 
     57 CA         21.1248   14.4437   34.7448 C.3       3 GLC5        0.0000 
     58 CA         21.1320   16.1150   35.7640 C.3       6 GLP5        0.0000 
     59 CA         21.1017   12.1083   35.3912 C.3       3 GLC5        0.0000 
     60 CA         21.8630   12.9870   33.6970 C.3       9 GLL5        0.0000 
     61 CA         21.0860   11.4440   37.0570 C.3       6 GLP5        0.0000 
     62 CA         21.6223   13.6052   31.6845 C.3       3 GLC5        0.0000 
     63 CA         20.7041   10.9545   35.2664 C.3       3 GLC5        0.0000 
     64 CA         20.1150   11.0470   33.5880 C.3       9 GLL5        0.0000 
     65 CA         23.8188    8.6370   30.6317 C.3       3 GLC5        0.0000 
     66 CA         23.4430    7.2740   29.1790 C.3       6 GLP5        0.0000 
     67 CA         25.0410   15.6805   31.5070 C.3       3 GLC5        0.0000 
     68 CA         24.8680   17.3640   31.1050 C.3       6 GLP5        0.0000 
     69 CA         27.9590   13.6265   31.1455 C.3       3 GLC5        0.0000 
     70 CA         29.8010   14.0520   30.6590 C.3       6 GLP5        0.0000 
     71 CA         25.6122   13.8965   33.8699 C.3       3 GLC5        0.0000 
     72 CA         26.0900   14.1610   35.7330 C.3       6 GLP5        0.0000 
@<TRIPOS>BOND
@<TRIPOS>SUBSTRUCTURE
     1 ALC1       19 GROUP        1 X    ALC  0     ROOT ALC X 1
     2 SEC2       14 GROUP        1 X    SEC  0     **** SEC X 2
     3 GLC5        1 GROUP        1 X    GLC  0     **** GLC X 6
     4 ALP1       21 GROUP        1 Y    ALP  0     ROOT ALP Y 8
     5 SEP2       16 GROUP        1 Y    SEP  0     **** SEP Y 9
     6 GLP5        3 GROUP        1 Y    GLP  0     **** GLP Y 13
     7 ALL1       20 GROUP        1 Z    ALL  0     ROOT ALL Z 15
     8 SEL2       15 GROUP        1 Z    SEL  0     **** SEL Z 16
     9 GLL5        2 GROUP        1 Z    GLL  0     **** GLL Z 20
@<TRIPOS>SET

