#    Name: 1lhu_EST_1_ligand
#    Modification time : Tue Mar 25 11:07:59 2014

@<TRIPOS>MOLECULE
1lhu_EST_1_ligand
   44    47     1     0     0
SMALL
NO_CHARGES


@<TRIPOS>ATOM
      1 C1         20.8340    8.7500   33.1660 C.ar      1 EST301      0.0000 
      2 C2         19.5420    8.2930   33.2950 C.ar      1 EST301      0.0000 
      3 C3         18.4990    9.1910   33.5750 C.ar      1 EST301      0.0000 
      4 O3         17.2330    8.6960   33.6900 O.3       1 EST301      0.0000 
      5 C4         18.8040   10.5710   33.7190 C.ar      1 EST301      0.0000 
      6 C5         20.1150   11.0470   33.5880 C.ar      1 EST301      0.0000 
      7 C6         20.3720   12.5580   33.7540 C.3       1 EST301      0.0000 
      8 C7         21.8630   12.9870   33.6970 C.3       1 EST301      0.0000 
      9 C8         22.6880   12.1520   32.7090 C.3       1 EST301      0.0000 
     10 C9         22.6420   10.6140   33.1440 C.3       1 EST301      0.0000 
     11 C10        21.1850   10.1210   33.2980 C.ar      1 EST301      0.0000 
     12 C11        23.4760    9.7400   32.1680 C.3       1 EST301      0.0000 
     13 C12        24.9130   10.2600   32.0010 C.3       1 EST301      0.0000 
     14 C13        24.9570   11.7460   31.5500 C.3       1 EST301      0.0000 
     15 C14        24.1760   12.5870   32.6000 C.3       1 EST301      0.0000 
     16 C15        24.4940   14.0470   32.2090 C.3       1 EST301      0.0000 
     17 C16        25.9340   13.9470   31.6090 C.3       1 EST301      0.0000 
     18 C17        26.3000   12.4550   31.6550 C.3       1 EST301      0.0000 
     19 O17        27.1830   12.1630   30.5530 O.3       1 EST301      0.0000 
     20 C18        24.3800   11.8400   30.1030 C.3       1 EST301      0.0000 
     21 H          21.6051    8.0729   32.9617 H         1 EST301      0.0000 
     22 H          19.3266    7.2915   33.1881 H         1 EST301      0.0000 
     23 H          18.0373   11.2303   33.9245 H         1 EST301      0.0000 
     24 H          19.9511   12.8872   34.7202 H         1 EST301      0.0000 
     25 H          19.8222   13.1019   32.9659 H         1 EST301      0.0000 
     26 H          22.2922   12.8895   34.6991 H         1 EST301      0.0000 
     27 H          21.9114   14.0414   33.4076 H         1 EST301      0.0000 
     28 H          22.2391   12.2003   31.7279 H         1 EST301      0.0000 
     29 H          23.1235   10.5657   34.1306 H         1 EST301      0.0000 
     30 H          22.9802    9.7321   31.1957 H         1 EST301      0.0000 
     31 H          23.5045    8.7185   32.5514 H         1 EST301      0.0000 
     32 H          25.4316    9.6536   31.2557 H         1 EST301      0.0000 
     33 H          25.4425   10.1679   32.9514 H         1 EST301      0.0000 
     34 H          24.6826   12.3909   33.5588 H         1 EST301      0.0000 
     35 H          24.5190   14.6517   33.0691 H         1 EST301      0.0000 
     36 H          23.8295   14.3712   31.4611 H         1 EST301      0.0000 
     37 H          26.6017   14.5043   32.2196 H         1 EST301      0.0000 
     38 H          25.9125   14.2853   30.6019 H         1 EST301      0.0000 
     39 H          26.7267   12.2580   32.6023 H         1 EST301      0.0000 
     40 H          24.3886   12.7793   29.7600 H         1 EST301      0.0000 
     41 H          24.9061   11.2871   29.4568 H         1 EST301      0.0000 
     42 H          23.4334   11.5207   30.0592 H         1 EST301      0.0000 
     43 H          16.7796    9.2959   34.3491 H         1 EST301      0.0000 
     44 H          28.0431   11.8814   30.9783 H         1 EST301      0.0000 
@<TRIPOS>BOND
     1    2    1 ar   
     2   11    1 ar   
     3   21    1 1    
     4    3    2 ar   
     5   22    2 1    
     6    4    3 1    
     7    5    3 ar   
     8   43    4 1    
     9    6    5 ar   
    10   23    5 1    
    11    7    6 1    
    12   11    6 ar   
    13    8    7 1    
    14   24    7 1    
    15   25    7 1    
    16    9    8 1    
    17   26    8 1    
    18   27    8 1    
    19   10    9 1    
    20   15    9 1    
    21   28    9 1    
    22   11   10 1    
    23   12   10 1    
    24   29   10 1    
    25   13   12 1    
    26   30   12 1    
    27   31   12 1    
    28   14   13 1    
    29   32   13 1    
    30   33   13 1    
    31   15   14 1    
    32   18   14 1    
    33   20   14 1    
    34   16   15 1    
    35   34   15 1    
    36   17   16 1    
    37   35   16 1    
    38   36   16 1    
    39   18   17 1    
    40   37   17 1    
    41   38   17 1    
    42   19   18 1    
    43   39   18 1    
    44   44   19 1    
    45   40   20 1    
    46   41   20 1    
    47   42   20 1    
@<TRIPOS>SUBSTRUCTURE
     1 EST301      1 GROUP   
@<TRIPOS>SET

