#    Name: 2vce_U2F_1_INTS_M
#    Modification time : Tue Mar 25 01:25:50 2014

@<TRIPOS>MOLECULE
2vce_U2F_1_INTS_M
   78     0     9     0     0
SMALL
NO_CHARGES


@<TRIPOS>ATOM
      1 CA          9.3095   30.6130   25.8050 C.3       3 GLC5        0.0000 
      2 CA         10.8310   29.3120   25.0540 C.3       9 GLL5        0.0000 
      3 CA          7.7880   31.9140   26.5560 C.3       6 GLP5        0.0000 
      4 N           8.8435   32.0740   22.5705 N.am      2 SEC2        0.0000 
      5 N           8.6210   30.9920   23.3280 N.am      8 SEL2        0.0000 
      6 N           9.0660   33.1560   21.8130 N.am      5 SEP2        0.0000 
      7 N           8.9735   30.4240   20.7160 N.am      2 SEC2        0.0000 
      8 N           9.9350   29.5180   21.7370 N.am      8 SEL2        0.0000 
      9 N           8.0120   31.3300   19.6950 N.am      5 SEP2        0.0000 
     10 N           9.6635   28.2260   21.1995 N.am      2 SEC2        0.0000 
     11 N           9.3920   26.9340   20.6620 N.am      5 SEP2        0.0000 
     12 N           5.9445   26.8995   25.7330 N.am      2 SEC2        0.0000 
     13 N           6.8390   27.8000   24.9970 N.am      8 SEL2        0.0000 
     14 N           5.0500   25.9990   26.4690 N.am      5 SEP2        0.0000 
     15 N           6.3110   28.4970   26.1680 N.am      2 SEC2        0.0000 
     16 N           5.7830   29.1940   27.3390 N.am      5 SEP2        0.0000 
     17 N           4.6415   26.6490   23.4220 N.am      2 SEC2        0.0000 
     18 N           5.7350   27.3260   22.7350 N.am      8 SEL2        0.0000 
     19 N           3.5480   25.9720   24.1090 N.am      5 SEP2        0.0000 
     20 CA          2.8785   33.1285   23.2235 C.3       3 GLC5        0.0000 
     21 CA          2.5140   31.9140   21.5960 C.3       9 GLL5        0.0000 
     22 CA          3.2430   34.3430   24.8510 C.3       6 GLP5        0.0000 
     23 CA          3.2815   33.4965   20.9085 C.3       3 GLC5        0.0000 
     24 CA          4.0490   35.0790   20.2210 C.3       6 GLP5        0.0000 
     25 CA          0.8015   30.2390   20.4285 C.3       3 GLC5        0.0000 
     26 CA          2.2160   30.4520   21.9280 C.3       9 GLL5        0.0000 
     27 CA         -0.6130   30.0260   18.9290 C.3       6 GLP5        0.0000 
     28 O           0.9290   29.9780   24.5890 O.2       1 ALC1        0.0000 
     29 O           1.9300   30.8190   24.3380 O.2       7 ALL1        0.0000 
     30 O          -0.0720   29.1370   24.8400 O.2       4 ALP1        0.0000 
     31 O           0.3310   29.1970   22.4480 O.2       1 ALC1        0.0000 
     32 O           0.7870   30.3290   21.9660 O.2       7 ALL1        0.0000 
     33 O          -0.1250   28.0650   22.9300 O.2       4 ALP1        0.0000 
     34 O           0.3575   29.7330   23.4030 O.2       1 ALC1        0.0000 
     35 O           0.6350   33.1925   17.4805 O.2       1 ALC1        0.0000 
     36 O           1.7710   32.8030   18.0450 O.2       7 ALL1        0.0000 
     37 O          -0.5010   33.5820   16.9160 O.2       4 ALP1        0.0000 
     38 N           1.9565   33.2315   15.3775 N.am      2 SEC2        0.0000 
     39 N           2.9980   32.4720   16.1490 N.am      8 SEL2        0.0000 
     40 N           0.9150   33.9910   14.6060 N.am      5 SEP2        0.0000 
     41 CA          4.4450   33.3785   18.6000 C.3       3 GLC5        0.0000 
     42 CA          3.9600   31.7050   18.0730 C.3       9 GLL5        0.0000 
     43 CA          4.9300   35.0520   19.1270 C.3       6 GLP5        0.0000 
     44 CA          3.9435   33.3310   19.8430 C.3       3 GLC5        0.0000 
     45 CA          3.8380   31.5830   19.4650 C.3       9 GLL5        0.0000 
     46 N          12.4830   25.7790   23.3185 N.am      2 SEC2        0.0000 
     47 N          12.1840   25.8560   24.7460 N.am      8 SEL2        0.0000 
     48 N          12.7820   25.7020   21.8910 N.am      5 SEP2        0.0000 
     49 O          12.8280   25.1930   25.7325 O.2       1 ALC1        0.0000 
     50 O          12.1840   25.8560   24.7460 O.2       7 ALL1        0.0000 
     51 O          13.4720   24.5300   26.7190 O.2       4 ALP1        0.0000 
     52 N           8.6670   25.0495   26.2195 N.am      2 SEC2        0.0000 
     53 N           9.9270   25.4410   26.6530 N.am      8 SEL2        0.0000 
     54 N           7.4070   24.6580   25.7860 N.am      5 SEP2        0.0000 
     55 O          10.7695   24.6275   27.0945 O.2       1 ALC1        0.0000 
     56 O           9.9270   25.4410   26.6530 O.2       7 ALL1        0.0000 
     57 O          11.6120   23.8140   27.5360 O.2       4 ALP1        0.0000 
     58 CA         10.1400   29.8190   28.9755 C.3       3 GLC5        0.0000 
     59 CA          9.2400   28.0410   28.1970 C.3       9 GLL5        0.0000 
     60 CA         11.0400   31.5970   29.7540 C.3       6 GLP5        0.0000 
     61 CA          8.8145   28.4005   30.1590 C.3       3 GLC5        0.0000 
     62 CA          8.3890   28.7600   32.1210 C.3       6 GLP5        0.0000 
     63 CA          3.3407   32.5408   24.0670 C.3       3 GLC5        0.0000 
     64 CA          2.8330   30.2880   23.3500 C.3       9 GLL5        0.0000 
     65 CA          3.7850   29.3536   24.7368 C.3       3 GLC5        0.0000 
     66 CA          3.8620   28.1970   26.3220 C.3       6 GLP5        0.0000 
     67 CA          5.7145   30.3885   18.8350 C.3       3 GLC5        0.0000 
     68 CA          7.5300   29.1330   18.9010 C.3       6 GLP5        0.0000 
     69 CA         13.3065   28.4820   22.7600 C.3       3 GLC5        0.0000 
     70 CA         12.3550   28.2220   23.5400 C.3       9 GLL5        0.0000 
     71 CA         14.5100   28.7590   21.3320 C.3       6 GLP5        0.0000 
     72 CA         13.8620   27.1775   24.3845 C.3       3 GLC5        0.0000 
     73 CA         15.6210   26.1500   24.5810 C.3       6 GLP5        0.0000 
     74 CA          9.5670   25.8055   24.5980 C.3       3 GLC5        0.0000 
     75 CA         11.1750   26.8320   24.9890 C.3       9 GLL5        0.0000 
     76 CA          8.2620   24.8340   23.4970 C.3       6 GLP5        0.0000 
     77 CA          8.6210   29.9510   27.0120 C.3       3 GLC5        0.0000 
     78 CA          9.6680   27.9350   26.7390 C.3       9 GLL5        0.0000 
@<TRIPOS>BOND
@<TRIPOS>SUBSTRUCTURE
     1 ALC1       28 GROUP        1 X    ALC  0     ROOT ALC X 1
     2 SEC2        4 GROUP        1 X    SEC  0     **** SEC X 2
     3 GLC5        1 GROUP        1 X    GLC  0     **** GLC X 6
     4 ALP1       30 GROUP        1 Y    ALP  0     ROOT ALP Y 8
     5 SEP2        6 GROUP        1 Y    SEP  0     **** SEP Y 9
     6 GLP5        3 GROUP        1 Y    GLP  0     **** GLP Y 13
     7 ALL1       29 GROUP        1 Z    ALL  0     ROOT ALL Z 15
     8 SEL2        5 GROUP        1 Z    SEL  0     **** SEL Z 16
     9 GLL5        2 GROUP        1 Z    GLL  0     **** GLL Z 20
@<TRIPOS>SET

