#    Name: 2vce_U2F_1_ligand
#    Modification time : Tue Mar 25 01:25:50 2014

@<TRIPOS>MOLECULE
2vce_U2F_1_ligand
   57    59     1     0     0
SMALL
NO_CHARGES


@<TRIPOS>ATOM
      1 C1         10.8310   29.3120   25.0540 C.3       1 U2F1477     0.0000 
      2 O1          9.7110   28.9550   24.1710 O.3       1 U2F1477     0.0000 
      3 PB          9.0840   29.6920   22.9390 P.3       1 U2F1477     0.0000 
      4 O1B         8.6210   30.9920   23.3280 O.co2     1 U2F1477     0.0000 
      5 O2B         9.9350   29.5180   21.7370 O.co2     1 U2F1477     0.0000 
      6 O3A         7.8130   28.6220   22.7140 O.3       1 U2F1477     0.0000 
      7 PA          6.4700   28.2720   23.6290 P.3       1 U2F1477     0.0000 
      8 O1A         6.8390   27.8000   24.9970 O.co2     1 U2F1477     0.0000 
      9 O2A         5.7350   27.3260   22.7350 O.co2     1 U2F1477     0.0000 
     10 O5'         5.7790   29.6840   23.7670 O.3       1 U2F1477     0.0000 
     11 C5'         5.1220   30.2760   22.6900 C.3       1 U2F1477     0.0000 
     12 C4'         4.0440   31.1890   23.2160 C.3       1 U2F1477     0.0000 
     13 O4'         3.7860   32.1770   22.1280 O.3       1 U2F1477     0.0000 
     14 C1'         2.5140   31.9140   21.5960 C.3       1 U2F1477     0.0000 
     15 C2'         2.2160   30.4520   21.9280 C.3       1 U2F1477     0.0000 
     16 C3'         2.8330   30.2880   23.3500 C.3       1 U2F1477     0.0000 
     17 O3'         1.9300   30.8190   24.3380 O.3       1 U2F1477     0.0000 
     18 O2'         0.7870   30.3290   21.9660 O.3       1 U2F1477     0.0000 
     19 N1          2.6600   32.0780   20.1340 N.am      1 U2F1477     0.0000 
     20 C6'         1.6190   32.6870   19.4230 C.2       1 U2F1477     0.0000 
     21 O6'         0.5700   33.1020   19.9470 O.2       1 U2F1477     0.0000 
     22 N3          1.7710   32.8030   18.0450 N.am      1 U2F1477     0.0000 
     23 C7'         2.9340   32.3240   17.3690 C.2       1 U2F1477     0.0000 
     24 O7'         2.9980   32.4720   16.1490 O.2       1 U2F1477     0.0000 
     25 C8'         3.9600   31.7050   18.0730 C.2       1 U2F1477     0.0000 
     26 C9'         3.8380   31.5830   19.4650 C.2       1 U2F1477     0.0000 
     27 C2         11.8510   28.1880   24.8360 C.3       1 U2F1477     0.0000 
     28 F1         12.3550   28.2220   23.5400 F         1 U2F1477     0.0000 
     29 C3         11.1750   26.8320   24.9890 C.3       1 U2F1477     0.0000 
     30 O3         12.1840   25.8560   24.7460 O.3       1 U2F1477     0.0000 
     31 C4         10.5690   26.7220   26.4090 C.3       1 U2F1477     0.0000 
     32 O4          9.9270   25.4410   26.6530 O.3       1 U2F1477     0.0000 
     33 C5          9.6680   27.9350   26.7390 C.3       1 U2F1477     0.0000 
     34 C6          9.2400   28.0410   28.1970 C.3       1 U2F1477     0.0000 
     35 O6         10.4530   27.9830   29.0060 O.3       1 U2F1477     0.0000 
     36 O5         10.3990   29.2160   26.4010 O.3       1 U2F1477     0.0000 
     37 H          11.2557   30.2138   24.7972 H         1 U2F1477     0.0000 
     38 H           4.6434   29.5355   22.0332 H         1 U2F1477     0.0000 
     39 H           5.7981   30.8792   22.0674 H         1 U2F1477     0.0000 
     40 H           4.3081   31.6124   24.0967 H         1 U2F1477     0.0000 
     41 H           1.7720   32.5279   21.9813 H         1 U2F1477     0.0000 
     42 H           2.6989   29.8401   21.2624 H         1 U2F1477     0.0000 
     43 H           3.1242   29.3141   23.4753 H         1 U2F1477     0.0000 
     44 H           1.0264   33.2481   17.4781 H         1 U2F1477     0.0000 
     45 H           4.7823   31.3470   17.5957 H         1 U2F1477     0.0000 
     46 H           4.5726   31.1470   20.0197 H         1 U2F1477     0.0000 
     47 H          12.6160   28.2634   25.5776 H         1 U2F1477     0.0000 
     48 H          10.3825   26.7772   24.2709 H         1 U2F1477     0.0000 
     49 H          11.4531   26.8115   27.1114 H         1 U2F1477     0.0000 
     50 H           8.7804   27.8903   26.1170 H         1 U2F1477     0.0000 
     51 H           8.5783   27.2155   28.4236 H         1 U2F1477     0.0000 
     52 H           8.7204   28.9796   28.3371 H         1 U2F1477     0.0000 
     53 H           1.2369   30.1091   24.4631 H         1 U2F1477     0.0000 
     54 H           0.6153   29.4320   22.3734 H         1 U2F1477     0.0000 
     55 H          12.7881   25.9049   25.5414 H         1 U2F1477     0.0000 
     56 H          10.4452   25.0307   27.4035 H         1 U2F1477     0.0000 
     57 H          11.1021   28.5862   28.5425 H         1 U2F1477     0.0000 
@<TRIPOS>BOND
     1    2    1 1    
     2   27    1 1    
     3   36    1 1    
     4   37    1 1    
     5    3    2 1    
     6    4    3 ar   
     7    5    3 ar   
     8    6    3 1    
     9    7    6 1    
    10    8    7 ar   
    11    9    7 ar   
    12   10    7 1    
    13   11   10 1    
    14   12   11 1    
    15   38   11 1    
    16   39   11 1    
    17   13   12 1    
    18   16   12 1    
    19   40   12 1    
    20   14   13 1    
    21   15   14 1    
    22   19   14 1    
    23   41   14 1    
    24   16   15 1    
    25   18   15 1    
    26   42   15 1    
    27   17   16 1    
    28   43   16 1    
    29   53   17 1    
    30   54   18 1    
    31   20   19 1    
    32   26   19 1    
    33   21   20 2    
    34   22   20 1    
    35   23   22 1    
    36   44   22 1    
    37   24   23 2    
    38   25   23 1    
    39   26   25 2    
    40   45   25 1    
    41   46   26 1    
    42   28   27 1    
    43   29   27 1    
    44   47   27 1    
    45   30   29 1    
    46   31   29 1    
    47   48   29 1    
    48   55   30 1    
    49   32   31 1    
    50   33   31 1    
    51   49   31 1    
    52   56   32 1    
    53   34   33 1    
    54   36   33 1    
    55   50   33 1    
    56   35   34 1    
    57   51   34 1    
    58   52   34 1    
    59   57   35 1    
@<TRIPOS>SUBSTRUCTURE
     1 U2F1477     1 GROUP   
@<TRIPOS>SET

