#    Name: 4A30_1_CAVITY_N1_ALL.mol2
#    Modification time : Tue Mar 11 16:20:34 2014

@<TRIPOS>MOLECULE
4A30_1_CAVITY_N1_ALL.mol2
  156     0     6     0     0
SMALL
NO_CHARGES


@<TRIPOS>ATOM
      1 CZ         30.2043    8.6665   16.8099 C.ar      4 PHE5        0.0000 
      2 CZ         30.0409    9.9851   16.1137 C.ar      4 PHE5        0.0000 
      3 CZ         31.3346    6.9085   16.4468 C.ar      4 PHE5        0.0000 
      4 DU         31.1712    8.2271   15.7506 H         6 CUB7        0.0000 
      5 NZ         31.0078    9.5457   15.0545 N.2       3 LYS4        0.0000 
      6 NZ         30.8444   10.8642   14.3583 N.2       3 LYS4        0.0000 
      7 NZ         32.1381    7.7876   14.6914 N.2       3 LYS4        0.0000 
      8 NZ         31.9747    9.1062   13.9952 N.2       3 LYS4        0.0000 
      9 NZ         33.1050    7.3482   13.6321 N.2       3 LYS4        0.0000 
     10 O          34.2353    5.5902   13.2690 O.2       2 ALA2        0.0000 
     11 NZ         35.0388    6.4693   11.5136 N.2       3 LYS4        0.0000 
     12 CZ         28.4291    5.9047   18.4593 C.ar      4 PHE5        0.0000 
     13 CZ         28.2657    7.2232   17.7632 C.ar      4 PHE5        0.0000 
     14 CZ         29.3960    5.4652   17.4001 C.ar      4 PHE5        0.0000 
     15 CZ         29.2326    6.7838   16.7039 C.ar      4 PHE5        0.0000 
     16 CZ         29.0692    8.1024   16.0078 C.ar      4 PHE5        0.0000 
     17 CA         30.3629    5.0258   16.3408 C.3       5 GLY6        0.0000 
     18 CA         30.1995    6.3444   15.6447 C.3       5 GLY6        0.0000 
     19 DU         30.0361    7.6630   14.9485 H         6 CUB7        0.0000 
     20 CZ         29.8727    8.9815   14.2524 C.ar      4 PHE5        0.0000 
     21 N          29.7094   10.3001   13.5562 N.2       2 ALA2        0.0000 
     22 N          29.5460   11.6187   12.8600 N.2       2 ALA2        0.0000 
     23 CA         31.1664    5.9049   14.5854 C.3       5 GLY6        0.0000 
     24 NZ         31.0030    7.2235   13.8893 N.2       3 LYS4        0.0000 
     25 NZ         30.8396    8.5421   13.1931 N.2       3 LYS4        0.0000 
     26 O          30.6763    9.8607   12.4970 O.2       2 ALA2        0.0000 
     27 CA         32.1333    5.4655   13.5262 C.3       5 GLY6        0.0000 
     28 NZ         31.9699    6.7841   12.8300 N.2       3 LYS4        0.0000 
     29 O          33.1002    5.0261   12.4669 O.2       2 ALA2        0.0000 
     30 NZ         34.0671    4.5866   11.4077 N.2       3 LYS4        0.0000 
     31 NZ         33.9037    5.9052   10.7115 N.2       3 LYS4        0.0000 
     32 OG         26.3271    5.7800   18.7165 O.2       1 SER1        0.0000 
     33 CZ         26.1637    7.0986   18.0203 C.ar      4 PHE5        0.0000 
     34 OG         27.2940    5.3405   17.6572 O.2       1 SER1        0.0000 
     35 CZ         27.1306    6.6591   16.9611 C.ar      4 PHE5        0.0000 
     36 CA         28.4243    3.5825   17.2941 C.3       5 GLY6        0.0000 
     37 CA         28.2609    4.9011   16.5980 C.3       5 GLY6        0.0000 
     38 CZ         28.0975    6.2197   15.9018 C.ar      4 PHE5        0.0000 
     39 CZ         27.9341    7.5383   15.2057 C.ar      4 PHE5        0.0000 
     40 CZ         27.7708    8.8569   14.5095 C.ar      4 PHE5        0.0000 
     41 O          29.3912    3.1431   16.2349 O.2       2 ALA2        0.0000 
     42 CA         29.2278    4.4617   15.5387 C.3       5 GLY6        0.0000 
     43 DU         29.0644    5.7803   14.8426 H         6 CUB7        0.0000 
     44 DU         28.9010    7.0988   14.1464 H         6 CUB7        0.0000 
     45 N          28.7377    8.4174   13.4503 N.2       2 ALA2        0.0000 
     46 CA         30.1947    4.0222   14.4795 C.3       5 GLY6        0.0000 
     47 CA         30.0313    5.3408   13.7833 C.3       5 GLY6        0.0000 
     48 DU         29.8679    6.6594   13.0872 H         6 CUB7        0.0000 
     49 O          29.7046    7.9780   12.3910 O.2       2 ALA2        0.0000 
     50 O          29.5412    9.2966   11.6949 O.2       2 ALA2        0.0000 
     51 CA         31.1616    3.5828   13.4202 C.3       5 GLY6        0.0000 
     52 CA         30.9982    4.9014   12.7241 C.3       5 GLY6        0.0000 
     53 NZ         30.8348    6.2200   12.0279 N.2       3 LYS4        0.0000 
     54 NZ         30.6715    7.5386   11.3318 N.2       3 LYS4        0.0000 
     55 CA         32.1285    3.1434   12.3610 C.3       5 GLY6        0.0000 
     56 CA         31.9651    4.4620   11.6648 C.3       5 GLY6        0.0000 
     57 NZ         31.8017    5.7805   10.9687 N.2       3 LYS4        0.0000 
     58 N          33.2588    1.3853   11.9979 N.2       2 ALA2        0.0000 
     59 NZ         33.0954    2.7039   11.3018 N.2       3 LYS4        0.0000 
     60 NZ         32.9320    4.0225   10.6056 N.2       3 LYS4        0.0000 
     61 NZ         32.7686    5.3411    9.9094 N.2       3 LYS4        0.0000 
     62 NZ         33.8989    3.5831    9.5464 N.2       3 LYS4        0.0000 
     63 NZ         33.7355    4.9017    8.8502 N.2       3 LYS4        0.0000 
     64 N          33.5722    6.2203    8.1540 N.2       2 ALA2        0.0000 
     65 OG         26.1589    4.7764   16.8551 O.2       1 SER1        0.0000 
     66 OG         25.9955    6.0950   16.1590 O.2       1 SER1        0.0000 
     67 O          25.8322    7.4136   15.4628 O.2       2 ALA2        0.0000 
     68 CZ         27.2892    3.0184   16.4920 C.ar      4 PHE5        0.0000 
     69 CZ         27.1258    4.3370   15.7959 C.ar      4 PHE5        0.0000 
     70 DU         26.9624    5.6556   15.0997 H         6 CUB7        0.0000 
     71 O          26.7991    6.9742   14.4036 O.2       2 ALA2        0.0000 
     72 CZ         28.2561    2.5790   15.4328 C.ar      4 PHE5        0.0000 
     73 CZ         28.0927    3.8976   14.7366 C.ar      4 PHE5        0.0000 
     74 DU         27.9293    5.2161   14.0405 H         6 CUB7        0.0000 
     75 DU         27.7660    6.5347   13.3443 H         6 CUB7        0.0000 
     76 N          27.6026    7.8533   12.6482 N.2       2 ALA2        0.0000 
     77 O          29.2230    2.1395   14.3735 O.2       2 ALA2        0.0000 
     78 DU         29.0596    3.4581   13.6774 H         6 CUB7        0.0000 
     79 DU         28.8962    4.7767   12.9812 H         6 CUB7        0.0000 
     80 DU         28.7329    6.0953   12.2851 H         6 CUB7        0.0000 
     81 CA         28.5695    7.4139   11.5889 C.3       5 GLY6        0.0000 
     82 CA         28.4061    8.7325   10.8928 C.3       5 GLY6        0.0000 
     83 N          30.1899    1.7001   13.3143 N.2       2 ALA2        0.0000 
     84 N          30.0265    3.0187   12.6181 N.2       2 ALA2        0.0000 
     85 DU         29.8631    4.3373   11.9220 H         6 CUB7        0.0000 
     86 CA         29.6998    5.6559   11.2258 C.3       5 GLY6        0.0000 
     87 N          30.9934    2.5793   11.5589 N.2       2 ALA2        0.0000 
     88 DU         30.8300    3.8978   10.8627 H         6 CUB7        0.0000 
     89 CA         30.6667    5.2164   10.1666 C.3       5 GLY6        0.0000 
     90 N          32.1237    0.8212   11.1958 N.2       2 ALA2        0.0000 
     91 N          31.9603    2.1398   10.4997 N.2       2 ALA2        0.0000 
     92 DU         31.7969    3.4584    9.8035 H         6 CUB7        0.0000 
     93 CA         31.6336    4.7770    9.1073 C.3       5 GLY6        0.0000 
     94 NZ         33.0906    0.3818   10.1366 N.2       3 LYS4        0.0000 
     95 NZ         32.9272    1.7004    9.4404 N.2       3 LYS4        0.0000 
     96 N          32.7638    3.0190    8.7443 N.2       2 ALA2        0.0000 
     97 N          32.6005    4.3376    8.0481 N.2       2 ALA2        0.0000 
     98 CA         33.8941    1.2610    8.3812 C.3       5 GLY6        0.0000 
     99 OG         25.8274    5.0915   14.2976 O.2       1 SER1        0.0000 
    100 O          25.6640    6.4100   13.6015 O.2       2 ALA2        0.0000 
    101 CZ         25.5006    7.7286   12.9053 C.ar      4 PHE5        0.0000 
    102 CZ         26.9576    3.3334   13.9345 C.ar      4 PHE5        0.0000 
    103 CZ         26.7943    4.6520   13.2384 C.ar      4 PHE5        0.0000 
    104 CZ         26.6309    5.9706   12.5422 C.ar      4 PHE5        0.0000 
    105 CZ         26.4675    7.2892   11.8461 C.ar      4 PHE5        0.0000 
    106 CA         28.0879    1.5754   13.5714 C.3       5 GLY6        0.0000 
    107 CZ         27.9245    2.8940   12.8753 C.ar      4 PHE5        0.0000 
    108 DU         27.7612    4.2126   12.1791 H         6 CUB7        0.0000 
    109 CZ         27.5978    5.5312   11.4830 C.ar      4 PHE5        0.0000 
    110 CZ         27.4344    6.8498   10.7868 C.ar      4 PHE5        0.0000 
    111 CA         28.8914    2.4546   11.8160 C.3       5 GLY6        0.0000 
    112 DU         28.7281    3.7732   11.1199 H         6 CUB7        0.0000 
    113 CZ         28.5647    5.0917   10.4237 C.ar      4 PHE5        0.0000 
    114 CZ         28.4013    6.4103    9.7276 C.ar      4 PHE5        0.0000 
    115 DU         29.6950    3.3337   10.0606 H         6 CUB7        0.0000 
    116 CA         29.5316    4.6523    9.3645 C.3       5 GLY6        0.0000 
    117 CA         30.8252    1.5757    9.6976 C.3       5 GLY6        0.0000 
    118 N          30.6619    2.8943    9.0014 N.2       2 ALA2        0.0000 
    119 N          30.4985    4.2129    8.3052 N.2       2 ALA2        0.0000 
    120 N          31.7921    1.1363    8.6383 N.2       2 ALA2        0.0000 
    121 OG         24.6923    4.5273   13.4955 O.2       1 SER1        0.0000 
    122 CZ         24.5289    5.8459   12.7994 C.ar      4 PHE5        0.0000 
    123 CZ         25.6592    4.0879   12.4363 C.ar      4 PHE5        0.0000 
    124 CZ         25.4958    5.4065   11.7401 C.ar      4 PHE5        0.0000 
    125 CZ         26.7894    2.3299   12.0732 C.ar      4 PHE5        0.0000 
    126 OG         26.6261    3.6485   11.3770 O.2       1 SER1        0.0000 
    127 CA         27.7564    1.8905   11.0139 C.3       5 GLY6        0.0000 
    128 CZ         27.5930    3.2090   10.3178 C.ar      4 PHE5        0.0000 
    129 CA         28.5599    2.7696    9.2585 C.3       5 GLY6        0.0000 
    130 CZ         28.3965    4.0882    8.5624 C.ar      4 PHE5        0.0000 
    131 N          34.5764    9.9194   18.1569 N.2       2 ALA2        0.0000 
    132 N          34.4131   11.2380   17.4608 N.2       2 ALA2        0.0000 
    133 CA         35.5433    9.4800   17.0977 C.3       5 GLY6        0.0000 
    134 CA         36.6736    7.7220   16.7346 C.3       5 GLY6        0.0000 
    135 N          32.4745    9.7947   18.4141 N.2       2 ALA2        0.0000 
    136 CZ         33.6047    8.0367   18.0510 C.ar      4 PHE5        0.0000 
    137 N          33.4414    9.3553   17.3548 N.2       2 ALA2        0.0000 
    138 N          33.2780   10.6739   16.6587 N.2       2 ALA2        0.0000 
    139 N          33.1146   11.9925   15.9625 N.2       2 ALA2        0.0000 
    140 NZ         34.5716    7.5973   16.9917 N.2       3 LYS4        0.0000 
    141 DU         34.4083    8.9159   16.2956 H         6 CUB7        0.0000 
    142 NZ         34.2449   10.2345   15.5994 N.2       3 LYS4        0.0000 
    143 NZ         35.5385    7.1578   15.9325 N.2       3 LYS4        0.0000 
    144 NZ         35.3752    8.4764   15.2363 N.2       3 LYS4        0.0000 
    145 NZ         36.5054    6.7184   14.8732 N.2       3 LYS4        0.0000 
    146 CZ         31.3394    9.2306   17.6120 C.ar      4 PHE5        0.0000 
    147 N          31.1760   10.5492   16.9158 N.2       2 ALA2        0.0000 
    148 CZ         32.4697    7.4726   17.2489 C.ar      4 PHE5        0.0000 
    149 CZ         32.3063    8.7912   16.5527 C.ar      4 PHE5        0.0000 
    150 N          32.1429   10.1098   15.8566 N.2       2 ALA2        0.0000 
    151 NZ         31.9795   11.4284   15.1604 N.2       3 LYS4        0.0000 
    152 NZ         33.4366    7.0332   16.1896 N.2       3 LYS4        0.0000 
    153 NZ         33.2732    8.3518   15.4935 N.2       3 LYS4        0.0000 
    154 NZ         34.4035    6.5937   15.1304 N.2       3 LYS4        0.0000 
    155 NZ         34.2401    7.9123   14.4342 N.2       3 LYS4        0.0000 
    156 NZ         35.2070    7.4729   13.3750 N.2       3 LYS4        0.0000 
@<TRIPOS>BOND
@<TRIPOS>SUBSTRUCTURE
     1 SER1       32 GROUP   
     2 ALA2       10 GROUP   
     3 LYS4        5 GROUP   
     4 PHE5        1 GROUP   
     5 GLY6       17 GROUP   
     6 CUB7        4 GROUP   
@<TRIPOS>SET

