#    Name: 4a30_QMI_1_INTS_M
#    Modification time : Tue Mar 25 04:53:32 2014

@<TRIPOS>MOLECULE
4a30_QMI_1_INTS_M
   44     0     6     0     0
SMALL
NO_CHARGES


@<TRIPOS>ATOM
      1 CA         28.7055    2.3920    7.7290 C.3       2 GLC5        0.0000 
      2 CA         28.0550    3.4450    9.1240 C.3       6 GLL5        0.0000 
      3 CA         29.3560    1.3390    6.3340 C.3       4 GLP5        0.0000 
      4 CA         26.9490    4.6135    8.6880 C.3       2 GLC5        0.0000 
      5 CA         25.8430    5.7820    8.2520 C.3       4 GLP5        0.0000 
      6 CA         25.1170    3.4850   13.6865 C.3       2 GLC5        0.0000 
      7 CA         25.1870    5.3000   13.3760 C.3       6 GLL5        0.0000 
      8 CA         25.0470    1.6700   13.9970 C.3       4 GLP5        0.0000 
      9 CA         24.6210    5.8740   11.5465 C.3       2 GLC5        0.0000 
     10 CA         24.0550    6.4480    9.7170 C.3       4 GLP5        0.0000 
     11 CA         23.2845    5.4645   13.4515 C.3       2 GLC5        0.0000 
     12 CA         21.3820    5.6290   13.5270 C.3       4 GLP5        0.0000 
     13 CA         30.7690    4.0630   15.6550 C.3       2 GLC5        0.0000 
     14 CA         28.6900    3.9600   15.4990 C.3       6 GLL5        0.0000 
     15 CA         32.8480    4.1660   15.8110 C.3       4 GLP5        0.0000 
     16 CA         31.2190    3.1620   14.7100 C.3       2 GLC5        0.0000 
     17 CA         29.5210    3.5020   14.3200 C.3       6 GLL5        0.0000 
     18 CA         32.9170    2.8220   15.1000 C.3       4 GLP5        0.0000 
     19 CA         28.5340    0.3570   14.6040 C.3       2 GLC5        0.0000 
     20 CA         28.0840    1.6520   16.3610 C.3       6 GLL5        0.0000 
     21 CA         28.9840   -0.9380   12.8470 C.3       4 GLP5        0.0000 
     22 CA         29.8315    0.5495   16.2670 C.3       2 GLC5        0.0000 
     23 CA         31.5790   -0.5530   16.1730 C.3       4 GLP5        0.0000 
     24 CA         29.0125    2.7635   18.0175 C.3       2 GLC5        0.0000 
     25 CA         29.9410    3.8750   19.6740 C.3       4 GLP5        0.0000 
     26 CA         28.5165    0.5690   17.9465 C.3       2 GLC5        0.0000 
     27 CA         28.9490   -0.5140   19.5320 C.3       4 GLP5        0.0000 
     28 CA         26.3185    1.3810   16.3640 C.3       2 GLC5        0.0000 
     29 CA         24.5530    1.1100   16.3670 C.3       4 GLP5        0.0000 
     30 N          26.3365    3.3745   18.1995 N.am      1 SEC2        0.0000 
     31 N          27.3020    3.8180   17.2790 N.am      5 SEL2        0.0000 
     32 N          25.3710    2.9310   19.1200 N.am      3 SEP2        0.0000 
     33 CA         28.3495    5.0065   18.8085 C.3       2 GLC5        0.0000 
     34 CA         26.7580    6.1380   17.9430 C.3       6 GLL5        0.0000 
     35 CA         27.2410    8.0310   17.6455 C.3       2 GLC5        0.0000 
     36 CA         27.7240    9.9240   17.3480 C.3       4 GLP5        0.0000 
     37 CA         26.3220    4.6000   19.2080 C.3       2 GLC5        0.0000 
     38 CA         25.8860    3.0620   20.4730 C.3       4 GLP5        0.0000 
     39 CA         26.7125    7.1800   19.5230 C.3       2 GLC5        0.0000 
     40 CA         26.6670    8.2220   21.1030 C.3       4 GLP5        0.0000 
     41 CA         29.7982    6.7439   10.0145 C.3       2 GLC5        0.0000 
     42 CA         29.0330    5.2240   10.9890 C.3       6 GLL5        0.0000 
     43 CA         30.2320    7.6720    8.3790 C.3       4 GLP5        0.0000 
     44 CA         29.2182    4.2415   17.7060 C.3       2 GLC5        0.0000 
@<TRIPOS>BOND
@<TRIPOS>SUBSTRUCTURE
     1 SEC2       30 GROUP        1 X    SEC  0     ROOT SEC X 2
     2 GLC5        1 GROUP        1 X    GLC  0     **** GLC X 6
     3 SEP2       32 GROUP        1 Y    SEP  0     ROOT SEP Y 9
     4 GLP5        3 GROUP        1 Y    GLP  0     **** GLP Y 13
     5 SEL2       31 GROUP        1 Z    SEL  0     ROOT SEL Z 16
     6 GLL5        2 GROUP        1 Z    GLL  0     **** GLL Z 20
@<TRIPOS>SET

