#    Name: 4a30_QMI_1_ligand
#    Modification time : Tue Mar 25 04:53:32 2014

@<TRIPOS>MOLECULE
4a30_QMI_1_ligand
   33    34     1     0     0
SMALL
NO_CHARGES


@<TRIPOS>ATOM
      1 CLJ        30.4620    6.7930   12.5000 Cl        1 QMI1424     0.0000 
      2 CAE        28.9300    6.0220   12.1220 C.ar      1 QMI1424     0.0000 
      3 CAD        29.0330    5.2240   10.9890 C.ar      1 QMI1424     0.0000 
      4 CAC        27.9320    4.4880   10.6910 C.ar      1 QMI1424     0.0000 
      5 BRU        28.0550    3.4450    9.1240 Br        1 QMI1424     0.0000 
      6 CAB        26.7430    4.5260   11.4080 C.ar      1 QMI1424     0.0000 
      7 CAA        26.7080    5.3580   12.5370 C.ar      1 QMI1424     0.0000 
      8 CLI        25.1870    5.3000   13.3760 Cl        1 QMI1424     0.0000 
      9 CAF        27.7860    6.2280   12.9210 C.ar      1 QMI1424     0.0000 
     10 SAG        27.8130    7.2210   14.2790 S.o2      1 QMI1424     0.0000 
     11 OAH        26.4740    7.4180   14.7360 O.2       1 QMI1424     0.0000 
     12 OAT        28.5050    8.4680   14.0110 O.2       1 QMI1424     0.0000 
     13 NAK        28.7230    6.4340   15.3750 N.pl3     1 QMI1424     0.0000 
     14 CAL        28.3010    5.2560   15.9770 C.2       1 QMI1424     0.0000 
     15 CAP        28.6900    3.9600   15.4990 C.2       1 QMI1424     0.0000 
     16 CAR        29.5210    3.5020   14.3200 C.3       1 QMI1424     0.0000 
     17 NAO        28.0490    3.1420   16.3510 N.pl3     1 QMI1424     0.0000 
     18 CAQ        28.0840    1.6520   16.3610 C.3       1 QMI1424     0.0000 
     19 NAN        27.3020    3.8180   17.2790 N.2       1 QMI1424     0.0000 
     20 CAM        27.4600    5.1460   17.0510 C.2       1 QMI1424     0.0000 
     21 CAS        26.7580    6.1380   17.9430 C.3       1 QMI1424     0.0000 
     22 H          29.8717    5.2044   10.4389 H         1 QMI1424     0.0000 
     23 H          25.9409    3.9848   11.1359 H         1 QMI1424     0.0000 
     24 H          29.6041    6.8953   15.5559 H         1 QMI1424     0.0000 
     25 H          30.4537    3.8604   14.3614 H         1 QMI1424     0.0000 
     26 H          29.5915    2.5053   14.2802 H         1 QMI1424     0.0000 
     27 H          29.1296    3.8031   13.4504 H         1 QMI1424     0.0000 
     28 H          29.0120    1.3032   16.4922 H         1 QMI1424     0.0000 
     29 H          27.5216    1.2722   17.0955 H         1 QMI1424     0.0000 
     30 H          27.7446    1.2668   15.5028 H         1 QMI1424     0.0000 
     31 H          27.4057    6.7340   18.4175 H         1 QMI1424     0.0000 
     32 H          26.1397    6.7299   17.4259 H         1 QMI1424     0.0000 
     33 H          26.2097    5.6833   18.6449 H         1 QMI1424     0.0000 
@<TRIPOS>BOND
     1    2    1 1    
     2    3    2 ar   
     3    9    2 ar   
     4    4    3 ar   
     5   22    3 1    
     6    5    4 1    
     7    6    4 ar   
     8    7    6 ar   
     9   23    6 1    
    10    8    7 1    
    11    9    7 ar   
    12   10    9 1    
    13   11   10 2    
    14   12   10 2    
    15   13   10 1    
    16   14   13 1    
    17   24   13 1    
    18   15   14 2    
    19   20   14 1    
    20   16   15 1    
    21   17   15 1    
    22   25   16 1    
    23   26   16 1    
    24   27   16 1    
    25   18   17 1    
    26   19   17 1    
    27   28   18 1    
    28   29   18 1    
    29   30   18 1    
    30   20   19 2    
    31   21   20 1    
    32   31   21 1    
    33   32   21 1    
    34   33   21 1    
@<TRIPOS>SUBSTRUCTURE
     1 QMI1424     1 GROUP   
@<TRIPOS>SET

