#    Name: 3s2a_2NQ_1_INTS_M
#    Modification time : Tue Mar 25 12:07:06 2014

@<TRIPOS>MOLECULE
3s2a_2NQ_1_INTS_M
   65     0     6     0     0
SMALL
NO_CHARGES


@<TRIPOS>ATOM
      1 N          27.5825   13.3255   23.5530 N.am      1 SEC2        0.0000 
      2 N          26.6260   12.4580   22.4990 N.am      5 SEL2        0.0000 
      3 N          28.5390   14.1930   24.6070 N.am      3 SEP2        0.0000 
      4 CA         23.5555   15.3475   23.2615 C.3       2 GLC5        0.0000 
      5 CA         22.1740   14.0230   22.4770 C.3       6 GLL5        0.0000 
      6 CA         24.9370   16.6720   24.0460 C.3       4 GLP5        0.0000 
      7 CA         21.4030   16.5680   23.8790 C.3       2 GLC5        0.0000 
      8 CA         21.6450   16.7450   21.8210 C.3       6 GLL5        0.0000 
      9 CA         21.1610   16.3910   25.9370 C.3       4 GLP5        0.0000 
     10 CA         21.6640   19.3535   23.0630 C.3       2 GLC5        0.0000 
     11 CA         21.6350   18.2590   21.5670 C.3       6 GLL5        0.0000 
     12 CA         21.6930   20.4480   24.5590 C.3       4 GLP5        0.0000 
     13 CA         17.9180   15.6115   20.3530 C.3       2 GLC5        0.0000 
     14 CA         19.1840   16.7680   21.0480 C.3       6 GLL5        0.0000 
     15 CA         16.6520   14.4550   19.6580 C.3       4 GLP5        0.0000 
     16 CA         17.1330   12.5265   23.1395 C.3       2 GLC5        0.0000 
     17 CA         18.3490   13.8730   24.0780 C.3       6 GLL5        0.0000 
     18 CA         15.9170   11.1800   22.2010 C.3       4 GLP5        0.0000 
     19 CA         17.7185   12.2680   25.2150 C.3       2 GLC5        0.0000 
     20 CA         17.0880   10.6630   26.3520 C.3       4 GLP5        0.0000 
     21 CA         17.6175   14.7125   26.0070 C.3       2 GLC5        0.0000 
     22 CA         16.8860   15.5520   27.9360 C.3       4 GLP5        0.0000 
     23 CA         20.2935   11.1570   25.8810 C.3       2 GLC5        0.0000 
     24 CA         21.3430   11.9290   24.1300 C.3       6 GLL5        0.0000 
     25 CA         19.2440   10.3850   27.6320 C.3       4 GLP5        0.0000 
     26 CA         24.6385   14.8150   23.1555 C.3       2 GLC5        0.0000 
     27 CA         24.3400   12.9580   22.2650 C.3       6 GLL5        0.0000 
     28 CA         25.6620   13.7115   24.3310 C.3       2 GLC5        0.0000 
     29 CA         25.4150   12.5110   23.0290 C.3       6 GLL5        0.0000 
     30 CA         25.9090   14.9120   25.6330 C.3       4 GLP5        0.0000 
     31 CA         24.8055   17.8840   17.1690 C.3       2 GLC5        0.0000 
     32 CA         24.6100   17.2060   19.2170 C.3       6 GLL5        0.0000 
     33 CA         25.0010   18.5620   15.1210 C.3       4 GLP5        0.0000 
     34 CA         22.7840   12.7112   20.5815 C.3       2 GLC5        0.0000 
     35 CA         24.5420   13.3150   20.9270 C.3       6 GLL5        0.0000 
     36 CA         21.1270   12.2860   19.5670 C.3       4 GLP5        0.0000 
     37 CA         25.5415   11.4857   20.2503 C.3       2 GLC5        0.0000 
     38 CA         25.8990    9.6850   19.8380 C.3       4 GLP5        0.0000 
     39 CA         28.2742   16.3215   21.4670 C.3       2 GLC5        0.0000 
     40 CA         26.8770   16.5550   19.7950 C.3       6 GLL5        0.0000 
     41 CA         29.5920   15.4960   22.7820 C.3       4 GLP5        0.0000 
     42 CA         22.8635   10.4997   22.9065 C.3       2 GLC5        0.0000 
     43 CA         22.6290   11.9500   23.6100 C.3       6 GLL5        0.0000 
     44 CA         23.7410    9.0600   21.9430 C.3       4 GLP5        0.0000 
     45 CA         23.7255   13.4477   24.7362 C.3       2 GLC5        0.0000 
     46 CA         24.6100   14.4230   26.2710 C.3       4 GLP5        0.0000 
     47 CA         19.4168   11.0892   23.3753 C.3       2 GLC5        0.0000 
     48 CA         20.4660   12.9560   23.8150 C.3       6 GLL5        0.0000 
     49 CA         17.9290    9.7360   22.7780 C.3       4 GLP5        0.0000 
     50 CA         21.8173   12.7669   21.2031 C.3       2 GLC5        0.0000 
     51 CA         20.7214   13.2754   21.3076 C.3       2 GLC5        0.0000 
     52 CA         20.8750   14.0150   22.9860 C.3       6 GLL5        0.0000 
     53 CA         20.9263   15.3951   24.3772 C.3       2 GLC5        0.0000 
     54 CA         23.2885   17.0870   22.8700 C.3       2 GLC5        0.0000 
     55 CA         19.0370   15.7847   24.7218 C.3       2 GLC5        0.0000 
     56 CA         18.6850   14.9480   23.2570 C.3       6 GLL5        0.0000 
     57 CA         19.5570   17.1590   25.7760 C.3       4 GLP5        0.0000 
     58 CA         24.1484   10.9019   22.3610 C.3       2 GLC5        0.0000 
     59 CA         23.0530   12.9950   22.7930 C.3       6 GLL5        0.0000 
     60 CA         26.7793   11.2248   20.3642 C.3       2 GLC5        0.0000 
     61 CA         26.8600   12.8130   21.2180 C.3       6 GLL5        0.0000 
     62 CA         28.6732   13.5142   22.2903 C.3       2 GLC5        0.0000 
     63 CA         29.6870   14.2640   23.6900 C.3       4 GLP5        0.0000 
     64 CA         25.4097   17.8562   22.3993 C.3       2 GLC5        0.0000 
     65 CA         27.0360   17.7390   20.5090 C.3       6 GLL5        0.0000 
@<TRIPOS>BOND
@<TRIPOS>SUBSTRUCTURE
     1 SEC2        1 GROUP        1 X    SEC  0     ROOT SEC X 2
     2 GLC5        4 GROUP        1 X    GLC  0     **** GLC X 6
     3 SEP2        3 GROUP        1 Y    SEP  0     ROOT SEP Y 9
     4 GLP5        6 GROUP        1 Y    GLP  0     **** GLP Y 13
     5 SEL2        2 GROUP        1 Z    SEL  0     ROOT SEL Z 16
     6 GLL5        5 GROUP        1 Z    GLL  0     **** GLL Z 20
@<TRIPOS>SET

