#    Name: 3s2a_2NQ_1_ligand
#    Modification time : Tue Mar 25 12:07:07 2014

@<TRIPOS>MOLECULE
3s2a_2NQ_1_ligand
   55    59     1     0     0
SMALL
NO_CHARGES


@<TRIPOS>ATOM
      1 N1         26.6260   12.4580   22.4990 N.ar      1 2NQ1103     0.0000 
      2 N2         19.2280   12.9160   24.3330 N.pl3     1 2NQ1103     0.0000 
      3 C1         24.5420   13.3150   20.9270 C.ar      1 2NQ1103     0.0000 
      4 C2         25.8260   13.2580   20.3980 C.ar      1 2NQ1103     0.0000 
      5 C3         25.6640   16.2980   19.1630 C.ar      1 2NQ1103     0.0000 
      6 C4         26.8770   16.5550   19.7950 C.ar      1 2NQ1103     0.0000 
      7 C5         27.0360   17.7390   20.5090 C.ar      1 2NQ1103     0.0000 
      8 C6         24.7680   18.3890   19.9330 C.ar      1 2NQ1103     0.0000 
      9 C7         22.6290   11.9500   23.6100 C.ar      1 2NQ1103     0.0000 
     10 C8         20.4660   12.9560   23.8150 C.ar      1 2NQ1103     0.0000 
     11 C9         22.1740   14.0230   22.4770 C.ar      1 2NQ1103     0.0000 
     12 C10        19.9610   15.0440   22.6960 C.ar      1 2NQ1103     0.0000 
     13 C11        21.6450   16.7450   21.8210 C.3       1 2NQ1103     0.0000 
     14 C12        21.6350   18.2590   21.5670 C.3       1 2NQ1103     0.0000 
     15 C13        19.1840   16.7680   21.0480 C.3       1 2NQ1103     0.0000 
     16 O1         20.6930   18.5820   20.5320 O.3       1 2NQ1103     0.0000 
     17 C14        19.3490   18.2920   20.9700 C.3       1 2NQ1103     0.0000 
     18 N3         20.2650   16.1610   21.8700 N.3       1 2NQ1103     0.0000 
     19 C15        20.8750   14.0150   22.9860 C.ar      1 2NQ1103     0.0000 
     20 C16        18.6850   14.9480   23.2570 C.ar      1 2NQ1103     0.0000 
     21 C17        18.3490   13.8730   24.0780 C.ar      1 2NQ1103     0.0000 
     22 C18        21.3430   11.9290   24.1300 C.ar      1 2NQ1103     0.0000 
     23 C19        23.0530   12.9950   22.7930 C.ar      1 2NQ1103     0.0000 
     24 C20        24.3400   12.9580   22.2650 C.ar      1 2NQ1103     0.0000 
     25 C21        25.4150   12.5110   23.0290 C.ar      1 2NQ1103     0.0000 
     26 C22        26.8600   12.8130   21.2180 C.ar      1 2NQ1103     0.0000 
     27 CL1        28.4590   12.7160   20.5630 Cl        1 2NQ1103     0.0000 
     28 N4         26.1090   13.5810   19.1290 N.pl3     1 2NQ1103     0.0000 
     29 S1         25.4860   14.8400   18.2840 S.o2      1 2NQ1103     0.0000 
     30 O2         24.0450   14.5680   17.9700 O.2       1 2NQ1103     0.0000 
     31 O3         26.2620   15.0030   17.0100 O.2       1 2NQ1103     0.0000 
     32 C23        25.9790   18.6500   20.5730 C.ar      1 2NQ1103     0.0000 
     33 F1         26.1270   19.7890   21.2680 F         1 2NQ1103     0.0000 
     34 C24        24.6100   17.2060   19.2170 C.ar      1 2NQ1103     0.0000 
     35 H          18.9590   12.1057   24.9522 H         1 2NQ1103     0.0000 
     36 H          23.7538   13.6128   20.3507 H         1 2NQ1103     0.0000 
     37 H          27.6440   15.8805   19.7354 H         1 2NQ1103     0.0000 
     38 H          27.9191   17.9427   20.9840 H         1 2NQ1103     0.0000 
     39 H          23.9999   19.0646   19.9901 H         1 2NQ1103     0.0000 
     40 H          23.2838   11.1798   23.8309 H         1 2NQ1103     0.0000 
     41 H          22.4787   14.7930   21.8667 H         1 2NQ1103     0.0000 
     42 H          22.1647   16.5552   22.7701 H         1 2NQ1103     0.0000 
     43 H          22.2265   16.2626   21.0235 H         1 2NQ1103     0.0000 
     44 H          22.6539   18.5573   21.2938 H         1 2NQ1103     0.0000 
     45 H          21.3823   18.7533   22.5123 H         1 2NQ1103     0.0000 
     46 H          19.2073   16.3653   20.0327 H         1 2NQ1103     0.0000 
     47 H          18.2066   16.5479   21.4836 H         1 2NQ1103     0.0000 
     48 H          19.1512   18.7018   21.9581 H         1 2NQ1103     0.0000 
     49 H          18.6075   18.6744   20.2718 H         1 2NQ1103     0.0000 
     50 H          17.9861   15.6804   23.0608 H         1 2NQ1103     0.0000 
     51 H          17.3862   13.8502   24.4815 H         1 2NQ1103     0.0000 
     52 H          21.0444   11.1622   24.7407 H         1 2NQ1103     0.0000 
     53 H          25.2336   12.2261   24.0122 H         1 2NQ1103     0.0000 
     54 H          26.7805   13.0461   18.5215 H         1 2NQ1103     0.0000 
     55 H          23.7301   17.0059   18.7362 H         1 2NQ1103     0.0000 
@<TRIPOS>BOND
     1   25    1 ar   
     2   26    1 ar   
     3   10    2 ar   
     4   21    2 ar   
     5   35    2 1    
     6    4    3 ar   
     7   24    3 ar   
     8   36    3 1    
     9   26    4 ar   
    10   28    4 1    
    11    6    5 ar   
    12   29    5 1    
    13   34    5 ar   
    14    7    6 ar   
    15   37    6 1    
    16   32    7 ar   
    17   38    7 1    
    18   32    8 ar   
    19   34    8 ar   
    20   39    8 1    
    21   22    9 ar   
    22   23    9 ar   
    23   40    9 1    
    24   19   10 ar   
    25   22   10 ar   
    26   19   11 ar   
    27   23   11 ar   
    28   41   11 1    
    29   18   12 1    
    30   19   12 ar   
    31   20   12 ar   
    32   14   13 1    
    33   18   13 1    
    34   42   13 1    
    35   43   13 1    
    36   16   14 1    
    37   44   14 1    
    38   45   14 1    
    39   17   15 1    
    40   18   15 1    
    41   46   15 1    
    42   47   15 1    
    43   17   16 1    
    44   48   17 1    
    45   49   17 1    
    46   21   20 ar   
    47   50   20 1    
    48   51   21 1    
    49   52   22 1    
    50   24   23 1    
    51   25   24 ar   
    52   53   25 1    
    53   27   26 1    
    54   29   28 1    
    55   54   28 1    
    56   30   29 2    
    57   31   29 2    
    58   33   32 1    
    59   55   34 1    
@<TRIPOS>SUBSTRUCTURE
     1 2NQ1103     1 GROUP   
@<TRIPOS>SET

