#    Name: 3qwk_X62_1_INTS_M
#    Modification time : Tue Mar 25 10:19:51 2014

@<TRIPOS>MOLECULE
3qwk_X62_1_INTS_M
   40     0     9     0     0
SMALL
NO_CHARGES


@<TRIPOS>ATOM
      1 O         -63.3630   24.7070  -84.9595 O.2       1 ALC1        0.0000 
      2 O         -64.4040   25.4100  -84.1470 O.2       7 ALL1        0.0000 
      3 O         -62.3220   24.0040  -85.7720 O.2       4 ALP1        0.0000 
      4 O         -66.8990   25.2805  -88.5500 O.2       1 ALC1        0.0000 
      5 O         -67.0160   25.9550  -87.2430 O.2       7 ALL1        0.0000 
      6 O         -66.7820   24.6060  -89.8570 O.2       4 ALP1        0.0000 
      7 CA        -63.1860   27.5630  -84.0350 C.3       3 GLC5        0.0000 
      8 CA        -63.2180   25.7850  -83.3350 C.3       9 GLL5        0.0000 
      9 CA        -63.1540   29.3410  -84.7350 C.3       6 GLP5        0.0000 
     10 CA        -61.4455   23.1125  -83.9725 C.3       3 GLC5        0.0000 
     11 CA        -63.0700   23.3100  -82.7240 C.3       9 GLL5        0.0000 
     12 CA        -59.8210   22.9150  -85.2210 C.3       6 GLP5        0.0000 
     13 CA        -64.0770   23.0520  -80.4995 C.3       3 GLC5        0.0000 
     14 CA        -62.2710   22.6090  -80.6810 C.3       9 GLL5        0.0000 
     15 CA        -65.8830   23.4950  -80.3180 C.3       6 GLP5        0.0000 
     16 N         -64.3765   24.1535  -87.3105 N.am      2 SEC2        0.0000 
     17 N         -65.4890   24.5630  -86.3970 N.am      8 SEL2        0.0000 
     18 N         -63.2640   23.7440  -88.2240 N.am      5 SEP2        0.0000 
     19 N         -71.1310   28.9455  -81.8955 N.am      2 SEC2        0.0000 
     20 N         -69.7710   27.9670  -82.0710 N.am      8 SEL2        0.0000 
     21 N         -72.4910   29.9240  -81.7200 N.am      5 SEP2        0.0000 
     22 CA        -69.4635   26.4210  -80.4220 C.3       3 GLC5        0.0000 
     23 CA        -67.5660   27.0700  -80.6040 C.3       9 GLL5        0.0000 
     24 CA        -71.3610   25.7720  -80.2400 C.3       6 GLP5        0.0000 
     25 CA        -65.8337   24.7505  -81.7660 C.3       3 GLC5        0.0000 
     26 CA        -65.6080   25.8060  -83.8780 C.3       9 GLL5        0.0000 
     27 CA        -65.4845   27.1459  -85.4616 C.3       3 GLC5        0.0000 
     28 CA        -64.5300   28.3560  -86.6110 C.3       6 GLP5        0.0000 
     29 CA        -66.6490   25.1750  -80.8685 C.3       3 GLC5        0.0000 
     30 CA        -67.2640   26.6400  -82.2340 C.3       9 GLL5        0.0000 
     31 CA        -69.0119   25.3534  -82.4652 C.3       3 GLC5        0.0000 
     32 CA        -70.3380   24.1380  -81.8510 C.3       6 GLP5        0.0000 
     33 CA        -68.3080   24.7699  -84.9779 C.3       3 GLC5        0.0000 
     34 CA        -68.2820   26.7020  -83.2630 C.3       9 GLL5        0.0000 
     35 CA        -68.8400   23.1560  -85.9510 C.3       6 GLP5        0.0000 
     36 CA        -64.2756   23.9641  -81.0787 C.3       3 GLC5        0.0000 
     37 CA        -62.8810   24.6610  -82.3920 C.3       9 GLL5        0.0000 
     38 CA        -60.8261   25.5800  -82.6976 C.3       3 GLC5        0.0000 
     39 CA        -62.3610   24.8810  -81.1210 C.3       9 GLL5        0.0000 
     40 CA        -58.9470   26.1080  -83.4030 C.3       6 GLP5        0.0000 
@<TRIPOS>BOND
@<TRIPOS>SUBSTRUCTURE
     1 ALC1        1 GROUP        1 X    ALC  0     ROOT ALC X 1
     2 SEC2       16 GROUP        1 X    SEC  0     **** SEC X 2
     3 GLC5        7 GROUP        1 X    GLC  0     **** GLC X 6
     4 ALP1        3 GROUP        1 Y    ALP  0     ROOT ALP Y 8
     5 SEP2       18 GROUP        1 Y    SEP  0     **** SEP Y 9
     6 GLP5        9 GROUP        1 Y    GLP  0     **** GLP Y 13
     7 ALL1        2 GROUP        1 Z    ALL  0     ROOT ALL Z 15
     8 SEL2       17 GROUP        1 Z    SEL  0     **** SEL Z 16
     9 GLL5        8 GROUP        1 Z    GLL  0     **** GLL Z 20
@<TRIPOS>SET

