#    Name: 3qwk_X62_1_ligand
#    Modification time : Tue Mar 25 10:19:51 2014

@<TRIPOS>MOLECULE
3qwk_X62_1_ligand
   31    32     1     0     0
SMALL
NO_CHARGES


@<TRIPOS>ATOM
      1 N01       -64.4040   25.4100  -84.1470 N.pl3     1 X62493      0.0000 
      2 N02       -67.0160   25.9550  -87.2430 N.am      1 X62493      0.0000 
      3 N03       -62.7740   22.2730  -81.8890 N.ar      1 X62493      0.0000 
      4 N04       -62.0470   23.8760  -80.2460 N.ar      1 X62493      0.0000 
      5 N05       -69.4950   27.1060  -83.0310 N.pl3     1 X62493      0.0000 
      6 C06       -67.9330   26.2930  -84.5870 C.ar      1 X62493      0.0000 
      7 C07       -66.6070   25.8380  -84.9060 C.ar      1 X62493      0.0000 
      8 C08       -65.6080   25.8060  -83.8780 C.ar      1 X62493      0.0000 
      9 C09       -65.9610   26.2060  -82.5500 C.ar      1 X62493      0.0000 
     10 C10       -67.2640   26.6400  -82.2340 C.ar      1 X62493      0.0000 
     11 C11       -68.2820   26.7020  -83.2630 C.ar      1 X62493      0.0000 
     12 C12       -66.3260   25.4340  -86.1910 C.2       1 X62493      0.0000 
     13 C13       -63.2180   25.7850  -83.3350 C.3       1 X62493      0.0000 
     14 C14       -62.8810   24.6610  -82.3920 C.ar      1 X62493      0.0000 
     15 C15       -63.0700   23.3100  -82.7240 C.ar      1 X62493      0.0000 
     16 C16       -62.2710   22.6090  -80.6810 C.ar      1 X62493      0.0000 
     17 C17       -62.3610   24.8810  -81.1210 C.ar      1 X62493      0.0000 
     18 O18       -65.4890   24.5630  -86.3970 O.2       1 X62493      0.0000 
     19 O19       -70.4830   26.6980  -83.7800 O.2       1 X62493      0.0000 
     20 O20       -69.7710   27.9670  -82.0710 O.2       1 X62493      0.0000 
     21 CL21      -67.5660   27.0700  -80.6040 Cl        1 X62493      0.0000 
     22 CL22      -61.8830   21.3200  -79.6130 Cl        1 X62493      0.0000 
     23 H         -64.1728   24.7874  -84.9680 H         1 X62493      0.0000 
     24 H         -66.7756   25.5995  -88.1463 H         1 X62493      0.0000 
     25 H         -67.7023   26.6472  -87.0196 H         1 X62493      0.0000 
     26 H         -68.6402   26.3233  -85.3274 H         1 X62493      0.0000 
     27 H         -65.2405   26.1726  -81.8160 H         1 X62493      0.0000 
     28 H         -63.4287   26.6864  -82.7593 H         1 X62493      0.0000 
     29 H         -62.3646   25.9766  -83.9857 H         1 X62493      0.0000 
     30 H         -63.4664   23.1009  -83.6825 H         1 X62493      0.0000 
     31 H         -62.2027   25.8828  -80.8224 H         1 X62493      0.0000 
@<TRIPOS>BOND
     1    8    1 1    
     2   13    1 1    
     3   23    1 1    
     4   12    2 am   
     5   24    2 1    
     6   25    2 1    
     7   15    3 ar   
     8   16    3 ar   
     9   16    4 ar   
    10   17    4 ar   
    11   11    5 1    
    12   19    5 2    
    13   20    5 2    
    14    7    6 ar   
    15   11    6 ar   
    16   26    6 1    
    17    8    7 ar   
    18   12    7 1    
    19    9    8 ar   
    20   10    9 ar   
    21   27    9 1    
    22   11   10 ar   
    23   21   10 1    
    24   18   12 2    
    25   14   13 1    
    26   28   13 1    
    27   29   13 1    
    28   15   14 ar   
    29   17   14 ar   
    30   30   15 1    
    31   22   16 1    
    32   31   17 1    
@<TRIPOS>SUBSTRUCTURE
     1 X62493      1 GROUP   
@<TRIPOS>SET

