#    Name: 1TA2_1_CAVITY_N1_ALL.mol2
#    Modification time : Tue Mar 11 10:39:55 2014

@<TRIPOS>MOLECULE
1TA2_1_CAVITY_N1_ALL.mol2
   68     0     6     0     0
SMALL
NO_CHARGES


@<TRIPOS>ATOM
      1 N          16.9040  -15.7735   23.8559 N.2       2 ALA2        0.0000 
      2 N          15.7452  -16.2814   23.0502 N.2       2 ALA2        0.0000 
      3 O          12.5643  -17.2735   22.6656 O.2       2 ALA2        0.0000 
      4 CA         11.4054  -17.7814   21.8599 C.3       5 GLY6        0.0000 
      5 N          16.5014  -14.3623   23.5454 N.2       2 ALA2        0.0000 
      6 CA         17.3645  -14.3860   22.3188 C.3       5 GLY6        0.0000 
      7 N          15.3426  -14.8702   22.7397 N.2       2 ALA2        0.0000 
      8 DU         16.2056  -14.8938   21.5131 H         6 CUB7        0.0000 
      9 CZ         17.0687  -14.9175   20.2865 C.ar      4 PHE5        0.0000 
     10 N          14.1837  -15.3781   21.9341 N.2       2 ALA2        0.0000 
     11 DU         15.0467  -15.4017   20.7075 H         6 CUB7        0.0000 
     12 CZ         15.9098  -15.4254   19.4809 C.ar      4 PHE5        0.0000 
     13 N          12.1617  -15.8623   22.3551 N.2       2 ALA2        0.0000 
     14 DU         13.0248  -15.8859   21.1285 H         6 CUB7        0.0000 
     15 DU         13.8878  -15.9096   19.9019 H         6 CUB7        0.0000 
     16 CA         11.8659  -16.3938   20.3229 C.3       5 GLY6        0.0000 
     17 N          16.9619  -12.9748   22.0083 N.2       2 ALA2        0.0000 
     18 N          17.8250  -12.9984   20.7817 N.2       2 ALA2        0.0000 
     19 O          14.9400  -13.4590   22.4293 O.2       2 ALA2        0.0000 
     20 DU         15.8030  -13.4826   21.2027 H         6 CUB7        0.0000 
     21 CZ         16.6661  -13.5063   19.9761 C.ar      4 PHE5        0.0000 
     22 CZ         17.5292  -13.5299   18.7495 C.ar      4 PHE5        0.0000 
     23 CA         12.0549  -13.9196   24.0768 C.3       5 GLY6        0.0000 
     24 O          12.9180  -13.9432   22.8502 O.2       2 ALA2        0.0000 
     25 N          13.7811  -13.9669   21.6236 N.2       2 ALA2        0.0000 
     26 DU         14.6441  -13.9905   20.3970 H         6 CUB7        0.0000 
     27 CZ         15.5072  -14.0141   19.1704 C.ar      4 PHE5        0.0000 
     28 CZ         16.3703  -14.0378   17.9438 C.ar      4 PHE5        0.0000 
     29 N          11.7591  -14.4511   22.0446 N.2       2 ALA2        0.0000 
     30 O          12.6222  -14.4747   20.8180 O.2       2 ALA2        0.0000 
     31 CA         13.4852  -14.4984   19.5914 C.3       5 GLY6        0.0000 
     32 CA         14.3483  -14.5220   18.3648 C.3       5 GLY6        0.0000 
     33 CZ         15.2114  -14.5457   17.1382 C.ar      4 PHE5        0.0000 
     34 O          11.4633  -14.9826   20.0124 O.2       2 ALA2        0.0000 
     35 CA         14.5374  -12.0478   22.1188 C.3       5 GLY6        0.0000 
     36 OG         15.4004  -12.0714   20.8922 O.2       1 SER1        0.0000 
     37 OG         16.2635  -12.0951   19.6656 O.2       1 SER1        0.0000 
     38 N          17.1266  -12.1187   18.4390 N.2       2 ALA2        0.0000 
     39 CA         11.6523  -12.5083   23.7663 C.3       5 GLY6        0.0000 
     40 O          12.5154  -12.5320   22.5397 O.2       2 ALA2        0.0000 
     41 DU         13.3785  -12.5556   21.3131 H         6 CUB7        0.0000 
     42 OG         14.2415  -12.5793   20.0865 O.2       1 SER1        0.0000 
     43 OG         15.1046  -12.6029   18.8599 O.2       1 SER1        0.0000 
     44 OG         15.9677  -12.6266   17.6333 O.2       1 SER1        0.0000 
     45 CZ         16.8307  -12.6502   16.4067 C.ar      4 PHE5        0.0000 
     46 N          10.4934  -13.0162   22.9607 N.2       2 ALA2        0.0000 
     47 CA         11.3565  -13.0399   21.7341 C.3       5 GLY6        0.0000 
     48 O          12.2196  -13.0635   20.5075 O.2       2 ALA2        0.0000 
     49 CA         13.0826  -13.0872   19.2809 C.3       5 GLY6        0.0000 
     50 CA         13.9457  -13.1108   18.0543 C.3       5 GLY6        0.0000 
     51 CA         14.8088  -13.1345   16.8277 C.3       5 GLY6        0.0000 
     52 CZ         15.6718  -13.1581   15.6011 C.ar      4 PHE5        0.0000 
     53 OD1        16.5349  -13.1818   14.3745 O.3       3 ASP3        0.0000 
     54 CA         13.6499  -13.6423   16.0221 C.3       5 GLY6        0.0000 
     55 N          12.4086  -10.5893   24.2615 N.2       2 ALA2        0.0000 
     56 CA         13.2717  -10.6129   23.0349 C.3       5 GLY6        0.0000 
     57 N          14.1348  -10.6366   21.8083 N.2       2 ALA2        0.0000 
     58 CA         11.2497  -11.0971   23.4559 C.3       5 GLY6        0.0000 
     59 N          12.1128  -11.1208   22.2293 N.2       2 ALA2        0.0000 
     60 OG         12.9759  -11.1444   21.0027 O.2       1 SER1        0.0000 
     61 OG         16.4281  -11.2390   16.0962 O.2       1 SER1        0.0000 
     62 CA         10.9539  -11.6287   21.4236 C.3       5 GLY6        0.0000 
     63 N          12.6800  -11.6760   18.9704 N.2       2 ALA2        0.0000 
     64 OG         13.5431  -11.6996   17.7438 O.2       1 SER1        0.0000 
     65 O          14.4062  -11.7232   16.5172 O.2       2 ALA2        0.0000 
     66 O          15.2692  -11.7469   15.2906 O.2       2 ALA2        0.0000 
     67 OD1        16.1323  -11.7705   14.0640 O.3       3 ASP3        0.0000 
     68 O          14.1104  -12.2548   14.4850 O.2       2 ALA2        0.0000 
@<TRIPOS>BOND
@<TRIPOS>SUBSTRUCTURE
     1 SER1       36 GROUP   
     2 ALA2        1 GROUP   
     3 ASP3       53 GROUP   
     4 PHE5        9 GROUP   
     5 GLY6        4 GROUP   
     6 CUB7        8 GROUP   
@<TRIPOS>SET

