#    Name: 1ta2_176_1_INTS_M
#    Modification time : Tue Mar 25 04:39:00 2014

@<TRIPOS>MOLECULE
1ta2_176_1_INTS_M
   71     0     9     0     0
SMALL
NO_CHARGES


@<TRIPOS>ATOM
      1 CA         17.2850  -14.5620   26.4775 C.3       3 GLC5        0.0000 
      2 CA         17.7760  -15.9630   24.8830 C.3       9 GLL5        0.0000 
      3 CA         16.7940  -13.1610   28.0720 C.3       6 GLP5        0.0000 
      4 N          15.1680  -13.4395   24.3470 N.am      2 SEC2        0.0000 
      5 N          15.9140  -14.0630   23.2910 N.am      8 SEL2        0.0000 
      6 N          14.4220  -12.8160   25.4030 N.am      5 SEP2        0.0000 
      7 O          15.1975  -16.0665   24.3970 O.2       1 ALC1        0.0000 
      8 O          15.8660  -16.7580   23.5030 O.2       7 ALL1        0.0000 
      9 O          14.5290  -15.3750   25.2910 O.2       4 ALP1        0.0000 
     10 CA         17.3750  -12.3110   23.1920 C.3       3 GLC5        0.0000 
     11 CA         17.4520  -13.0160   21.1990 C.3       9 GLL5        0.0000 
     12 CA         17.2980  -11.6060   25.1850 C.3       6 GLP5        0.0000 
     13 O          16.0165  -10.7465   21.9600 O.2       1 ALC1        0.0000 
     14 O          15.2430  -11.8970   21.2410 O.2       7 ALL1        0.0000 
     15 O          16.7900   -9.5960   22.6790 O.2       4 ALP1        0.0000 
     16 CA         14.5020   -9.9740   19.4410 C.3       3 GLC5        0.0000 
     17 CA         13.8920  -11.6010   20.8080 C.3       9 GLL5        0.0000 
     18 CA         15.1120   -8.3470   18.0740 C.3       6 GLP5        0.0000 
     19 CA          9.7200  -13.9155   22.4315 C.3       3 GLC5        0.0000 
     20 CA         11.1370  -12.5980   23.3220 C.3       9 GLL5        0.0000 
     21 CA          8.3030  -15.2330   21.5410 C.3       6 GLP5        0.0000 
     22 CA         10.3925  -13.0890   20.7810 C.3       3 GLC5        0.0000 
     23 CA         12.0890  -13.8950   21.2070 C.3       9 GLL5        0.0000 
     24 CA          8.6960  -12.2830   20.3550 C.3       6 GLP5        0.0000 
     25 CA         11.5225  -13.5435   19.3190 C.3       3 GLC5        0.0000 
     26 CA         10.9560  -13.1920   17.4310 C.3       6 GLP5        0.0000 
     27 CA         10.1960  -14.5640   21.3740 C.3       3 GLC5        0.0000 
     28 CA         10.4645   -8.7960   23.7530 C.3       3 GLC5        0.0000 
     29 CA         11.9280   -9.0600   24.8550 C.3       9 GLL5        0.0000 
     30 CA          9.0010   -8.5320   22.6510 C.3       6 GLP5        0.0000 
     31 CA         12.1135   -8.0230   23.4085 C.3       3 GLC5        0.0000 
     32 CA         12.2990   -6.9860   21.9620 C.3       6 GLP5        0.0000 
     33 CA         13.9110  -10.0570   24.8100 C.3       3 GLC5        0.0000 
     34 CA         15.8940  -11.0540   24.7650 C.3       6 GLP5        0.0000 
     35 CA         11.5385   -9.4590   26.6510 C.3       3 GLC5        0.0000 
     36 CA         11.1490   -9.8580   28.4470 C.3       6 GLP5        0.0000 
     37 CA         11.0790   -7.2370   25.6740 C.3       3 GLC5        0.0000 
     38 CA         10.2300   -5.4140   26.4930 C.3       6 GLP5        0.0000 
     39 CA         22.6320  -13.3732   26.8803 C.3       3 GLC5        0.0000 
     40 CA         21.8120  -14.5240   25.3310 C.3       9 GLL5        0.0000 
     41 CA         23.9460  -12.4280   28.0000 C.3       6 GLP5        0.0000 
     42 CA         21.5929  -12.7858   24.6460 C.3       3 GLC5        0.0000 
     43 CA         20.8240  -14.1130   26.1900 C.3       9 GLL5        0.0000 
     44 CA         21.9470  -11.0400   23.7890 C.3       6 GLP5        0.0000 
     45 CA         20.4425  -15.5102   27.7010 C.3       3 GLC5        0.0000 
     46 CA         20.7060  -16.6830   29.2960 C.3       6 GLP5        0.0000 
     47 CA         18.4967  -13.2439   25.3680 C.3       3 GLC5        0.0000 
     48 CA         19.0323  -17.1382   28.4017 C.3       3 GLC5        0.0000 
     49 CA         17.3150  -18.1500   27.9110 C.3       9 GLL5        0.0000 
     50 CA         15.8631  -17.4509   28.1441 C.3       3 GLC5        0.0000 
     51 CA         14.3260  -16.9910   28.9130 C.3       6 GLP5        0.0000 
     52 CA         18.5243  -11.4320   19.6065 C.3       3 GLC5        0.0000 
     53 CA         19.0580   -9.8420   18.5580 C.3       6 GLP5        0.0000 
     54 CA         21.1103  -14.6917   20.5215 C.3       3 GLC5        0.0000 
     55 CA         19.6380  -13.8030   20.7460 C.3       9 GLL5        0.0000 
     56 CA         22.9800  -15.0080   20.0080 C.3       6 GLP5        0.0000 
     57 CA         19.6726  -12.1843   21.9492 C.3       3 GLC5        0.0000 
     58 CA         20.5310  -10.9560   23.1980 C.3       6 GLP5        0.0000 
     59 CA         18.7106  -15.1844   19.2551 C.3       3 GLC5        0.0000 
     60 CA         18.4580  -16.1870   17.6340 C.3       6 GLP5        0.0000 
     61 CA         14.6487  -11.3165   23.0787 C.3       3 GLC5        0.0000 
     62 CA         10.1437  -12.4333   21.5778 C.3       3 GLC5        0.0000 
     63 CA         12.0460  -12.5690   22.2790 C.3       9 GLL5        0.0000 
     64 CA         12.5092  -13.0267   24.4973 C.3       3 GLC5        0.0000 
     65 CA         13.4270  -13.4700   26.1940 C.3       6 GLP5        0.0000 
     66 CA         12.4698  -12.2260   25.1082 C.3       3 GLC5        0.0000 
     67 CA         11.9440  -10.4620   23.8820 C.3       9 GLL5        0.0000 
     68 CA         12.3430   -8.7320   22.6575 C.3       3 GLC5        0.0000 
     69 CA         14.1405  -10.7660   24.0590 C.3       3 GLC5        0.0000 
     70 CA         12.8300  -10.4940   22.8240 C.3       9 GLL5        0.0000 
     71 CA         10.5861   -9.6350   23.0371 C.3       3 GLC5        0.0000 
@<TRIPOS>BOND
@<TRIPOS>SUBSTRUCTURE
     1 ALC1        7 GROUP        1 X    ALC  0     ROOT ALC X 1
     2 SEC2        4 GROUP        1 X    SEC  0     **** SEC X 2
     3 GLC5        1 GROUP        1 X    GLC  0     **** GLC X 6
     4 ALP1        9 GROUP        1 Y    ALP  0     ROOT ALP Y 8
     5 SEP2        6 GROUP        1 Y    SEP  0     **** SEP Y 9
     6 GLP5        3 GROUP        1 Y    GLP  0     **** GLP Y 13
     7 ALL1        8 GROUP        1 Z    ALL  0     ROOT ALL Z 15
     8 SEL2        5 GROUP        1 Z    SEL  0     **** SEL Z 16
     9 GLL5        2 GROUP        1 Z    GLL  0     **** GLL Z 20
@<TRIPOS>SET

