#    Name: 1ta2_176_1_ligand
#    Modification time : Tue Mar 25 04:39:00 2014

@<TRIPOS>MOLECULE
1ta2_176_1_ligand
   62    65     1     0     0
SMALL
NO_CHARGES


@<TRIPOS>ATOM
      1 CD1        20.2020  -15.8250   24.1330 C.ar      1 176401      0.0000 
      2 CE1        21.4950  -15.3760   24.3010 C.ar      1 176401      0.0000 
      3 CZ1        21.8120  -14.5240   25.3310 C.ar      1 176401      0.0000 
      4 CE2        20.8240  -14.1130   26.1900 C.ar      1 176401      0.0000 
      5 CD2        19.5340  -14.5620   26.0220 C.ar      1 176401      0.0000 
      6 CG1        19.2120  -15.4260   24.9960 C.ar      1 176401      0.0000 
      7 CB0        17.7760  -15.9630   24.8830 C.3       1 176401      0.0000 
      8 CA0        17.1550  -16.1010   23.4550 C.3       1 176401      0.0000 
      9 C0         16.8700  -14.7370   22.8670 C.2       1 176401      0.0000 
     10 O0         15.9140  -14.0630   23.2910 O.2       1 176401      0.0000 
     11 N0         15.8660  -16.7580   23.5030 N.4       1 176401      0.0000 
     12 CG2        17.6640  -17.2060   25.7530 C.ar      1 176401      0.0000 
     13 CD3        17.8350  -18.4740   25.2130 C.ar      1 176401      0.0000 
     14 CE3        17.7410  -19.5790   26.0350 C.ar      1 176401      0.0000 
     15 CZ2        17.4820  -19.4190   27.3820 C.ar      1 176401      0.0000 
     16 CE4        17.3150  -18.1500   27.9110 C.ar      1 176401      0.0000 
     17 CD4        17.4020  -17.0370   27.1040 C.ar      1 176401      0.0000 
     18 N          17.6840  -14.2690   21.9030 N.am      1 176401      0.0000 
     19 CA         17.4520  -13.0160   21.1990 C.3       1 176401      0.0000 
     20 C          16.0260  -12.8260   20.6590 C.2       1 176401      0.0000 
     21 O          15.6730  -13.4810   19.6730 O.2       1 176401      0.0000 
     22 CB         18.5290  -13.0280   20.1110 C.3       1 176401      0.0000 
     23 CG         19.6380  -13.8030   20.7460 C.3       1 176401      0.0000 
     24 CD         18.8430  -14.9480   21.3240 C.3       1 176401      0.0000 
     25 N'         15.2430  -11.8970   21.2410 N.am      1 176401      0.0000 
     26 CA'        13.8920  -11.6010   20.8080 C.3       1 176401      0.0000 
     27 CB'        12.9150  -11.5570   21.9770 C.ar      1 176401      0.0000 
     28 CG'        12.0460  -12.5690   22.2790 C.ar      1 176401      0.0000 
     29 CD'        11.1370  -12.5980   23.3220 C.ar      1 176401      0.0000 
     30 CE'        11.0810  -11.5020   24.1630 C.ar      1 176401      0.0000 
     31 CDB        11.9440  -10.4620   23.8820 C.ar      1 176401      0.0000 
     32 CGB        12.8300  -10.4940   22.8240 C.ar      1 176401      0.0000 
     33 CL1        12.0890  -13.8950   21.2070 Cl        1 176401      0.0000 
     34 CL2        11.9280   -9.0600   24.8550 Cl        1 176401      0.0000 
     35 H          19.9797  -16.4663   23.3510 H         1 176401      0.0000 
     36 H          22.2339  -15.6859   23.6420 H         1 176401      0.0000 
     37 H          22.7800  -14.1980   25.4564 H         1 176401      0.0000 
     38 H          21.0471  -13.4654   26.9647 H         1 176401      0.0000 
     39 H          18.7912  -14.2466   26.6764 H         1 176401      0.0000 
     40 H          17.1307  -15.1793   25.4263 H         1 176401      0.0000 
     41 H          17.8323  -16.6173   22.8259 H         1 176401      0.0000 
     42 H          18.0293  -18.5845   24.2115 H         1 176401      0.0000 
     43 H          17.8643  -20.5256   25.6429 H         1 176401      0.0000 
     44 H          17.4125  -20.2445   27.9964 H         1 176401      0.0000 
     45 H          17.1231  -18.0403   28.9227 H         1 176401      0.0000 
     46 H          17.2758  -16.0978   27.4919 H         1 176401      0.0000 
     47 H          17.6997  -12.1855   21.8664 H         1 176401      0.0000 
     48 H          18.8337  -12.0324   19.9092 H         1 176401      0.0000 
     49 H          18.1576  -13.5346   19.2565 H         1 176401      0.0000 
     50 H          20.0817  -13.2474   21.5191 H         1 176401      0.0000 
     51 H          20.3041  -14.1602   20.0166 H         1 176401      0.0000 
     52 H          18.5525  -15.6077   20.5397 H         1 176401      0.0000 
     53 H          19.4204  -15.4353   22.0749 H         1 176401      0.0000 
     54 H          15.5932  -11.3332   22.0577 H         1 176401      0.0000 
     55 H          13.5321  -12.3596   20.0924 H         1 176401      0.0000 
     56 H          13.8479  -10.6273   20.2912 H         1 176401      0.0000 
     57 H          10.5296  -13.4003   23.4649 H         1 176401      0.0000 
     58 H          10.4419  -11.4653   24.9416 H         1 176401      0.0000 
     59 H          13.4579   -9.6647   22.6734 H         1 176401      0.0000 
     60 H          15.3907  -16.5808   24.3648 H         1 176401      0.0000 
     61 H          15.2637  -16.4485   22.7672 H         1 176401      0.0000 
     62 H          15.9514  -17.7503   23.4140 H         1 176401      0.0000 
@<TRIPOS>BOND
     1    2    1 ar   
     2    6    1 ar   
     3   35    1 1    
     4    3    2 ar   
     5   36    2 1    
     6    4    3 ar   
     7   37    3 1    
     8    5    4 ar   
     9   38    4 1    
    10    6    5 ar   
    11   39    5 1    
    12    7    6 1    
    13    8    7 1    
    14   12    7 1    
    15   40    7 1    
    16    9    8 1    
    17   11    8 1    
    18   41    8 1    
    19   10    9 2    
    20   18    9 am   
    21   60   11 1    
    22   61   11 1    
    23   62   11 1    
    24   13   12 ar   
    25   17   12 ar   
    26   14   13 ar   
    27   42   13 1    
    28   15   14 ar   
    29   43   14 1    
    30   16   15 ar   
    31   44   15 1    
    32   17   16 ar   
    33   45   16 1    
    34   46   17 1    
    35   19   18 1    
    36   24   18 1    
    37   20   19 1    
    38   22   19 1    
    39   47   19 1    
    40   21   20 2    
    41   25   20 am   
    42   23   22 1    
    43   48   22 1    
    44   49   22 1    
    45   24   23 1    
    46   50   23 1    
    47   51   23 1    
    48   52   24 1    
    49   53   24 1    
    50   26   25 1    
    51   54   25 1    
    52   27   26 1    
    53   55   26 1    
    54   56   26 1    
    55   28   27 ar   
    56   32   27 ar   
    57   29   28 ar   
    58   33   28 1    
    59   30   29 ar   
    60   57   29 1    
    61   31   30 ar   
    62   58   30 1    
    63   32   31 ar   
    64   34   31 1    
    65   59   32 1    
@<TRIPOS>SUBSTRUCTURE
     1 176401      1 GROUP   
@<TRIPOS>SET

