#    Name: 3akz_GSU_4_INTS_M
#    Modification time : Tue Mar 25 12:06:48 2014

@<TRIPOS>MOLECULE
3akz_GSU_4_INTS_M
   65     0    15     0     0
SMALL
NO_CHARGES


@<TRIPOS>ATOM
      1 CA         -1.4635   44.9450   58.7710 C.3       5 GLC5        0.0000 
      2 CA         -1.4000   47.0120   59.3200 C.3      15 GLL5        0.0000 
      3 CA         -1.5270   42.8780   58.2220 C.3      10 GLP5        0.0000 
      4 CA         -0.2645   48.3310   60.1095 C.3       5 GLC5        0.0000 
      5 CA          0.8710   49.6500   60.8990 C.3      10 GLP5        0.0000 
      6 CA         -2.3425   45.4250   60.4905 C.3       5 GLC5        0.0000 
      7 CA         -3.2850   43.8380   61.6610 C.3      10 GLP5        0.0000 
      8 OD1         4.7005   52.6235   49.7885 O.co2     3 ASC3        0.0000 
      9 OD1         5.3660   52.5000   50.9230 O.co2    13 ASL3        0.0000 
     10 OD1         4.0350   52.7470   48.6540 O.co2     8 ASP3        0.0000 
     11 O           4.7005   52.6235   49.7885 O.2       1 ALC1        0.0000 
     12 O           5.3660   52.5000   50.9230 O.2      11 ALL1        0.0000 
     13 O           4.0350   52.7470   48.6540 O.2       6 ALP1        0.0000 
     14 CA          3.6945   53.2780   53.9995 C.3       5 GLC5        0.0000 
     15 CA          4.4260   52.5150   52.0520 C.3      15 GLL5        0.0000 
     16 CA          2.9630   54.0410   55.9470 C.3      10 GLP5        0.0000 
     17 CA          2.0675   52.7435   49.9255 C.3       5 GLC5        0.0000 
     18 CA          3.0110   52.8200   51.5450 C.3      15 GLL5        0.0000 
     19 CA          1.1240   52.6670   48.3060 C.3      10 GLP5        0.0000 
     20 CA          2.6305   53.9075   54.2290 C.3       5 GLC5        0.0000 
     21 CA          2.2980   53.7740   52.5110 C.3      15 GLL5        0.0000 
     22 N           2.6345   56.3510   52.4545 N.am      2 SEC2        0.0000 
     23 N           1.7330   55.7750   51.3970 N.am     12 SEL2        0.0000 
     24 N           3.5360   56.9270   53.5120 N.am      7 SEP2        0.0000 
     25 NZ         -0.7610   55.2255   50.1410 N.4       4 LYC4        0.0000 
     26 NZ          0.2420   54.2990   51.4770 N.4      14 LYL4        0.0000 
     27 NZ         -1.7640   56.1520   48.8050 N.4       9 LYP4        0.0000 
     28 N           4.3140   52.3760   54.6170 N.am      2 SEC2        0.0000 
     29 N           4.5290   51.1190   53.9420 N.am     12 SEL2        0.0000 
     30 N           4.0990   53.6330   55.2920 N.am      7 SEP2        0.0000 
     31 O           3.4595   50.3400   50.6800 O.2       1 ALC1        0.0000 
     32 O           4.3580   50.0450   51.9840 O.2      11 ALL1        0.0000 
     33 O           2.5610   50.6350   49.3760 O.2       6 ALP1        0.0000 
     34 N           4.6190   47.4750   50.2330 N.am      2 SEC2        0.0000 
     35 N           4.4140   47.6080   51.5740 N.am     12 SEL2        0.0000 
     36 N           4.8240   47.3420   48.8920 N.am      7 SEP2        0.0000 
     37 CA          2.2150   48.2345   50.6060 C.3       5 GLC5        0.0000 
     38 CA          1.9390   48.5120   52.4240 C.3      15 GLL5        0.0000 
     39 CA          2.4910   47.9570   48.7880 C.3      10 GLP5        0.0000 
     40 CA         -0.5160   46.7040   55.2055 C.3       5 GLC5        0.0000 
     41 CA          0.3200   48.6920   55.4870 C.3      15 GLL5        0.0000 
     42 CA         -1.3520   44.7160   54.9240 C.3      10 GLP5        0.0000 
     43 CA         -1.8535   48.5015   55.5030 C.3       5 GLC5        0.0000 
     44 CA         -4.0270   48.3110   55.5190 C.3      10 GLP5        0.0000 
     45 CA         -0.5615   46.0740   56.3060 C.3       5 GLC5        0.0000 
     46 CA          0.2290   47.4320   57.6880 C.3      15 GLL5        0.0000 
     47 N          -2.2710   47.9230   57.5090 N.am      2 SEC2        0.0000 
     48 N          -1.0310   47.5690   58.1630 N.am     12 SEL2        0.0000 
     49 N          -3.5110   48.2770   56.8550 N.am      7 SEP2        0.0000 
     50 N          -0.8870   45.9955   61.4525 N.am      2 SEC2        0.0000 
     51 N          -0.5380   46.2970   60.0570 N.am     12 SEL2        0.0000 
     52 N          -1.2360   45.6940   62.8480 N.am      7 SEP2        0.0000 
     53 CA         -0.3925   44.4920   58.9430 C.3       5 GLC5        0.0000 
     54 CA          0.7420   46.1060   59.6640 C.3      15 GLL5        0.0000 
     55 CA          2.3605   44.9175   57.8460 C.3       5 GLC5        0.0000 
     56 CA          1.1770   46.6830   58.4360 C.3      15 GLL5        0.0000 
     57 CA          3.5440   43.1520   57.2560 C.3      10 GLP5        0.0000 
     58 CA         -0.0385   51.1080   56.6820 C.3       5 GLC5        0.0000 
     59 CA          1.0940   49.9840   55.2610 C.3      15 GLL5        0.0000 
     60 CA         -1.1710   52.2320   58.1030 C.3      10 GLP5        0.0000 
     61 CA          4.1001   54.5439   52.1544 C.3       5 GLC5        0.0000 
     62 CA          5.1920   55.8670   52.1540 C.3      10 GLP5        0.0000 
     63 CA         -0.2415   48.1120   51.9675 C.3       5 GLC5        0.0000 
     64 CA         -1.7760   47.4850   51.1560 C.3      10 GLP5        0.0000 
     65 CA          0.7968   48.1159   59.8810 C.3       5 GLC5        0.0000 
@<TRIPOS>BOND
@<TRIPOS>SUBSTRUCTURE
     1 ALC1       11 GROUP        1 X    ALC  0     ROOT ALC X 1
     2 SEC2       22 GROUP        1 X    SEC  0     **** SEC X 2
     3 ASC3        8 GROUP        1 X    ASC  0     **** ASC X 3
     4 LYC4       25 GROUP        1 X    LYC  0     **** LYC X 4
     5 GLC5        1 GROUP        1 X    GLC  0     **** GLC X 6
     6 ALP1       13 GROUP        1 Y    ALP  0     ROOT ALP Y 8
     7 SEP2       24 GROUP        1 Y    SEP  0     **** SEP Y 9
     8 ASP3       10 GROUP        1 Y    ASP  0     **** ASP Y 10
     9 LYP4       27 GROUP        1 Y    LYP  0     **** LYP Y 11
    10 GLP5        3 GROUP        1 Y    GLP  0     **** GLP Y 13
    11 ALL1       12 GROUP        1 Z    ALL  0     ROOT ALL Z 15
    12 SEL2       23 GROUP        1 Z    SEL  0     **** SEL Z 16
    13 ASL3        9 GROUP        1 Z    ASL  0     **** ASL Z 17
    14 LYL4       26 GROUP        1 Z    LYL  0     **** LYL Z 18
    15 GLL5        2 GROUP        1 Z    GLL  0     **** GLL Z 20
@<TRIPOS>SET

