#    Name: 3akz_GSU_4_ligand
#    Modification time : Tue Mar 25 12:06:48 2014

@<TRIPOS>MOLECULE
3akz_GSU_4_ligand
   53    55     1     0     0
SMALL
NO_CHARGES


@<TRIPOS>ATOM
      1 C2         -1.4000   47.0120   59.3200 C.ar      1 GSU1001     0.0000 
      2 S           4.3650   48.5220   52.6680 S.o2      1 GSU1001     0.0000 
      3 N           5.3660   52.5000   50.9230 N.4       1 GSU1001     0.0000 
      4 CA          4.4260   52.5150   52.0520 C.3       1 GSU1001     0.0000 
      5 CB          3.0110   52.8200   51.5450 C.3       1 GSU1001     0.0000 
      6 CG          2.2980   53.7740   52.5110 C.3       1 GSU1001     0.0000 
      7 CD          1.3640   54.6740   51.7450 C.2       1 GSU1001     0.0000 
      8 OE1         1.7330   55.7750   51.3970 O.co2     1 GSU1001     0.0000 
      9 OE2         0.2420   54.2990   51.4770 O.co2     1 GSU1001     0.0000 
     10 C           4.4430   51.1770   52.7310 C.2       1 GSU1001     0.0000 
     11 O           4.5290   51.1190   53.9420 O.2       1 GSU1001     0.0000 
     12 N10         4.3580   50.0450   51.9840 N.am      1 GSU1001     0.0000 
     13 O1S         5.3290   48.5670   53.7140 O.2       1 GSU1001     0.0000 
     14 O2S         4.4140   47.6080   51.5740 O.2       1 GSU1001     0.0000 
     15 O5'         3.0090   48.2950   53.3680 O.3       1 GSU1001     0.0000 
     16 C5'         1.9390   48.5120   52.4240 C.3       1 GSU1001     0.0000 
     17 C4'         0.6470   48.9660   53.1340 C.3       1 GSU1001     0.0000 
     18 O4'         0.3870   47.9960   54.2000 O.3       1 GSU1001     0.0000 
     19 C1'         0.3200   48.6920   55.4870 C.3       1 GSU1001     0.0000 
     20 N9          0.8950   47.8690   56.5700 N.pl3     1 GSU1001     0.0000 
     21 C4          0.2290   47.4320   57.6880 C.ar      1 GSU1001     0.0000 
     22 N3         -1.0310   47.5690   58.1630 N.ar      1 GSU1001     0.0000 
     23 N1         -0.5380   46.2970   60.0570 N.ar      1 GSU1001     0.0000 
     24 C6          0.7420   46.1060   59.6640 C.ar      1 GSU1001     0.0000 
     25 N6          1.6130   45.3650   60.4420 N.pl3     1 GSU1001     0.0000 
     26 C5          1.1770   46.6830   58.4360 C.ar      1 GSU1001     0.0000 
     27 N7          2.3390   46.7040   57.7450 N.2       1 GSU1001     0.0000 
     28 C8          2.1800   47.3960   56.6530 C.2       1 GSU1001     0.0000 
     29 C2'         1.0940   49.9840   55.2610 C.3       1 GSU1001     0.0000 
     30 O2'         0.7270   51.0190   56.1740 O.3       1 GSU1001     0.0000 
     31 C3'         0.8350   50.3620   53.7770 C.3       1 GSU1001     0.0000 
     32 O3'        -0.4060   51.0690   53.7430 O.3       1 GSU1001     0.0000 
     33 H          -2.3901   47.1362   59.6626 H         1 GSU1001     0.0000 
     34 H           4.7033   53.2750   52.7583 H         1 GSU1001     0.0000 
     35 H           2.4487   51.8952   51.4746 H         1 GSU1001     0.0000 
     36 H           3.0733   53.2823   50.5658 H         1 GSU1001     0.0000 
     37 H           3.0433   54.3693   53.0312 H         1 GSU1001     0.0000 
     38 H           1.7382   53.1880   53.2346 H         1 GSU1001     0.0000 
     39 H           4.2839   49.9877   50.9747 H         1 GSU1001     0.0000 
     40 H           1.7039   47.5950   51.8648 H         1 GSU1001     0.0000 
     41 H           2.2018   49.2865   51.6892 H         1 GSU1001     0.0000 
     42 H          -0.1436   48.9965   52.4402 H         1 GSU1001     0.0000 
     43 H          -0.7010   48.9525   55.6969 H         1 GSU1001     0.0000 
     44 H           2.5521   45.2943   60.1056 H         1 GSU1001     0.0000 
     45 H           1.2281   44.9642   61.2734 H         1 GSU1001     0.0000 
     46 H           2.8580   47.5758   55.9637 H         1 GSU1001     0.0000 
     47 H           2.1547   49.7338   55.3277 H         1 GSU1001     0.0000 
     48 H           1.6434   50.8285   53.3937 H         1 GSU1001     0.0000 
     49 H           6.1292   51.8741   51.0835 H         1 GSU1001     0.0000 
     50 H           4.9229   52.2104   50.0746 H         1 GSU1001     0.0000 
     51 H           5.7588   53.4041   50.7547 H         1 GSU1001     0.0000 
     52 H           1.5287   51.6145   56.2258 H         1 GSU1001     0.0000 
     53 H          -0.5802   51.3315   54.6921 H         1 GSU1001     0.0000 
@<TRIPOS>BOND
     1   22    1 ar   
     2   23    1 ar   
     3   33    1 1    
     4   12    2 1    
     5   13    2 2    
     6   14    2 2    
     7   15    2 1    
     8    4    3 1    
     9   49    3 1    
    10   50    3 1    
    11   51    3 1    
    12    5    4 1    
    13   10    4 1    
    14   34    4 1    
    15    6    5 1    
    16   35    5 1    
    17   36    5 1    
    18    7    6 1    
    19   37    6 1    
    20   38    6 1    
    21    8    7 ar   
    22    9    7 ar   
    23   11   10 2    
    24   12   10 am   
    25   39   12 1    
    26   16   15 1    
    27   17   16 1    
    28   40   16 1    
    29   41   16 1    
    30   18   17 1    
    31   31   17 1    
    32   42   17 1    
    33   19   18 1    
    34   20   19 1    
    35   29   19 1    
    36   43   19 1    
    37   21   20 1    
    38   28   20 1    
    39   22   21 ar   
    40   26   21 ar   
    41   24   23 ar   
    42   25   24 1    
    43   26   24 ar   
    44   44   25 1    
    45   45   25 1    
    46   27   26 1    
    47   28   27 2    
    48   46   28 1    
    49   30   29 1    
    50   31   29 1    
    51   47   29 1    
    52   52   30 1    
    53   32   31 1    
    54   48   31 1    
    55   53   32 1    
@<TRIPOS>SUBSTRUCTURE
     1 GSU1001     1 GROUP   
@<TRIPOS>SET

