#    Name: 3vw8_DF6_1_INTS_M
#    Modification time : Tue Mar 25 01:45:55 2014

@<TRIPOS>MOLECULE
3vw8_DF6_1_INTS_M
   97     0     9     0     0
SMALL
NO_CHARGES


@<TRIPOS>ATOM
      1 CA         13.6770  -21.1590  -30.7755 C.3       3 GLC5        0.0000 
      2 CA         12.0250  -19.8520  -30.2990 C.3       9 GLL5        0.0000 
      3 CA         15.3290  -22.4660  -31.2520 C.3       6 GLP5        0.0000 
      4 CA         12.6965  -20.5120  -28.6740 C.3       3 GLC5        0.0000 
      5 CA         13.3680  -21.1720  -27.0490 C.3       6 GLP5        0.0000 
      6 CA          9.6935  -15.1740  -26.3595 C.3       3 GLC5        0.0000 
      7 CA          9.3940  -15.3560  -28.4810 C.3       9 GLL5        0.0000 
      8 CA          9.9930  -14.9920  -24.2380 C.3       6 GLP5        0.0000 
      9 CA          7.3645  -14.5425  -28.4430 C.3       3 GLC5        0.0000 
     10 CA          5.3350  -13.7290  -28.4050 C.3       6 GLP5        0.0000 
     11 CA         13.5160  -11.3660  -21.8760 C.3       3 GLC5        0.0000 
     12 CA         11.8090  -10.8020  -22.6820 C.3       9 GLL5        0.0000 
     13 CA         15.2230  -11.9300  -21.0700 C.3       6 GLP5        0.0000 
     14 N           9.0925  -12.5515  -25.5325 N.am      2 SEC2        0.0000 
     15 N          10.1590  -12.1010  -26.4250 N.am      8 SEL2        0.0000 
     16 N           8.0260  -13.0020  -24.6400 N.am      5 SEP2        0.0000 
     17 CA         11.4120  -10.3070  -20.0655 C.3       3 GLC5        0.0000 
     18 CA         10.6860  -10.4720  -21.9370 C.3       9 GLL5        0.0000 
     19 CA         12.1380  -10.1420  -18.1940 C.3       6 GLP5        0.0000 
     20 CA         10.4890  -11.8805  -20.4485 C.3       3 GLC5        0.0000 
     21 CA         10.2920  -13.2890  -18.9600 C.3       6 GLP5        0.0000 
     22 O          10.8735   -9.5490  -28.5995 O.2       1 ALC1        0.0000 
     23 O          10.5540  -10.9040  -28.3160 O.2       7 ALL1        0.0000 
     24 O          11.1930   -8.1940  -28.8830 O.2       4 ALP1        0.0000 
     25 CA          9.2315  -12.1105  -32.0815 C.3       3 GLC5        0.0000 
     26 CA         10.5070  -11.6270  -30.8130 C.3       9 GLL5        0.0000 
     27 CA          7.9560  -12.5940  -33.3500 C.3       6 GLP5        0.0000 
     28 CA         11.7100   -9.8600  -30.9375 C.3       3 GLC5        0.0000 
     29 CA         12.9130   -8.0930  -31.0620 C.3       6 GLP5        0.0000 
     30 CA         11.8845  -11.3900  -32.1810 C.3       3 GLC5        0.0000 
     31 CA         13.2620  -11.1530  -33.5490 C.3       6 GLP5        0.0000 
     32 CA          8.8965  -18.0080  -27.5555 C.3       3 GLC5        0.0000 
     33 CA          9.0950  -16.6030  -28.9890 C.3       9 GLL5        0.0000 
     34 CA          8.6980  -19.4130  -26.1220 C.3       6 GLP5        0.0000 
     35 CA          8.1330  -16.5485  -32.7445 C.3       3 GLC5        0.0000 
     36 CA          9.4240  -15.7900  -31.2100 C.3       9 GLL5        0.0000 
     37 CA          6.8420  -17.3070  -34.2790 C.3       6 GLP5        0.0000 
     38 N          12.7985  -22.0660  -29.8390 N.am      2 SEC2        0.0000 
     39 N          11.6520  -21.1390  -30.3340 N.am      8 SEL2        0.0000 
     40 N          13.9450  -22.9930  -29.3440 N.am      5 SEP2        0.0000 
     41 CA          6.4270  -22.5485  -32.3775 C.3       3 GLC5        0.0000 
     42 CA          5.2620  -21.9140  -30.9290 C.3       9 GLL5        0.0000 
     43 CA          7.5920  -23.1830  -33.8260 C.3       6 GLP5        0.0000 
     44 CA          5.4760  -20.0325  -30.2785 C.3       3 GLC5        0.0000 
     45 CA          5.6900  -18.1510  -29.6280 C.3       6 GLP5        0.0000 
     46 CA          8.4220  -24.4030  -32.1895 C.3       3 GLC5        0.0000 
     47 CA          9.2520  -25.6230  -30.5530 C.3       9 GLL5        0.0000 
     48 CA         10.7270  -25.9435  -31.5670 C.3       3 GLC5        0.0000 
     49 CA         12.2020  -26.2640  -32.5810 C.3       6 GLP5        0.0000 
     50 CA          8.8750  -25.0585  -28.8010 C.3       3 GLC5        0.0000 
     51 CA          8.4980  -24.4940  -27.0490 C.3       6 GLP5        0.0000 
     52 CA          8.4760  -23.1020  -32.2228 C.3       3 GLC5        0.0000 
     53 CA          8.6980  -23.2170  -30.7050 C.3       9 GLL5        0.0000 
     54 CA         11.4415  -22.3217  -28.9230 C.3       3 GLC5        0.0000 
     55 CA         10.0220  -22.8250  -30.5340 C.3       9 GLL5        0.0000 
     56 CA         12.6930  -22.4960  -27.3210 C.3       6 GLP5        0.0000 
     57 CA         12.9523  -17.8350  -30.8708 C.3       3 GLC5        0.0000 
     58 CA         14.3490  -16.3240  -31.3670 C.3       6 GLP5        0.0000 
     59 CA         10.4413  -19.9210  -28.8867 C.3       3 GLC5        0.0000 
     60 CA         11.0860  -18.8400  -30.4500 C.3       9 GLL5        0.0000 
     61 CA          9.3270  -20.4960  -27.3990 C.3       6 GLP5        0.0000 
     62 CA         11.3918  -14.6340  -29.5295 C.3       3 GLC5        0.0000 
     63 CA         13.2310  -14.4440  -30.1610 C.3       6 GLP5        0.0000 
     64 CA          8.8833  -10.4960  -20.8330 C.3       3 GLC5        0.0000 
     65 CA          9.5690   -9.9320  -22.5590 C.3       9 GLL5        0.0000 
     66 CA          7.6390  -10.7900  -19.4180 C.3       6 GLP5        0.0000 
     67 CA          8.2214  -10.4731  -24.0648 C.3       3 GLC5        0.0000 
     68 CA          6.5870  -11.0380  -24.6950 C.3       6 GLP5        0.0000 
     69 CA          8.7658  -13.8740  -32.1520 C.3       3 GLC5        0.0000 
     70 CA          9.7270  -14.5180  -30.6980 C.3       9 GLL5        0.0000 
     71 CA         12.9999  -10.2739  -25.4826 C.3       3 GLC5        0.0000 
     72 CA         10.7250   -9.8040  -26.1770 C.3       9 GLL5        0.0000 
     73 CA         14.7320  -10.2880  -26.2240 C.3       6 GLP5        0.0000 
     74 CA         10.7097   -8.2239  -24.9648 C.3       3 GLC5        0.0000 
     75 CA         10.9960   -6.4600  -25.5910 C.3       6 GLP5        0.0000 
     76 CA         12.2265  -11.3598  -29.3908 C.3       3 GLC5        0.0000 
     77 CA         10.3250  -11.9160  -29.1600 C.3       9 GLL5        0.0000 
     78 CA         14.0370  -10.9480  -28.7950 C.3       6 GLP5        0.0000 
     79 CA         11.8235  -13.1077  -30.0738 C.3       3 GLC5        0.0000 
     80 CA         10.9024  -15.4902  -27.9768 C.3       3 GLC5        0.0000 
     81 CA         12.4810  -15.2670  -27.0100 C.3       6 GLP5        0.0000 
     82 CA         10.9456  -15.4698  -31.5755 C.3       3 GLC5        0.0000 
     83 CA         12.5490  -14.9440  -32.4980 C.3       6 GLP5        0.0000 
     84 CA          9.4420  -20.1530  -29.0290 C.3       3 GLC5        0.0000 
     85 CA          9.7410  -19.1330  -30.6420 C.3       9 GLL5        0.0000 
     86 CA          7.7380  -22.3760  -32.3415 C.3       3 GLC5        0.0000 
     87 CA          8.0480  -20.8860  -30.8540 C.3       9 GLL5        0.0000 
     88 CA          8.7332  -19.6755  -32.7237 C.3       3 GLC5        0.0000 
     89 CA          8.6640  -19.0030  -34.6910 C.3       6 GLP5        0.0000 
     90 CA          8.5190  -23.5652  -28.8944 C.3       3 GLC5        0.0000 
     91 CA          7.7200  -22.2520  -30.8600 C.3       9 GLL5        0.0000 
     92 CA         11.4677  -19.6944  -32.0339 C.3       3 GLC5        0.0000 
     93 CA         12.2560  -19.6880  -33.5710 C.3       6 GLP5        0.0000 
     94 CA         10.2033  -12.0917  -23.2407 C.3       3 GLC5        0.0000 
     95 CA         11.8200  -10.5910  -24.0520 C.3       9 GLL5        0.0000 
     96 CA          9.7120  -13.9230  -23.1730 C.3       6 GLP5        0.0000 
     97 CA          8.9955  -21.3108  -29.0675 C.3       3 GLC5        0.0000 
@<TRIPOS>BOND
@<TRIPOS>SUBSTRUCTURE
     1 ALC1       22 GROUP        1 X    ALC  0     ROOT ALC X 1
     2 SEC2       14 GROUP        1 X    SEC  0     **** SEC X 2
     3 GLC5        1 GROUP        1 X    GLC  0     **** GLC X 6
     4 ALP1       24 GROUP        1 Y    ALP  0     ROOT ALP Y 8
     5 SEP2       16 GROUP        1 Y    SEP  0     **** SEP Y 9
     6 GLP5        3 GROUP        1 Y    GLP  0     **** GLP Y 13
     7 ALL1       23 GROUP        1 Z    ALL  0     ROOT ALL Z 15
     8 SEL2       15 GROUP        1 Z    SEL  0     **** SEL Z 16
     9 GLL5        2 GROUP        1 Z    GLL  0     **** GLL Z 20
@<TRIPOS>SET

