#    Name: 3vw8_DF6_1_ligand
#    Modification time : Tue Mar 25 01:45:56 2014

@<TRIPOS>MOLECULE
3vw8_DF6_1_ligand
   57    60     1     0     0
SMALL
NO_CHARGES


@<TRIPOS>ATOM
      1 C4         10.0220  -22.8250  -30.5340 C.ar      1 DF61401     0.0000 
      2 C5         10.3580  -21.4700  -30.5160 C.ar      1 DF61401     0.0000 
      3 C7         12.0250  -19.8520  -30.2990 C.ar      1 DF61401     0.0000 
      4 C8         11.0860  -18.8400  -30.4500 C.ar      1 DF61401     0.0000 
      5 C13         9.3940  -15.3560  -28.4810 C.ar      1 DF61401     0.0000 
      6 C21        10.7250   -9.8040  -26.1770 C.3       1 DF61401     0.0000 
      7 C22        10.7060  -10.0530  -24.6840 C.ar      1 DF61401     0.0000 
      8 C24         9.5690   -9.9320  -22.5590 C.ar      1 DF61401     0.0000 
      9 C26        11.8090  -10.8020  -22.6820 C.ar      1 DF61401     0.0000 
     10 C28         9.7270  -14.5180  -30.6980 C.ar      1 DF61401     0.0000 
     11 O20        10.1590  -12.1010  -26.4250 O.2       1 DF61401     0.0000 
     12 C19        10.4430  -11.0480  -26.9880 C.2       1 DF61401     0.0000 
     13 C27        11.8200  -10.5910  -24.0520 C.ar      1 DF61401     0.0000 
     14 C25        10.6860  -10.4720  -21.9370 C.ar      1 DF61401     0.0000 
     15 C23         9.5790   -9.7160  -23.9360 C.ar      1 DF61401     0.0000 
     16 N18        10.5540  -10.9040  -28.3160 N.am      1 DF61401     0.0000 
     17 C16        10.3250  -11.9160  -29.1600 C.2       1 DF61401     0.0000 
     18 S17        10.5070  -11.6270  -30.8130 S.2       1 DF61401     0.0000 
     19 N15         9.9810  -13.1170  -28.6660 N.am      1 DF61401     0.0000 
     20 C14         9.7110  -14.2920  -29.3150 C.ar      1 DF61401     0.0000 
     21 C12         9.0950  -16.6030  -28.9890 C.ar      1 DF61401     0.0000 
     22 C29         9.4240  -15.7900  -31.2100 C.ar      1 DF61401     0.0000 
     23 C11         9.1090  -16.8370  -30.3520 C.ar      1 DF61401     0.0000 
     24 O10         8.8190  -18.1100  -30.8000 O.3       1 DF61401     0.0000 
     25 C9          9.7410  -19.1330  -30.6420 C.ar      1 DF61401     0.0000 
     26 N6         11.6520  -21.1390  -30.3340 N.ar      1 DF61401     0.0000 
     27 C30         9.3730  -20.4870  -30.6760 C.ar      1 DF61401     0.0000 
     28 C31         8.0480  -20.8860  -30.8540 C.ar      1 DF61401     0.0000 
     29 C32         7.7200  -22.2520  -30.8600 C.ar      1 DF61401     0.0000 
     30 O33         6.4400  -22.7070  -31.0420 O.3       1 DF61401     0.0000 
     31 C34         5.2620  -21.9140  -30.9290 C.3       1 DF61401     0.0000 
     32 C3          8.6980  -23.2170  -30.7050 C.ar      1 DF61401     0.0000 
     33 O2          8.3200  -24.5530  -30.7340 O.3       1 DF61401     0.0000 
     34 C1          9.2520  -25.6230  -30.5530 C.3       1 DF61401     0.0000 
     35 H          10.7581  -23.5351  -30.4202 H         1 DF61401     0.0000 
     36 H          13.0219  -19.5866  -30.1585 H         1 DF61401     0.0000 
     37 H          11.3924  -17.8508  -30.4191 H         1 DF61401     0.0000 
     38 H           9.3829  -15.2054  -27.4517 H         1 DF61401     0.0000 
     39 H          11.7098   -9.4013  -26.4627 H         1 DF61401     0.0000 
     40 H           9.9767   -9.0340  -26.4234 H         1 DF61401     0.0000 
     41 H           8.7361   -9.6913  -22.0086 H         1 DF61401     0.0000 
     42 H          12.6349  -11.2041  -22.2162 H         1 DF61401     0.0000 
     43 H           9.9607  -13.7525  -31.3395 H         1 DF61401     0.0000 
     44 H          12.6556  -10.8333  -24.6039 H         1 DF61401     0.0000 
     45 H          10.6811  -10.6284  -20.9182 H         1 DF61401     0.0000 
     46 H           8.7578   -9.3094  -24.3985 H         1 DF61401     0.0000 
     47 H          10.8314   -9.9600  -28.7076 H         1 DF61401     0.0000 
     48 H           9.9008  -13.1751  -27.5604 H         1 DF61401     0.0000 
     49 H           8.8560  -17.3775  -28.3408 H         1 DF61401     0.0000 
     50 H           9.4370  -15.9414  -32.2278 H         1 DF61401     0.0000 
     51 H           7.3103  -20.1854  -30.9808 H         1 DF61401     0.0000 
     52 H           5.1678  -21.5169  -30.0161 H         1 DF61401     0.0000 
     53 H           5.2613  -21.1551  -31.5802 H         1 DF61401     0.0000 
     54 H           4.4356  -22.4497  -31.1023 H         1 DF61401     0.0000 
     55 H           9.9689  -25.6130  -31.2501 H         1 DF61401     0.0000 
     56 H           9.7070  -25.5728  -29.6639 H         1 DF61401     0.0000 
     57 H           8.8060  -26.5166  -30.6040 H         1 DF61401     0.0000 
@<TRIPOS>BOND
     1    2    1 ar   
     2   32    1 ar   
     3   35    1 1    
     4   26    2 ar   
     5   27    2 ar   
     6    4    3 ar   
     7   26    3 ar   
     8   36    3 1    
     9   25    4 ar   
    10   37    4 1    
    11   20    5 ar   
    12   21    5 ar   
    13   38    5 1    
    14    7    6 1    
    15   12    6 1    
    16   39    6 1    
    17   40    6 1    
    18   13    7 ar   
    19   15    7 ar   
    20   14    8 ar   
    21   15    8 ar   
    22   41    8 1    
    23   13    9 ar   
    24   14    9 ar   
    25   42    9 1    
    26   20   10 ar   
    27   22   10 ar   
    28   43   10 1    
    29   12   11 2    
    30   16   12 1    
    31   44   13 1    
    32   45   14 1    
    33   46   15 1    
    34   17   16 1    
    35   47   16 1    
    36   18   17 2    
    37   19   17 1    
    38   20   19 1    
    39   48   19 1    
    40   23   21 ar   
    41   49   21 1    
    42   23   22 ar   
    43   50   22 1    
    44   24   23 1    
    45   25   24 1    
    46   27   25 ar   
    47   28   27 ar   
    48   29   28 ar   
    49   51   28 1    
    50   30   29 1    
    51   32   29 ar   
    52   31   30 1    
    53   52   31 1    
    54   53   31 1    
    55   54   31 1    
    56   33   32 1    
    57   34   33 1    
    58   55   34 1    
    59   56   34 1    
    60   57   34 1    
@<TRIPOS>SUBSTRUCTURE
     1 DF61401     1 GROUP   
@<TRIPOS>SET

