#    Name: 3qlw_N22_1_INTS_M
#    Modification time : Mon Apr  7 19:43:01 2014

@<TRIPOS>MOLECULE
3qlw_N22_1_INTS_M
   65     0     9     0     0
SMALL
NO_CHARGES


@<TRIPOS>ATOM
      1 CA         19.0355   48.8770   -3.8555 C.3       3 GLC5        0.0000 
      2 CA         17.9830   47.6530   -4.5010 C.3       9 GLL5        0.0000 
      3 CA         20.0880   50.1010   -3.2100 C.3       6 GLP5        0.0000 
      4 CA         16.9040   48.2155   -6.3470 C.3       3 GLC5        0.0000 
      5 CA         15.8250   48.7780   -8.1930 C.3       6 GLP5        0.0000 
      6 N          18.3515   44.5900   -5.5325 N.am      2 SEC2        0.0000 
      7 N          18.0090   44.3810   -4.2260 N.am      8 SEL2        0.0000 
      8 N          18.6940   44.7990   -6.8390 N.am      5 SEP2        0.0000 
      9 CA         17.9325   41.4955   -3.0425 C.3       3 GLC5        0.0000 
     10 CA         18.5420   43.2470   -3.6080 C.3       9 GLL5        0.0000 
     11 CA         17.3230   39.7440   -2.4770 C.3       6 GLP5        0.0000 
     12 CA         19.9020   42.5225   -2.4375 C.3       3 GLC5        0.0000 
     13 CA         21.2620   41.7980   -1.2670 C.3       6 GLP5        0.0000 
     14 CA         20.4575   43.7455   -4.4090 C.3       3 GLC5        0.0000 
     15 CA         22.3730   44.2440   -5.2100 C.3       6 GLP5        0.0000 
     16 CA         16.5900   43.3240   -4.5345 C.3       3 GLC5        0.0000 
     17 CA         14.6380   43.4010   -5.4610 C.3       6 GLP5        0.0000 
     18 O          19.0525   42.4490   -5.6485 O.2       1 ALC1        0.0000 
     19 O          19.0590   42.2620   -4.3270 O.2       7 ALL1        0.0000 
     20 O          19.0460   42.6360   -6.9700 O.2       4 ALP1        0.0000 
     21 CA         19.6205   42.9875   -1.3595 C.3       3 GLC5        0.0000 
     22 CA         17.9790   44.1770   -1.4520 C.3       9 GLL5        0.0000 
     23 O          18.5095   42.7175    0.1545 O.2       1 ALC1        0.0000 
     24 O          17.9760   44.0540   -0.1280 O.2       7 ALL1        0.0000 
     25 O          19.0430   41.3810    0.4370 O.2       4 ALP1        0.0000 
     26 O          17.8250   44.6235    1.1430 O.2       1 ALC1        0.0000 
     27 O          17.6740   45.1930    2.4140 O.2       4 ALP1        0.0000 
     28 CA         15.7405   44.8815   -1.4555 C.3       3 GLC5        0.0000 
     29 CA         16.8940   46.3420   -1.2440 C.3       9 GLL5        0.0000 
     30 CA         14.5870   43.4210   -1.6670 C.3       6 GLP5        0.0000 
     31 CA         15.0240   45.7910   -0.9545 C.3       3 GLC5        0.0000 
     32 CA         16.4330   47.2030   -0.5030 C.3       9 GLL5        0.0000 
     33 CA         13.6150   44.3790   -1.4060 C.3       6 GLP5        0.0000 
     34 CA         16.1330   48.7325    2.1760 C.3       3 GLC5        0.0000 
     35 CA         15.8730   48.2480    0.3670 C.3       9 GLL5        0.0000 
     36 CA         16.3930   49.2170    3.9850 C.3       6 GLP5        0.0000 
     37 CA         14.6280   46.8860    1.4450 C.3       3 GLC5        0.0000 
     38 CA         13.3830   45.5240    2.5230 C.3       6 GLP5        0.0000 
     39 CA         17.7285   47.9275    1.1310 C.3       3 GLC5        0.0000 
     40 CA         19.5840   47.6070    1.8950 C.3       6 GLP5        0.0000 
     41 CA         11.5055   49.1635   -1.4760 C.3       3 GLC5        0.0000 
     42 CA         13.5320   49.8310   -2.1600 C.3       9 GLL5        0.0000 
     43 CA          9.4790   48.4960   -0.7920 C.3       6 GLP5        0.0000 
     44 CA         13.1775   48.4960   -6.2540 C.3       3 GLC5        0.0000 
     45 CA         13.0020   48.6800   -4.1320 C.3       9 GLL5        0.0000 
     46 CA         13.3530   48.3120   -8.3760 C.3       6 GLP5        0.0000 
     47 CA         13.1535   46.6895   -3.9505 C.3       3 GLC5        0.0000 
     48 CA         13.3050   44.6990   -3.7690 C.3       6 GLP5        0.0000 
     49 CA         17.7600   50.4160   -0.9540 C.3       3 GLC5        0.0000 
     50 CA         15.6000   50.6880   -0.4760 C.3       9 GLL5        0.0000 
     51 CA         19.9200   50.1440   -1.4320 C.3       6 GLP5        0.0000 
     52 CA         18.5685   51.2515   -0.6865 C.3       3 GLC5        0.0000 
     53 CA         17.2170   52.3590    0.0590 C.3       9 GLL5        0.0000 
     54 CA         16.9705   53.5995    1.6290 C.3       3 GLC5        0.0000 
     55 CA         16.7240   54.8400    3.1990 C.3       6 GLP5        0.0000 
     56 CA         15.8157   44.7948   -4.3033 C.3       3 GLC5        0.0000 
     57 CA         16.8940   46.6160   -4.2470 C.3       9 GLL5        0.0000 
     58 CA         14.2770   43.7370   -4.0420 C.3       6 GLP5        0.0000 
     59 CA         18.3377   46.8338   -0.0497 C.3       3 GLC5        0.0000 
     60 CA         20.0120   46.8950    0.7740 C.3       6 GLP5        0.0000 
     61 CA         13.4160   53.0280   -1.5622 C.3       3 GLC5        0.0000 
     62 CA         14.9350   51.6020   -1.3040 C.3       9 GLL5        0.0000 
     63 CA         12.4130   54.6670   -1.4000 C.3       6 GLP5        0.0000 
     64 CA         13.6479   50.9803    0.4349 C.3       3 GLC5        0.0000 
     65 CA         12.5100   51.3110    2.0780 C.3       6 GLP5        0.0000 
@<TRIPOS>BOND
@<TRIPOS>SUBSTRUCTURE
     1 ALC1       18 GROUP        1 X    ALC  0     ROOT ALC X 1
     2 SEC2        6 GROUP        1 X    SEC  0     **** SEC X 2
     3 GLC5        1 GROUP        1 X    GLC  0     **** GLC X 6
     4 ALP1       20 GROUP        1 Y    ALP  0     ROOT ALP Y 8
     5 SEP2        8 GROUP        1 Y    SEP  0     **** SEP Y 9
     6 GLP5        3 GROUP        1 Y    GLP  0     **** GLP Y 13
     7 ALL1       19 GROUP        1 Z    ALL  0     ROOT ALL Z 15
     8 SEL2        7 GROUP        1 Z    SEL  0     **** SEL Z 16
     9 GLL5        2 GROUP        1 Z    GLL  0     **** GLL Z 20
@<TRIPOS>SET

