#    Name: 3qlw_N22_1_ligand
#    Modification time : Mon Apr  7 19:43:01 2014

@<TRIPOS>MOLECULE
3qlw_N22_1_ligand
   43    44     1     0     0
SMALL
NO_CHARGES


@<TRIPOS>ATOM
      1 C8         17.9830   47.6530   -4.5010 C.3       1 N22194      0.0000 
      2 C7         16.8940   46.6160   -4.2470 C.3       1 N22194      0.0000 
      3 C5         17.4540   45.4250   -3.4630 C.ar      1 N22194      0.0000 
      4 N4         18.0090   44.3810   -4.2260 N.ar      1 N22194      0.0000 
      5 C3         18.5420   43.2470   -3.6080 C.ar      1 N22194      0.0000 
      6 N8         19.0590   42.2620   -4.3270 N.pl3     1 N22194      0.0000 
      7 N2         18.5240   43.1510   -2.2200 N.ar      1 N22194      0.0000 
      8 C1         17.9790   44.1770   -1.4520 C.ar      1 N22194      0.0000 
      9 N7         17.9760   44.0540   -0.1280 N.pl3     1 N22194      0.0000 
     10 C6         17.4460   45.3100   -2.0690 C.ar      1 N22194      0.0000 
     11 C9         16.8940   46.3420   -1.2440 C.1       1 N22194      0.0000 
     12 C10        16.4330   47.2030   -0.5030 C.1       1 N22194      0.0000 
     13 C11        15.8730   48.2480    0.3670 C.3       1 N22194      0.0000 
     14 C13        15.2210   49.3380   -0.4870 C.ar      1 N22194      0.0000 
     15 C18        14.1890   48.9270   -1.3290 C.ar      1 N22194      0.0000 
     16 C17        13.5320   49.8310   -2.1600 C.ar      1 N22194      0.0000 
     17 O2         12.5210   49.4000   -2.9720 O.3       1 N22194      0.0000 
     18 C4         13.0020   48.6800   -4.1320 C.3       1 N22194      0.0000 
     19 C16        13.9030   51.1760   -2.1450 C.ar      1 N22194      0.0000 
     20 C15        14.9350   51.6020   -1.3040 C.ar      1 N22194      0.0000 
     21 C14        15.6000   50.6880   -0.4760 C.ar      1 N22194      0.0000 
     22 O10        16.6130   51.0880    0.3650 O.3       1 N22194      0.0000 
     23 C2         17.2170   52.3590    0.0590 C.3       1 N22194      0.0000 
     24 H          16.5012   46.2637   -5.1984 H         1 N22194      0.0000 
     25 H          16.0874   47.0711   -3.6763 H         1 N22194      0.0000 
     26 H          18.9997   42.3640   -5.3200 H         1 N22194      0.0000 
     27 H          19.4618   41.5055   -3.8117 H         1 N22194      0.0000 
     28 H          18.4055   43.2285    0.2382 H         1 N22194      0.0000 
     29 H          17.5445   44.7981    0.3821 H         1 N22194      0.0000 
     30 H          16.6549   48.7075    0.9728 H         1 N22194      0.0000 
     31 H          15.1149   47.8328    1.0322 H         1 N22194      0.0000 
     32 H          13.9059   47.9305   -1.3364 H         1 N22194      0.0000 
     33 H          13.4213   51.8500   -2.7480 H         1 N22194      0.0000 
     34 H          15.2093   52.5933   -1.2918 H         1 N22194      0.0000 
     35 H          18.3646   48.0076   -3.6474 H         1 N22194      0.0000 
     36 H          18.7438   47.2716   -5.0260 H         1 N22194      0.0000 
     37 H          17.6362   48.4374   -5.0152 H         1 N22194      0.0000 
     38 H          13.5980   49.2472   -4.7004 H         1 N22194      0.0000 
     39 H          13.5276   47.8693   -3.8743 H         1 N22194      0.0000 
     40 H          12.2506   48.3693   -4.7142 H         1 N22194      0.0000 
     41 H          17.9411   52.5920    0.7081 H         1 N22194      0.0000 
     42 H          17.6276   52.3651   -0.8528 H         1 N22194      0.0000 
     43 H          16.5496   53.1032    0.0849 H         1 N22194      0.0000 
@<TRIPOS>BOND
     1    2    1 1    
     2   35    1 1    
     3   36    1 1    
     4   37    1 1    
     5    3    2 1    
     6   24    2 1    
     7   25    2 1    
     8    4    3 ar   
     9   10    3 ar   
    10    5    4 ar   
    11    6    5 1    
    12    7    5 ar   
    13   26    6 1    
    14   27    6 1    
    15    8    7 ar   
    16    9    8 1    
    17   10    8 ar   
    18   28    9 1    
    19   29    9 1    
    20   11   10 1    
    21   12   11 3    
    22   13   12 1    
    23   14   13 1    
    24   30   13 1    
    25   31   13 1    
    26   15   14 ar   
    27   21   14 ar   
    28   16   15 ar   
    29   32   15 1    
    30   17   16 1    
    31   19   16 ar   
    32   18   17 1    
    33   38   18 1    
    34   39   18 1    
    35   40   18 1    
    36   20   19 ar   
    37   33   19 1    
    38   21   20 ar   
    39   34   20 1    
    40   22   21 1    
    41   23   22 1    
    42   41   23 1    
    43   42   23 1    
    44   43   23 1    
@<TRIPOS>SUBSTRUCTURE
     1 N22194      1 GROUP   
@<TRIPOS>SET

