#    Name: 3ZOV_1_CAVITY_N1_ALL.mol2
#    Modification time : Tue Mar 11 15:17:29 2014

@<TRIPOS>MOLECULE
3ZOV_1_CAVITY_N1_ALL.mol2
  132     0     6     0     0
SMALL
NO_CHARGES


@<TRIPOS>ATOM
      1 N         -21.5394   43.0713   96.9842 N.2       2 ALA2        0.0000 
      2 N         -21.1019   41.7251   97.4805 N.2       2 ALA2        0.0000 
      3 N         -22.4859   42.4106   96.0263 N.2       2 ALA2        0.0000 
      4 N         -22.0483   41.0644   96.5226 N.2       2 ALA2        0.0000 
      5 CZ        -21.6108   39.7182   97.0188 C.ar      4 PHE5        0.0000 
      6 CA        -23.8699   43.0961   94.5721 C.3       5 GLY6        0.0000 
      7 N         -23.4323   41.7499   95.0684 N.2       2 ALA2        0.0000 
      8 DU        -19.5146   43.6984   96.9000 H         6 CUB7        0.0000 
      9 N         -19.0771   42.3522   97.3963 N.2       2 ALA2        0.0000 
     10 CZ        -18.6396   41.0059   97.8925 C.ar      4 PHE5        0.0000 
     11 DU        -20.4611   43.0376   95.9421 H         6 CUB7        0.0000 
     12 DU        -20.0235   41.6914   96.4383 H         6 CUB7        0.0000 
     13 CZ        -19.5860   40.3452   96.9346 C.ar      4 PHE5        0.0000 
     14 DU        -21.4075   42.3769   94.9841 H         6 CUB7        0.0000 
     15 DU        -20.9700   41.0307   95.4804 H         6 CUB7        0.0000 
     16 CZ        -20.5325   39.6845   95.9767 C.ar      4 PHE5        0.0000 
     17 CZ        -20.0949   38.3383   96.4729 C.ar      4 PHE5        0.0000 
     18 CA        -22.7915   43.0624   93.5299 C.3       5 GLY6        0.0000 
     19 DU        -22.3540   41.7162   94.0262 H         6 CUB7        0.0000 
     20 N         -21.9165   40.3700   94.5225 N.2       2 ALA2        0.0000 
     21 CZ        -21.4789   39.0237   95.0187 C.ar      4 PHE5        0.0000 
     22 CA        -23.7380   42.4016   92.5720 C.3       5 GLY6        0.0000 
     23 CA        -23.3005   41.0554   93.0683 C.3       5 GLY6        0.0000 
     24 CZ        -22.8629   39.7092   93.5645 C.ar      4 PHE5        0.0000 
     25 CZ        -22.4254   38.3630   94.0608 C.ar      4 PHE5        0.0000 
     26 DU        -17.9988   42.3184   96.3541 H         6 CUB7        0.0000 
     27 CZ        -17.5612   40.9722   96.8504 C.ar      4 PHE5        0.0000 
     28 DU        -19.3828   43.0039   94.8999 H         6 CUB7        0.0000 
     29 DU        -18.9452   41.6577   95.3962 H         6 CUB7        0.0000 
     30 DU        -18.5077   40.3115   95.8924 H         6 CUB7        0.0000 
     31 CZ        -18.0702   38.9653   96.3887 C.ar      4 PHE5        0.0000 
     32 DU        -20.7667   43.6894   93.4457 H         6 CUB7        0.0000 
     33 DU        -20.3292   42.3432   93.9420 H         6 CUB7        0.0000 
     34 DU        -19.8917   40.9970   94.4382 H         6 CUB7        0.0000 
     35 DU        -19.4542   39.6508   94.9345 H         6 CUB7        0.0000 
     36 CZ        -19.0166   38.3045   95.4308 C.ar      4 PHE5        0.0000 
     37 OG        -18.5791   36.9583   95.9270 O.2       1 SER1        0.0000 
     38 DU        -22.1507   44.3749   91.9915 H         6 CUB7        0.0000 
     39 DU        -21.7132   43.0287   92.4878 H         6 CUB7        0.0000 
     40 DU        -21.2757   41.6825   92.9840 H         6 CUB7        0.0000 
     41 DU        -20.8381   40.3362   93.4803 H         6 CUB7        0.0000 
     42 DU        -20.4006   38.9900   93.9766 H         6 CUB7        0.0000 
     43 CZ        -19.9631   37.6438   94.4728 C.ar      4 PHE5        0.0000 
     44 N         -23.5347   45.0604   90.5373 N.2       2 ALA2        0.0000 
     45 N         -23.0972   43.7141   91.0336 N.2       2 ALA2        0.0000 
     46 CA        -22.6597   42.3679   91.5299 C.3       5 GLY6        0.0000 
     47 CA        -22.2221   41.0217   92.0261 C.3       5 GLY6        0.0000 
     48 CZ        -21.7846   39.6755   92.5224 C.ar      4 PHE5        0.0000 
     49 CZ        -21.3471   38.3293   93.0186 C.ar      4 PHE5        0.0000 
     50 N         -24.0437   43.0534   90.0757 N.2       2 ALA2        0.0000 
     51 CA        -23.6061   41.7072   90.5719 C.3       5 GLY6        0.0000 
     52 CZ        -23.1686   40.3610   91.0682 C.ar      4 PHE5        0.0000 
     53 DU        -16.9204   42.2847   95.3120 H         6 CUB7        0.0000 
     54 CZ        -16.4829   40.9385   95.8082 C.ar      4 PHE5        0.0000 
     55 CZ        -16.0454   39.5923   96.3045 C.ar      4 PHE5        0.0000 
     56 N         -18.3044   42.9702   93.8578 N.2       2 ALA2        0.0000 
     57 N         -17.8669   41.6240   94.3540 N.2       2 ALA2        0.0000 
     58 DU        -17.4294   40.2778   94.8503 H         6 CUB7        0.0000 
     59 CZ        -16.9918   38.9316   95.3465 C.ar      4 PHE5        0.0000 
     60 OG        -16.5543   37.5854   95.8428 O.2       1 SER1        0.0000 
     61 N         -19.6884   43.6557   92.4036 N.2       2 ALA2        0.0000 
     62 N         -19.2509   42.3095   92.8998 N.2       2 ALA2        0.0000 
     63 N         -18.8134   40.9633   93.3961 N.2       2 ALA2        0.0000 
     64 DU        -18.3758   39.6170   93.8924 H         6 CUB7        0.0000 
     65 CA        -17.9383   38.2708   94.3886 C.3       5 GLY6        0.0000 
     66 CA        -17.5008   36.9246   94.8849 C.3       5 GLY6        0.0000 
     67 OG        -21.5099   45.6874   90.4531 O.2       1 SER1        0.0000 
     68 OG        -21.0724   44.3412   90.9494 O.2       1 SER1        0.0000 
     69 N         -20.6349   42.9950   91.4456 N.2       2 ALA2        0.0000 
     70 N         -20.1974   41.6487   91.9419 N.2       2 ALA2        0.0000 
     71 N         -19.7598   40.3025   92.4382 N.2       2 ALA2        0.0000 
     72 CA        -19.3223   38.9563   92.9344 C.3       5 GLY6        0.0000 
     73 N         -22.4564   45.0267   89.4952 N.2       2 ALA2        0.0000 
     74 N         -22.0189   43.6804   89.9914 N.2       2 ALA2        0.0000 
     75 DU        -21.5813   42.3342   90.4877 H         6 CUB7        0.0000 
     76 CA        -21.1438   40.9880   90.9840 C.3       5 GLY6        0.0000 
     77 CA        -20.7063   39.6418   91.4802 C.3       5 GLY6        0.0000 
     78 N         -22.9653   43.0197   89.0335 N.2       2 ALA2        0.0000 
     79 N         -22.5278   41.6735   89.5298 N.2       2 ALA2        0.0000 
     80 N         -22.0903   40.3273   90.0260 N.2       2 ALA2        0.0000 
     81 N         -16.7886   41.5903   93.3119 N.2       2 ALA2        0.0000 
     82 N         -16.3511   40.2441   93.8081 N.2       2 ALA2        0.0000 
     83 NZ        -15.9135   38.8979   94.3044 N.2       3 LYS4        0.0000 
     84 NZ        -17.2975   39.5833   92.8502 N.2       3 LYS4        0.0000 
     85 OG        -19.9941   44.3075   89.9072 O.2       1 SER1        0.0000 
     86 OG        -20.9406   43.6467   88.9493 O.2       1 SER1        0.0000 
     87 N         -20.5030   42.3005   89.4455 N.2       2 ALA2        0.0000 
     88 N         -20.0655   40.9543   89.9418 N.2       2 ALA2        0.0000 
     89 N         -22.3245   44.3322   87.4951 N.2       2 ALA2        0.0000 
     90 O         -21.8870   42.9860   87.9913 O.2       2 ALA2        0.0000 
     91 CA        -21.4495   41.6398   88.4876 C.3       5 GLY6        0.0000 
     92 CA        -21.0120   40.2936   88.9839 C.3       5 GLY6        0.0000 
     93 OG        -19.8622   43.6130   87.9071 O.2       1 SER1        0.0000 
     94 N         -19.4247   42.2668   88.4034 N.2       2 ALA2        0.0000 
     95 CA        -22.1213   46.9909   85.4604 C.3       5 GLY6        0.0000 
     96 OG        -21.6838   45.6447   85.9567 O.2       1 SER1        0.0000 
     97 OG        -21.2462   44.2985   86.4529 O.2       1 SER1        0.0000 
     98 CA        -20.8087   42.9523   86.9492 C.3       5 GLY6        0.0000 
     99 CA        -20.3712   41.6061   87.4455 C.3       5 GLY6        0.0000 
    100 O         -23.5053   47.6764   84.0062 O.2       2 ALA2        0.0000 
    101 O         -23.0677   46.3302   84.5025 O.2       2 ALA2        0.0000 
    102 O         -22.6302   44.9840   84.9987 O.2       2 ALA2        0.0000 
    103 O         -22.1927   43.6378   85.4950 O.2       2 ALA2        0.0000 
    104 O         -23.5767   44.3232   84.0408 O.2       2 ALA2        0.0000 
    105 N         -18.7839   43.5793   86.8650 N.2       2 ALA2        0.0000 
    106 CA        -21.4805   48.3034   83.9220 C.3       5 GLY6        0.0000 
    107 CA        -21.0430   46.9572   84.4183 C.3       5 GLY6        0.0000 
    108 CA        -20.6054   45.6110   84.9145 C.3       5 GLY6        0.0000 
    109 CA        -20.1679   44.2648   85.4108 C.3       5 GLY6        0.0000 
    110 N         -19.7304   42.9186   85.9070 N.2       2 ALA2        0.0000 
    111 CA        -22.8645   48.9889   82.4678 C.3       5 GLY6        0.0000 
    112 CA        -22.4269   47.6427   82.9641 C.3       5 GLY6        0.0000 
    113 NZ        -21.9894   46.2965   83.4603 N.2       3 LYS4        0.0000 
    114 NZ        -21.5519   44.9503   83.9566 N.2       3 LYS4        0.0000 
    115 CZ        -21.1144   43.6040   84.4528 C.ar      4 PHE5        0.0000 
    116 CA        -20.6768   42.2578   84.9491 C.3       5 GLY6        0.0000 
    117 OG        -23.8109   48.3282   81.5099 O.2       1 SER1        0.0000 
    118 NZ        -23.3734   46.9820   82.0061 N.2       3 LYS4        0.0000 
    119 NZ        -22.9359   45.6357   82.5024 N.2       3 LYS4        0.0000 
    120 CZ        -22.4984   44.2895   82.9986 C.ar      4 PHE5        0.0000 
    121 CZ        -22.0608   42.9433   83.4949 C.ar      4 PHE5        0.0000 
    122 CA        -24.3199   46.3212   81.0482 C.3       5 GLY6        0.0000 
    123 CA        -19.4557   48.9305   83.8378 C.3       5 GLY6        0.0000 
    124 CA        -20.8397   49.6159   82.3836 C.3       5 GLY6        0.0000 
    125 NZ        -20.4022   48.2697   82.8798 N.2       3 LYS4        0.0000 
    126 CA        -19.9646   46.9235   83.3761 C.3       5 GLY6        0.0000 
    127 CA        -18.6520   42.8849   84.8649 C.3       5 GLY6        0.0000 
    128 NZ        -21.7862   48.9552   81.4256 N.2       3 LYS4        0.0000 
    129 NZ        -21.3486   47.6090   81.9219 N.2       3 LYS4        0.0000 
    130 NZ        -20.4736   44.9166   82.9144 N.2       3 LYS4        0.0000 
    131 CZ        -20.0360   43.5703   83.4107 C.ar      4 PHE5        0.0000 
    132 NZ        -22.7326   48.2945   80.4677 N.2       3 LYS4        0.0000 
@<TRIPOS>BOND
@<TRIPOS>SUBSTRUCTURE
     1 SER1       37 GROUP   
     2 ALA2        1 GROUP   
     3 LYS4       83 GROUP   
     4 PHE5        5 GROUP   
     5 GLY6        6 GROUP   
     6 CUB7        8 GROUP   
@<TRIPOS>SET

