#    Name: 3zov_WZV_1_INTS_M
#    Modification time : Tue Mar 25 03:45:54 2014

@<TRIPOS>MOLECULE
3zov_WZV_1_INTS_M
   68     0    12     0     0
SMALL
NO_CHARGES


@<TRIPOS>ATOM
      1 CA        -24.6655   45.8665   83.3455 C.3       4 GLC5        0.0000 
      2 CA        -22.4600   45.8340   83.7230 C.3      12 GLL5        0.0000 
      3 CA        -26.8710   45.8990   82.9680 C.3       8 GLP5        0.0000 
      4 CA        -23.8750   46.0140   85.0470 C.3       4 GLC5        0.0000 
      5 CA        -25.2900   46.1940   86.3710 C.3       8 GLP5        0.0000 
      6 CA        -20.4435   47.4420   85.7270 C.3       4 GLC5        0.0000 
      7 CA        -20.5180   46.1780   84.5250 C.3      12 GLL5        0.0000 
      8 CA        -20.3690   48.7060   86.9290 C.3       8 GLP5        0.0000 
      9 CA        -23.5220   45.2935   85.8695 C.3       4 GLC5        0.0000 
     10 CA        -21.7540   44.3930   85.3680 C.3      12 GLL5        0.0000 
     11 CA        -22.2315   42.6205   85.6270 C.3       4 GLC5        0.0000 
     12 CA        -22.7090   40.8480   85.8860 C.3       8 GLP5        0.0000 
     13 N         -20.6690   45.3610   87.0870 N.am      2 SEC2        0.0000 
     14 N         -20.5530   44.0520   86.0420 N.am     10 SEL2        0.0000 
     15 N         -20.7850   46.6700   88.1320 N.am      6 SEP2        0.0000 
     16 CA        -19.5775   45.2625   87.3705 C.3       4 GLC5        0.0000 
     17 CA        -20.7170   43.4290   87.2460 C.3      12 GLL5        0.0000 
     18 CA        -18.4380   47.0960   87.4950 C.3       8 GLP5        0.0000 
     19 CA        -18.2140   41.6740   88.3330 C.3       4 GLC5        0.0000 
     20 CA        -19.7340   42.5670   87.7080 C.3      12 GLL5        0.0000 
     21 CA        -16.6940   40.7810   88.9580 C.3       8 GLP5        0.0000 
     22 CA        -18.0670   43.5610   88.5835 C.3       4 GLC5        0.0000 
     23 CA        -16.4000   44.5550   89.4590 C.3       8 GLP5        0.0000 
     24 O         -18.7185   41.5670   91.0735 O.2       1 ALC1        0.0000 
     25 O         -20.0340   40.9000   91.4470 O.2       9 ALL1        0.0000 
     26 O         -17.4030   42.2340   90.7000 O.2       5 ALP1        0.0000 
     27 CA        -15.0225   36.5505   94.3840 C.3       4 GLC5        0.0000 
     28 CA        -16.7000   37.3780   95.0150 C.3      12 GLL5        0.0000 
     29 CA        -13.3450   35.7230   93.7530 C.3       8 GLP5        0.0000 
     30 CA        -17.0055   37.1915   96.7285 C.3       4 GLC5        0.0000 
     31 CA        -17.3110   37.0050   98.4420 C.3       8 GLP5        0.0000 
     32 O         -15.6265   38.0515   92.6675 O.2       1 ALC1        0.0000 
     33 O         -15.7920   39.0720   93.5570 O.2       9 ALL1        0.0000 
     34 O         -15.4610   37.0310   91.7780 O.2       5 ALP1        0.0000 
     35 OD1       -15.0835   38.6990   91.9390 O.co2     3 ASC3        0.0000 
     36 OD1       -15.3530   40.2160   93.2660 O.co2    11 ASL3        0.0000 
     37 OD1       -14.8940   38.2900   90.1050 O.co2     7 ASP3        0.0000 
     38 OD1       -15.6265   38.0515   92.6675 O.co2     3 ASC3        0.0000 
     39 OD1       -15.4610   37.0310   91.7780 O.co2     7 ASP3        0.0000 
     40 OD1       -13.8390   41.3555   91.5510 O.co2     3 ASC3        0.0000 
     41 OD1       -12.9720   42.3440   91.0020 O.co2     7 ASP3        0.0000 
     42 O         -14.8000   39.3285   91.1025 O.2       1 ALC1        0.0000 
     43 O         -14.7060   40.3670   92.1000 O.2       9 ALL1        0.0000 
     44 O         -14.8940   38.2900   90.1050 O.2       5 ALP1        0.0000 
     45 O         -15.0835   38.6990   91.9390 O.2       1 ALC1        0.0000 
     46 O         -13.8390   41.3555   91.5510 O.2       1 ALC1        0.0000 
     47 O         -12.9720   42.3440   91.0020 O.2       5 ALP1        0.0000 
     48 CA        -20.9090   43.5262   82.5523 C.3       4 GLC5        0.0000 
     49 CA        -21.3830   45.2430   84.1830 C.3      12 GLL5        0.0000 
     50 CA        -20.6930   42.2260   81.3590 C.3       8 GLP5        0.0000 
     51 CA        -19.4939   44.9258   84.2198 C.3       4 GLC5        0.0000 
     52 CA        -20.8670   44.4100   83.3080 C.3      12 GLL5        0.0000 
     53 CA        -17.7000   44.9040   83.6880 C.3       8 GLP5        0.0000 
     54 CA        -21.4672   41.9230   86.6815 C.3       4 GLC5        0.0000 
     55 CA        -23.8663   42.9500   88.0293 C.3       4 GLC5        0.0000 
     56 CA        -21.8840   43.6570   88.0040 C.3      12 GLL5        0.0000 
     57 CA        -25.7690   42.5690   87.4450 C.3       8 GLP5        0.0000 
     58 CA        -22.1021   41.7935   87.5071 C.3       4 GLC5        0.0000 
     59 CA        -20.1717   38.7469   91.5104 C.3       4 GLC5        0.0000 
     60 CA        -19.8150   40.1860   92.6340 C.3      12 GLL5        0.0000 
     61 CA        -20.3310   37.5690   89.8800 C.3       8 GLP5        0.0000 
     62 CA        -18.5624   37.4136   93.3615 C.3       4 GLC5        0.0000 
     63 CA        -18.4930   39.8850   92.9890 C.3      12 GLL5        0.0000 
     64 CA        -18.3090   35.6560   92.4450 C.3       8 GLP5        0.0000 
     65 CA        -16.3610   38.4552   96.8785 C.3       4 GLC5        0.0000 
     66 CA        -16.7980   38.8270   94.5880 C.3      12 GLL5        0.0000 
     67 CA        -16.1010   37.6570   98.5740 C.3       8 GLP5        0.0000 
     68 CA        -17.5290   36.8792   93.6232 C.3       4 GLC5        0.0000 
@<TRIPOS>BOND
@<TRIPOS>SUBSTRUCTURE
     1 ALC1       24 GROUP        1 X    ALC  0     ROOT ALC X 1
     2 SEC2       13 GROUP        1 X    SEC  0     **** SEC X 2
     3 ASC3       35 GROUP        1 X    ASC  0     **** ASC X 3
     4 GLC5        1 GROUP        1 X    GLC  0     **** GLC X 6
     5 ALP1       26 GROUP        1 Y    ALP  0     ROOT ALP Y 8
     6 SEP2       15 GROUP        1 Y    SEP  0     **** SEP Y 9
     7 ASP3       37 GROUP        1 Y    ASP  0     **** ASP Y 10
     8 GLP5        3 GROUP        1 Y    GLP  0     **** GLP Y 13
     9 ALL1       25 GROUP        1 Z    ALL  0     ROOT ALL Z 15
    10 SEL2       14 GROUP        1 Z    SEL  0     **** SEL Z 16
    11 ASL3       36 GROUP        1 Z    ASL  0     **** ASL Z 17
    12 GLL5        2 GROUP        1 Z    GLL  0     **** GLL Z 20
@<TRIPOS>SET

