#    Name: 3zov_WZV_1_ligand
#    Modification time : Tue Mar 25 03:45:54 2014

@<TRIPOS>MOLECULE
3zov_WZV_1_ligand
   52    54     1     0     0
SMALL
NO_CHARGES


@<TRIPOS>ATOM
      1 F30       -20.8670   44.4100   83.3080 F         1 WZV1447     0.0000 
      2 C28       -21.3830   45.2430   84.1830 C.3       1 WZV1447     0.0000 
      3 F31       -22.4600   45.8340   83.7230 F         1 WZV1447     0.0000 
      4 F29       -20.5180   46.1780   84.5250 F         1 WZV1447     0.0000 
      5 C27       -21.7540   44.3930   85.3680 C.3       1 WZV1447     0.0000 
      6 O26       -20.5530   44.0520   86.0420 O.3       1 WZV1447     0.0000 
      7 C18       -20.7170   43.4290   87.2460 C.ar      1 WZV1447     0.0000 
      8 C23       -19.7340   42.5670   87.7080 C.ar      1 WZV1447     0.0000 
      9 N22       -19.9160   41.9570   88.8870 N.ar      1 WZV1447     0.0000 
     10 C19       -21.8840   43.6570   88.0040 C.ar      1 WZV1447     0.0000 
     11 C20       -22.0430   43.0050   89.2230 C.ar      1 WZV1447     0.0000 
     12 C21       -21.0270   42.1470   89.6430 C.ar      1 WZV1447     0.0000 
     13 C24       -21.1580   41.4320   90.9410 C.2       1 WZV1447     0.0000 
     14 O25       -22.2770   41.3770   91.4270 O.2       1 WZV1447     0.0000 
     15 N13       -20.0340   40.9000   91.4470 N.am      1 WZV1447     0.0000 
     16 C7        -19.8150   40.1860   92.6340 C.ar      1 WZV1447     0.0000 
     17 C12       -18.4930   39.8850   92.9890 C.ar      1 WZV1447     0.0000 
     18 C8        -20.8710   39.8140   93.4700 C.ar      1 WZV1447     0.0000 
     19 C9        -20.5970   39.1210   94.6420 C.ar      1 WZV1447     0.0000 
     20 C10       -19.2810   38.8080   94.9800 C.ar      1 WZV1447     0.0000 
     21 C11       -18.2080   39.1840   94.1630 C.ar      1 WZV1447     0.0000 
     22 C1        -16.7980   38.8270   94.5880 C.3       1 WZV1447     0.0000 
     23 C2        -16.4440   39.6800   95.7780 C.3       1 WZV1447     0.0000 
     24 C3        -16.0910   41.0580   95.2920 C.2       1 WZV1447     0.0000 
     25 O16       -16.3440   41.9710   96.0360 O.2       1 WZV1447     0.0000 
     26 C14       -16.7000   37.3780   95.0150 C.3       1 WZV1447     0.0000 
     27 N6        -15.7920   39.0720   93.5570 N.pl3     1 WZV1447     0.0000 
     28 C5        -15.3530   40.2160   93.2660 C.cat     1 WZV1447     0.0000 
     29 N15       -14.7060   40.3670   92.1000 N.pl3     1 WZV1447     0.0000 
     30 N4        -15.5670   41.2710   94.0720 N.am      1 WZV1447     0.0000 
     31 C17       -15.3050   42.6470   93.6350 C.3       1 WZV1447     0.0000 
     32 H         -22.2818   43.5099   85.0061 H         1 WZV1447     0.0000 
     33 H         -22.4288   44.9663   86.0047 H         1 WZV1447     0.0000 
     34 H         -18.8898   42.4134   87.1408 H         1 WZV1447     0.0000 
     35 H         -22.5994   44.2949   87.6550 H         1 WZV1447     0.0000 
     36 H         -22.8710   43.1483   89.7891 H         1 WZV1447     0.0000 
     37 H         -19.1144   41.0370   90.8404 H         1 WZV1447     0.0000 
     38 H         -17.7217   40.1861   92.3737 H         1 WZV1447     0.0000 
     39 H         -21.8330   40.0510   93.2185 H         1 WZV1447     0.0000 
     40 H         -21.3658   38.8366   95.2644 H         1 WZV1447     0.0000 
     41 H         -19.0903   38.2857   95.8545 H         1 WZV1447     0.0000 
     42 H         -15.5962   39.2465   96.2972 H         1 WZV1447     0.0000 
     43 H         -17.2924   39.7354   96.4513 H         1 WZV1447     0.0000 
     44 H         -15.4636   38.1794   93.0714 H         1 WZV1447     0.0000 
     45 H         -14.5790   39.5372   91.5566 H         1 WZV1447     0.0000 
     46 H         -14.4087   41.2958   91.8788 H         1 WZV1447     0.0000 
     47 H         -15.7716   37.1359   95.2968 H         1 WZV1447     0.0000 
     48 H         -17.3026   37.1768   95.7873 H         1 WZV1447     0.0000 
     49 H         -16.9537   36.7548   94.2752 H         1 WZV1447     0.0000 
     50 H         -14.6572   43.1115   94.2388 H         1 WZV1447     0.0000 
     51 H         -14.9193   42.6767   92.7129 H         1 WZV1447     0.0000 
     52 H         -16.1396   43.1977   93.6215 H         1 WZV1447     0.0000 
@<TRIPOS>BOND
     1    2    1 1    
     2    3    2 1    
     3    4    2 1    
     4    5    2 1    
     5    6    5 1    
     6   32    5 1    
     7   33    5 1    
     8    7    6 1    
     9    8    7 ar   
    10   10    7 ar   
    11    9    8 ar   
    12   34    8 1    
    13   12    9 ar   
    14   11   10 ar   
    15   35   10 1    
    16   12   11 ar   
    17   36   11 1    
    18   13   12 1    
    19   14   13 2    
    20   15   13 am   
    21   16   15 1    
    22   37   15 1    
    23   17   16 ar   
    24   18   16 ar   
    25   21   17 ar   
    26   38   17 1    
    27   19   18 ar   
    28   39   18 1    
    29   20   19 ar   
    30   40   19 1    
    31   21   20 ar   
    32   41   20 1    
    33   22   21 1    
    34   23   22 1    
    35   26   22 1    
    36   27   22 1    
    37   24   23 1    
    38   42   23 1    
    39   43   23 1    
    40   25   24 2    
    41   30   24 am   
    42   47   26 1    
    43   48   26 1    
    44   49   26 1    
    45   28   27 ar   
    46   44   27 1    
    47   29   28 ar   
    48   30   28 1    
    49   45   29 1    
    50   46   29 1    
    51   31   30 1    
    52   50   31 1    
    53   51   31 1    
    54   52   31 1    
@<TRIPOS>SUBSTRUCTURE
     1 WZV1447     1 GROUP   
@<TRIPOS>SET

