#    Name: 3pvg_K68_1_INTS_M
#    Modification time : Tue Mar 25 08:35:47 2014

@<TRIPOS>MOLECULE
3pvg_K68_1_INTS_M
   61     0     9     0     0
SMALL
NO_CHARGES


@<TRIPOS>ATOM
      1 CA         19.7575    7.4965   18.5565 C.3       3 GLC5        0.0000 
      2 CA         21.5580    8.6720   18.4970 C.3       9 GLL5        0.0000 
      3 CA         17.9570    6.3210   18.6160 C.3       6 GLP5        0.0000 
      4 CA         23.0235    7.4675   22.8825 C.3       3 GLC5        0.0000 
      5 CA         21.6730    6.3260   21.9320 C.3       9 GLL5        0.0000 
      6 CA         24.3740    8.6090   23.8330 C.3       6 GLP5        0.0000 
      7 CA         20.1300    5.9235   21.0365 C.3       3 GLC5        0.0000 
      8 CA         18.5870    5.5210   20.1410 C.3       6 GLP5        0.0000 
      9 CA         18.3700   10.0395   20.0100 C.3       3 GLC5        0.0000 
     10 CA         19.9040    8.9660   20.8090 C.3       9 GLL5        0.0000 
     11 CA         16.8360   11.1130   19.2110 C.3       6 GLP5        0.0000 
     12 CA         18.3360    7.8925   21.8125 C.3       3 GLC5        0.0000 
     13 CA         16.7680    6.8190   22.8160 C.3       6 GLP5        0.0000 
     14 CA         19.2455    7.2435   20.4750 C.3       3 GLC5        0.0000 
     15 CA         21.4455   11.1765   18.9290 C.3       3 GLC5        0.0000 
     16 CA         20.5150   10.1420   17.8520 C.3       9 GLL5        0.0000 
     17 CA         22.3760   12.2110   20.0060 C.3       6 GLP5        0.0000 
     18 CA         20.2080   10.4025   15.9165 C.3       3 GLC5        0.0000 
     19 CA         19.9010   10.6630   13.9810 C.3       6 GLP5        0.0000 
     20 CA         18.7165   10.8895   17.8125 C.3       3 GLC5        0.0000 
     21 CA         16.9180   11.6370   17.7730 C.3       6 GLP5        0.0000 
     22 CA         19.9000    8.6055   16.6145 C.3       3 GLC5        0.0000 
     23 CA         19.2850    7.0690   15.3770 C.3       6 GLP5        0.0000 
     24 CA         23.7130   10.0470   17.4750 C.3       3 GLC5        0.0000 
     25 CA         22.9510    8.9040   16.0100 C.3       9 GLL5        0.0000 
     26 CA         24.4750   11.1900   18.9400 C.3       6 GLP5        0.0000 
     27 CA         21.4260    9.7835   14.9955 C.3       3 GLC5        0.0000 
     28 CA         23.9415   10.3415   15.3555 C.3       3 GLC5        0.0000 
     29 CA         24.9320   11.7790   14.7010 C.3       6 GLP5        0.0000 
     30 CA         21.6180    7.4385   15.4080 C.3       3 GLC5        0.0000 
     31 CA         20.2850    5.9730   14.8060 C.3       6 GLP5        0.0000 
     32 CA         25.9385    6.7450   17.9095 C.3       3 GLC5        0.0000 
     33 CA         24.7110    6.7140   16.6040 C.3       9 GLL5        0.0000 
     34 CA         27.1660    6.7760   19.2150 C.3       6 GLP5        0.0000 
     35 CA         26.3320    7.2705   15.5075 C.3       3 GLC5        0.0000 
     36 CA         27.9530    7.8270   14.4110 C.3       6 GLP5        0.0000 
     37 CA         22.8375    5.7650   16.8220 C.3       3 GLC5        0.0000 
     38 CA         20.9640    4.8160   17.0400 C.3       6 GLP5        0.0000 
     39 NZ         25.9655    6.0145   13.8385 N.4       2 LYC4        0.0000 
     40 NZ         24.8380    6.1840   14.5460 N.4       8 LYL4        0.0000 
     41 NZ         27.0930    5.8450   13.1310 N.4       5 LYP4        0.0000 
     42 N          25.9655    6.0145   13.8385 N.am      1 SEC2        0.0000 
     43 N          24.8380    6.1840   14.5460 N.am      7 SEL2        0.0000 
     44 N          27.0930    5.8450   13.1310 N.am      4 SEP2        0.0000 
     45 NZ         26.2760    5.2300   14.6705 N.4       2 LYC4        0.0000 
     46 NZ         25.4590    4.6150   16.2100 N.4       8 LYL4        0.0000 
     47 CA         24.2045    7.6100   20.0888 C.3       3 GLC5        0.0000 
     48 CA         22.9860    6.4880   19.5620 C.3       9 GLL5        0.0000 
     49 CA         25.9270    8.4340   20.2680 C.3       6 GLP5        0.0000 
     50 CA         20.1058    6.5695   20.0725 C.3       3 GLC5        0.0000 
     51 CA         21.9780    7.0840   20.2570 C.3       9 GLL5        0.0000 
     52 CA         21.7230    5.8010   18.4748 C.3       3 GLC5        0.0000 
     53 CA         24.4177    8.0025   19.1465 C.3       3 GLC5        0.0000 
     54 CA         23.2510    7.0290   18.3260 C.3       9 GLL5        0.0000 
     55 CA         21.9363    6.1935   17.5325 C.3       3 GLC5        0.0000 
     56 CA         22.5660    8.1130   17.7240 C.3       9 GLL5        0.0000 
     57 CA         23.3541    9.6558   18.6005 C.3       3 GLC5        0.0000 
     58 CA         21.1893    6.6140   18.0820 C.3       3 GLC5        0.0000 
     59 CA         21.6328   10.1035   20.8005 C.3       3 GLC5        0.0000 
     60 CA         21.2710    8.1520   19.7510 C.3       9 GLL5        0.0000 
     61 CA         22.6780   11.6480   21.3210 C.3       6 GLP5        0.0000 
@<TRIPOS>BOND
@<TRIPOS>SUBSTRUCTURE
     1 SEC2       42 GROUP        1 X    SEC  0     ROOT SEC X 2
     2 LYC4       39 GROUP        1 X    LYC  0     **** LYC X 4
     3 GLC5        1 GROUP        1 X    GLC  0     **** GLC X 6
     4 SEP2       44 GROUP        1 Y    SEP  0     ROOT SEP Y 9
     5 LYP4       41 GROUP        1 Y    LYP  0     **** LYP Y 11
     6 GLP5        3 GROUP        1 Y    GLP  0     **** GLP Y 13
     7 SEL2       43 GROUP        1 Z    SEL  0     ROOT SEL Z 16
     8 LYL4       40 GROUP        1 Z    LYL  0     **** LYL Z 18
     9 GLL5        2 GROUP        1 Z    GLL  0     **** GLL Z 20
@<TRIPOS>SET

