#    Name: 3pvg_K68_1_ligand
#    Modification time : Tue Mar 25 08:35:47 2014

@<TRIPOS>MOLECULE
3pvg_K68_1_ligand
   20    21     1     0     0
SMALL
NO_CHARGES


@<TRIPOS>ATOM
      1 C1         21.9780    7.0840   20.2570 C.ar      1 K681        0.0000 
      2 C2         22.9860    6.4880   19.5620 C.ar      1 K681        0.0000 
      3 C3         23.2510    7.0290   18.3260 C.ar      1 K681        0.0000 
      4 C4         22.5660    8.1130   17.7240 C.ar      1 K681        0.0000 
      5 C5         21.5580    8.6720   18.4970 C.ar      1 K681        0.0000 
      6 C6         21.2710    8.1520   19.7510 C.ar      1 K681        0.0000 
      7 BR13       21.6730    6.3260   21.9320 Br        1 K681        0.0000 
      8 BR15       19.9040    8.9660   20.8090 Br        1 K681        0.0000 
      9 BR17       20.5150   10.1420   17.8520 Br        1 K681        0.0000 
     10 BR19       22.9510    8.9040   16.0100 Br        1 K681        0.0000 
     11 N21        23.8040    5.4180   19.8190 N.2       1 K681        0.0000 
     12 C23        24.5940    5.3190   18.7160 C.2       1 K681        0.0000 
     13 N25        24.2220    6.2890   17.8410 N.pl3     1 K681        0.0000 
     14 C28        24.7110    6.7140   16.6040 C.3       1 K681        0.0000 
     15 C30        25.0220    5.6790   15.6850 C.2       1 K681        0.0000 
     16 O32        24.8380    6.1840   14.5460 O.co2     1 K681        0.0000 
     17 O34        25.4590    4.6150   16.2100 O.co2     1 K681        0.0000 
     18 H          25.2929    4.6749   18.5807 H         1 K681        0.0000 
     19 H          25.6283    7.3656   16.7532 H         1 K681        0.0000 
     20 H          23.9741    7.4296   16.1212 H         1 K681        0.0000 
@<TRIPOS>BOND
     1    2    1 ar   
     2    6    1 ar   
     3    7    1 1    
     4    3    2 ar   
     5   11    2 1    
     6    4    3 ar   
     7   13    3 1    
     8    5    4 ar   
     9   10    4 1    
    10    6    5 ar   
    11    9    5 1    
    12    8    6 1    
    13   12   11 2    
    14   13   12 1    
    15   18   12 1    
    16   14   13 1    
    17   15   14 1    
    18   19   14 1    
    19   20   14 1    
    20   16   15 ar   
    21   17   15 ar   
@<TRIPOS>SUBSTRUCTURE
     1 K681        1 GROUP   
@<TRIPOS>SET

