#    Name: 2qtg_MTH_1_INTS_M
#    Modification time : Mon Mar 24 22:47:34 2014

@<TRIPOS>MOLECULE
2qtg_MTH_1_INTS_M
   66     0     9     0     0
SMALL
NO_CHARGES


@<TRIPOS>ATOM
      1 CA         14.6310   -3.2395    2.6645 C.3       3 GLC5        0.0000 
      2 CA         14.1960   -4.3820    1.1750 C.3       9 GLL5        0.0000 
      3 CA         15.0660   -2.0970    4.1540 C.3       6 GLP5        0.0000 
      4 CA         13.1195   -4.5060    2.8360 C.3       3 GLC5        0.0000 
      5 CA         12.0430   -4.6300    4.4970 C.3       6 GLP5        0.0000 
      6 CA         15.6445   -5.0105   -0.3580 C.3       3 GLC5        0.0000 
      7 CA         17.0930   -5.6390   -1.8910 C.3       6 GLP5        0.0000 
      8 CA         14.6690   -5.8205    2.2300 C.3       3 GLC5        0.0000 
      9 CA         15.1420   -7.2590    3.2850 C.3       6 GLP5        0.0000 
     10 CA         11.8825   -5.4890    1.8815 C.3       3 GLC5        0.0000 
     11 CA         12.5660   -4.2730    0.4290 C.3       9 GLL5        0.0000 
     12 CA         11.1990   -6.7050    3.3340 C.3       6 GLP5        0.0000 
     13 CA         13.6225   -1.0645    2.5645 C.3       3 GLC5        0.0000 
     14 CA         12.1040   -1.7240    1.5360 C.3       9 GLL5        0.0000 
     15 CA         15.1410   -0.4050    3.5930 C.3       6 GLP5        0.0000 
     16 N           7.4695   -0.7030    1.0860 N.am      2 SEC2        0.0000 
     17 N           8.7340   -0.3160    1.7140 N.am      8 SEL2        0.0000 
     18 N           6.2050   -1.0900    0.4580 N.am      5 SEP2        0.0000 
     19 O           8.2600   -0.4895    2.9835 O.2       1 ALC1        0.0000 
     20 O           8.7340   -0.3160    1.7140 O.2       7 ALL1        0.0000 
     21 O           7.7860   -0.6630    4.2530 O.2       4 ALP1        0.0000 
     22 N          10.6920   -0.3320    3.8270 N.am      2 SEC2        0.0000 
     23 N          10.5890   -1.6670    3.3860 N.am      8 SEL2        0.0000 
     24 N          10.7950    1.0030    4.2680 N.am      5 SEP2        0.0000 
     25 O           9.1875   -1.1650    3.8195 O.2       1 ALC1        0.0000 
     26 O          10.5890   -1.6670    3.3860 O.2       7 ALL1        0.0000 
     27 O           9.4605   -2.2240    3.8345 O.2       1 ALC1        0.0000 
     28 O           8.3320   -2.7810    4.2830 O.2       4 ALP1        0.0000 
     29 CA          8.4715    0.2295   -5.4460 C.3       3 GLC5        0.0000 
     30 CA         10.2600    0.2540   -4.2160 C.3       9 GLL5        0.0000 
     31 CA          6.6830    0.2050   -6.6760 C.3       6 GLP5        0.0000 
     32 O          11.9450    1.7245   -5.4770 O.2       1 ALC1        0.0000 
     33 O          10.8260    0.7840   -5.3360 O.2       7 ALL1        0.0000 
     34 O          13.0640    2.6650   -5.6180 O.2       4 ALP1        0.0000 
     35 N           8.2580   -1.2990   -4.9845 N.am      2 SEC2        0.0000 
     36 N           9.1710   -0.5720   -4.2260 N.am      8 SEL2        0.0000 
     37 N           7.3450   -2.0260   -5.7430 N.am      5 SEP2        0.0000 
     38 CA          9.3955   -2.8920   -3.6965 C.3       3 GLC5        0.0000 
     39 CA          8.6330   -1.0980   -3.0730 C.3       9 GLL5        0.0000 
     40 CA         10.1580   -4.6860   -4.3200 C.3       6 GLP5        0.0000 
     41 CA          7.2360   -0.1800   -4.2930 C.3       3 GLC5        0.0000 
     42 CA          5.8390    0.7380   -5.5130 C.3       6 GLP5        0.0000 
     43 CA          7.4775   -0.1295   -2.0270 C.3       3 GLC5        0.0000 
     44 CA          6.3220    0.8390   -0.9810 C.3       6 GLP5        0.0000 
     45 CA          8.0775   -2.3255   -1.8600 C.3       3 GLC5        0.0000 
     46 CA          7.5220   -3.5530   -0.6470 C.3       6 GLP5        0.0000 
     47 CA          8.2800    0.3980   -1.3780 C.3       3 GLC5        0.0000 
     48 CA         10.2380   -0.0430   -1.7750 C.3       9 GLL5        0.0000 
     49 CA          9.7360   -2.1280   -1.2360 C.3       3 GLC5        0.0000 
     50 CA          9.2340   -4.2130   -0.6970 C.3       6 GLP5        0.0000 
     51 CA         13.2855   -6.0747   -0.3550 C.3       3 GLC5        0.0000 
     52 CA         13.1900   -7.8220   -1.5120 C.3       6 GLP5        0.0000 
     53 CA         12.5115   -3.0118   -1.6195 C.3       3 GLC5        0.0000 
     54 CA         12.4730   -2.6330   -3.5970 C.3       6 GLP5        0.0000 
     55 CA         10.8920   -3.8018   -0.1695 C.3       3 GLC5        0.0000 
     56 CA         12.5340   -2.5080    0.2870 C.3       9 GLL5        0.0000 
     57 CA         11.7105   -3.2292    3.1260 C.3       3 GLC5        0.0000 
     58 CA         10.6520   -1.9330    1.9740 C.3       9 GLL5        0.0000 
     59 CA          9.9348   -2.7979    0.3670 C.3       3 GLC5        0.0000 
     60 CA         10.2944    2.3649   -4.2796 C.3       3 GLC5        0.0000 
     61 CA         10.7810    0.4730   -2.9710 C.3       9 GLL5        0.0000 
     62 CA          9.8380    4.1730   -5.0860 C.3       6 GLP5        0.0000 
     63 CA         10.6122    2.4504   -1.7170 C.3       3 GLC5        0.0000 
     64 CA         10.0550    4.2340   -1.3040 C.3       6 GLP5        0.0000 
     65 CA         11.6251   -1.0912   -3.1546 C.3       3 GLC5        0.0000 
     66 CA         11.7020    1.2460   -2.4900 C.3       9 GLL5        0.0000 
@<TRIPOS>BOND
@<TRIPOS>SUBSTRUCTURE
     1 ALC1       19 GROUP        1 X    ALC  0     ROOT ALC X 1
     2 SEC2       16 GROUP        1 X    SEC  0     **** SEC X 2
     3 GLC5        1 GROUP        1 X    GLC  0     **** GLC X 6
     4 ALP1       21 GROUP        1 Y    ALP  0     ROOT ALP Y 8
     5 SEP2       18 GROUP        1 Y    SEP  0     **** SEP Y 9
     6 GLP5        3 GROUP        1 Y    GLP  0     **** GLP Y 13
     7 ALL1       20 GROUP        1 Z    ALL  0     ROOT ALL Z 15
     8 SEL2       17 GROUP        1 Z    SEL  0     **** SEL Z 16
     9 GLL5        2 GROUP        1 Z    GLL  0     **** GLL Z 20
@<TRIPOS>SET

