#    Name: 2qtg_MTH_1_ligand
#    Modification time : Mon Mar 24 22:47:34 2014

@<TRIPOS>MOLECULE
2qtg_MTH_1_ligand
   36    38     1     0     0
SMALL
NO_CHARGES


@<TRIPOS>ATOM
      1 CS         14.1960   -4.3820    1.1750 C.3       1 MTH268      0.0000 
      2 S5'        12.5660   -4.2730    0.4290 S.3       1 MTH268      0.0000 
      3 C5'        12.5340   -2.5080    0.2870 C.3       1 MTH268      0.0000 
      4 C4'        12.1040   -1.7240    1.5360 C.3       1 MTH268      0.0000 
      5 O4'        12.2240   -0.3130    1.2310 O.3       1 MTH268      0.0000 
      6 C2'         9.8930   -0.9370    1.1070 C.3       1 MTH268      0.0000 
      7 O2'         8.7340   -0.3160    1.7140 O.3       1 MTH268      0.0000 
      8 C3'        10.6520   -1.9330    1.9740 C.3       1 MTH268      0.0000 
      9 O3'        10.5890   -1.6670    3.3860 O.3       1 MTH268      0.0000 
     10 C1'        10.9230    0.1670    0.7700 C.3       1 MTH268      0.0000 
     11 N9         10.9960    0.3970   -0.6590 N.pl3     1 MTH268      0.0000 
     12 C8         11.9570    0.9910   -1.2840 C.2       1 MTH268      0.0000 
     13 C7         11.7020    1.2460   -2.4900 C.2       1 MTH268      0.0000 
     14 C5         10.7810    0.4730   -2.9710 C.ar      1 MTH268      0.0000 
     15 C6         10.2600    0.2540   -4.2160 C.ar      1 MTH268      0.0000 
     16 N6         10.8260    0.7840   -5.3360 N.pl3     1 MTH268      0.0000 
     17 N1          9.1710   -0.5720   -4.2260 N.ar      1 MTH268      0.0000 
     18 C2          8.6330   -1.0980   -3.0730 C.ar      1 MTH268      0.0000 
     19 N3          9.1620   -0.8640   -1.8320 N.ar      1 MTH268      0.0000 
     20 C4         10.2380   -0.0430   -1.7750 C.ar      1 MTH268      0.0000 
     21 H          11.8645   -2.3379   -0.5593 H         1 MTH268      0.0000 
     22 H          13.5523   -2.2642   -0.0245 H         1 MTH268      0.0000 
     23 H          12.7549   -1.9704    2.3528 H         1 MTH268      0.0000 
     24 H           9.6524   -1.4138    0.1668 H         1 MTH268      0.0000 
     25 H          10.3789   -2.9148    1.7086 H         1 MTH268      0.0000 
     26 H          10.6483    1.0488    1.2998 H         1 MTH268      0.0000 
     27 H          12.8454    1.2274   -0.8222 H         1 MTH268      0.0000 
     28 H          12.1558    1.9713   -3.0408 H         1 MTH268      0.0000 
     29 H          10.3907    0.5454   -6.2041 H         1 MTH268      0.0000 
     30 H          11.6270    1.3650   -5.1915 H         1 MTH268      0.0000 
     31 H           7.7763   -1.7071   -3.1525 H         1 MTH268      0.0000 
     32 H          14.9191   -4.1564    0.5221 H         1 MTH268      0.0000 
     33 H          14.2932   -3.7553    1.9482 H         1 MTH268      0.0000 
     34 H          14.3869   -5.3019    1.5175 H         1 MTH268      0.0000 
     35 H           8.6981   -0.6868    2.6420 H         1 MTH268      0.0000 
     36 H           9.7251   -2.0708    3.6870 H         1 MTH268      0.0000 
@<TRIPOS>BOND
     1    2    1 1    
     2   32    1 1    
     3   33    1 1    
     4   34    1 1    
     5    3    2 1    
     6    4    3 1    
     7   21    3 1    
     8   22    3 1    
     9    5    4 1    
    10    8    4 1    
    11   23    4 1    
    12   10    5 1    
    13    7    6 1    
    14    8    6 1    
    15   10    6 1    
    16   24    6 1    
    17   35    7 1    
    18    9    8 1    
    19   25    8 1    
    20   36    9 1    
    21   11   10 1    
    22   26   10 1    
    23   12   11 1    
    24   20   11 1    
    25   13   12 2    
    26   27   12 1    
    27   14   13 1    
    28   28   13 1    
    29   15   14 ar   
    30   20   14 ar   
    31   16   15 1    
    32   17   15 ar   
    33   29   16 1    
    34   30   16 1    
    35   18   17 ar   
    36   19   18 ar   
    37   31   18 1    
    38   20   19 ar   
@<TRIPOS>SUBSTRUCTURE
     1 MTH268      1 GROUP   
@<TRIPOS>SET

