#    Name: 2trs_PLS_2_INTS_M
#    Modification time : Tue Mar 25 00:09:10 2014

@<TRIPOS>MOLECULE
2trs_PLS_2_INTS_M
   81     0     6     0     0
SMALL
NO_CHARGES


@<TRIPOS>ATOM
      1 CA         78.4260   15.0770    8.1580 C.3       2 GLC5        0.0000 
      2 CA         79.2650   15.8470   10.0420 C.3       6 GLL5        0.0000 
      3 CA         77.5870   14.3070    6.2740 C.3       4 GLP5        0.0000 
      4 CA         78.7910   18.8725   10.2645 C.3       2 GLC5        0.0000 
      5 CA         78.8790   16.8630   10.9980 C.3       6 GLL5        0.0000 
      6 CA         78.7030   20.8820    9.5310 C.3       4 GLP5        0.0000 
      7 CA         77.6950   17.9100   12.1210 C.3       2 GLC5        0.0000 
      8 CA         76.5110   18.9570   13.2440 C.3       4 GLP5        0.0000 
      9 CA         80.6505   17.5260   11.7710 C.3       2 GLC5        0.0000 
     10 CA         82.4220   18.1890   12.5440 C.3       4 GLP5        0.0000 
     11 N          80.1945   19.0030   10.0675 N.am      1 SEC2        0.0000 
     12 N          79.4170   18.2180   10.9450 N.am      5 SEL2        0.0000 
     13 N          80.9720   19.7880    9.1900 N.am      3 SEP2        0.0000 
     14 N          81.0900   17.0930    6.7360 N.am      1 SEC2        0.0000 
     15 N          80.4460   16.9210    8.1170 N.am      5 SEL2        0.0000 
     16 N          81.7340   17.2650    5.3550 N.am      3 SEP2        0.0000 
     17 N          80.0870   16.0830    6.7285 N.am      1 SEC2        0.0000 
     18 N          79.7280   15.2450    5.3400 N.am      3 SEP2        0.0000 
     19 N          78.3080   17.6220    6.9000 N.am      1 SEC2        0.0000 
     20 N          78.4320   16.9490    8.0900 N.am      5 SEL2        0.0000 
     21 N          78.1840   18.2950    5.7100 N.am      3 SEP2        0.0000 
     22 N          78.1890   18.4445    8.3995 N.am      1 SEC2        0.0000 
     23 N          77.9460   19.9400    8.7090 N.am      3 SEP2        0.0000 
     24 N          79.0800   16.0970    6.7150 N.am      1 SEC2        0.0000 
     25 N          85.9305   11.6485   12.0985 N.am      1 SEC2        0.0000 
     26 N          84.8140   12.5940   11.8100 N.am      5 SEL2        0.0000 
     27 N          87.0470   10.7030   12.3870 N.am      3 SEP2        0.0000 
     28 CA         85.6370   12.2430    7.9680 C.3       2 GLC5        0.0000 
     29 CA         85.9060   13.2280    9.6290 C.3       6 GLL5        0.0000 
     30 CA         85.3680   11.2580    6.3070 C.3       4 GLP5        0.0000 
     31 CA         87.7880   14.1575    9.9155 C.3       2 GLC5        0.0000 
     32 CA         89.6700   15.0870   10.2020 C.3       4 GLP5        0.0000 
     33 CA         87.4705   12.3610    9.0295 C.3       2 GLC5        0.0000 
     34 CA         89.0350   11.4940    8.4300 C.3       4 GLP5        0.0000 
     35 CA         83.4810   16.5315    9.8825 C.3       2 GLC5        0.0000 
     36 CA         83.8180   14.4420   10.6300 C.3       6 GLL5        0.0000 
     37 CA         83.1440   18.6210    9.1350 C.3       4 GLP5        0.0000 
     38 N          85.1590   16.3960    9.3675 N.am      1 SEC2        0.0000 
     39 N          83.8920   15.5150    9.7870 N.am      5 SEL2        0.0000 
     40 N          86.4260   17.2770    8.9480 N.am      3 SEP2        0.0000 
     41 CA         82.3035   16.9225   10.2375 C.3       2 GLC5        0.0000 
     42 CA         81.4630   15.2240   11.3400 C.3       6 GLL5        0.0000 
     43 CA         84.8395   12.2725   14.4830 C.3       2 GLC5        0.0000 
     44 CA         83.8690   12.5980   12.7400 C.3       6 GLL5        0.0000 
     45 CA         85.8100   11.9470   16.2260 C.3       4 GLP5        0.0000 
     46 CA         85.2485   13.9005   13.3835 C.3       2 GLC5        0.0000 
     47 CA         86.6280   15.2030   14.0270 C.3       4 GLP5        0.0000 
     48 CA         85.3750   10.9770   12.3520 C.3       2 GLC5        0.0000 
     49 CA         86.8810    9.3560   11.9640 C.3       4 GLP5        0.0000 
     50 CA         81.0065   14.0750   15.7330 C.3       2 GLC5        0.0000 
     51 CA         81.7780   13.6360   13.8350 C.3       6 GLL5        0.0000 
     52 CA         80.2350   14.5140   17.6310 C.3       4 GLP5        0.0000 
     53 N          77.7890   11.3340   14.0690 N.am      1 SEC2        0.0000 
     54 N          79.3720   11.2580   13.7640 N.am      5 SEL2        0.0000 
     55 N          76.2060   11.4100   14.3740 N.am      3 SEP2        0.0000 
     56 N          78.8525    9.8470   14.3615 N.am      1 SEC2        0.0000 
     57 N          78.3330    8.4360   14.9590 N.am      3 SEP2        0.0000 
     58 N          79.0480   10.1095   12.9505 N.am      1 SEC2        0.0000 
     59 N          78.7240    8.9610   12.1370 N.am      3 SEP2        0.0000 
     60 N          80.6695   12.5075   16.8275 N.am      1 SEC2        0.0000 
     61 N          80.3220   11.6820   15.6200 N.am      5 SEL2        0.0000 
     62 N          81.0170   13.3330   18.0350 N.am      3 SEP2        0.0000 
     63 N          79.2080   12.4720   16.3555 N.am      1 SEC2        0.0000 
     64 N          78.0940   13.2620   17.0910 N.am      3 SEP2        0.0000 
     65 N          79.1270   11.1520   16.2845 N.am      1 SEC2        0.0000 
     66 N          77.9320   10.6220   16.9490 N.am      3 SEP2        0.0000 
     67 N          79.8630    9.5610   13.0360 N.am      1 SEC2        0.0000 
     68 N          81.0020   10.1610   13.9350 N.am      5 SEL2        0.0000 
     69 N          80.9055    8.7140   13.8280 N.am      1 SEC2        0.0000 
     70 N          80.8090    7.2670   13.7210 N.am      3 SEP2        0.0000 
     71 N          82.3870    9.8185   14.3785 N.am      1 SEC2        0.0000 
     72 N          83.7720    9.4760   14.8220 N.am      3 SEP2        0.0000 
     73 CA         85.0450   15.1325   12.0875 C.3       2 GLC5        0.0000 
     74 CA         84.8380   13.4080   10.7340 C.3       6 GLL5        0.0000 
     75 CA         85.7620   16.3400   13.4930 C.3       4 GLP5        0.0000 
     76 CA         84.2707   15.1818   12.8270 C.3       2 GLC5        0.0000 
     77 CA         82.7560   14.4640   11.6310 C.3       6 GLL5        0.0000 
     78 CA         82.3985   16.5137   11.8896 C.3       2 GLC5        0.0000 
     79 CA         82.9983   14.2993   14.9305 C.3       2 GLC5        0.0000 
     80 CA         82.8030   13.5830   12.6910 C.3       6 GLL5        0.0000 
     81 CA         83.7060   14.9890   16.5980 C.3       4 GLP5        0.0000 
@<TRIPOS>BOND
@<TRIPOS>SUBSTRUCTURE
     1 SEC2       11 GROUP        1 X    SEC  0     ROOT SEC X 2
     2 GLC5        1 GROUP        1 X    GLC  0     **** GLC X 6
     3 SEP2       13 GROUP        1 Y    SEP  0     ROOT SEP Y 9
     4 GLP5        3 GROUP        1 Y    GLP  0     **** GLP Y 13
     5 SEL2       12 GROUP        1 Z    SEL  0     ROOT SEL Z 16
     6 GLL5        2 GROUP        1 Z    GLL  0     **** GLL Z 20
@<TRIPOS>SET

