#    Name: 2trs_PLS_2_ligand
#    Modification time : Tue Mar 25 00:09:10 2014

@<TRIPOS>MOLECULE
2trs_PLS_2_ligand
   35    35     1     0     0
SMALL
NO_CHARGES


@<TRIPOS>ATOM
      1 N          80.4250   14.9970   10.4270 N.4       1 PLS398      0.0000 
      2 CA         79.2650   15.8470   10.0420 C.3       1 PLS398      0.0000 
      3 CB         78.8790   16.8630   10.9980 C.3       1 PLS398      0.0000 
      4 OG         79.4170   18.2180   10.9450 O.3       1 PLS398      0.0000 
      5 C          79.3790   16.5480    8.6180 C.2       1 PLS398      0.0000 
      6 O          80.4460   16.9210    8.1170 O.co2     1 PLS398      0.0000 
      7 OXT        78.4320   16.9490    8.0900 O.co2     1 PLS398      0.0000 
      8 N1         84.8140   12.5940   11.8100 N.ar      1 PLS398      0.0000 
      9 C2         84.8380   13.4080   10.7340 C.ar      1 PLS398      0.0000 
     10 C2A        85.9060   13.2280    9.6290 C.3       1 PLS398      0.0000 
     11 C3         83.8180   14.4420   10.6300 C.ar      1 PLS398      0.0000 
     12 O3         83.8920   15.5150    9.7870 O.3       1 PLS398      0.0000 
     13 C4         82.7560   14.4640   11.6310 C.ar      1 PLS398      0.0000 
     14 C4A        81.4630   15.2240   11.3400 C.3       1 PLS398      0.0000 
     15 C5         82.8030   13.5830   12.6910 C.ar      1 PLS398      0.0000 
     16 C6         83.8690   12.5980   12.7400 C.ar      1 PLS398      0.0000 
     17 C5A        81.7780   13.6360   13.8350 C.3       1 PLS398      0.0000 
     18 O4P        80.7190   12.7640   13.7230 O.3       1 PLS398      0.0000 
     19 P          80.4840   11.4570   14.1350 P.3       1 PLS398      0.0000 
     20 O1P        79.3720   11.2580   13.7640 O.co2     1 PLS398      0.0000 
     21 O2P        80.3220   11.6820   15.6200 O.co2     1 PLS398      0.0000 
     22 O3P        81.0020   10.1610   13.9350 O.co2     1 PLS398      0.0000 
     23 H          78.3625   15.1605    9.9123 H         1 PLS398      0.0000 
     24 H          79.0611   16.4498   12.0612 H         1 PLS398      0.0000 
     25 H          77.7264   16.9384   11.0030 H         1 PLS398      0.0000 
     26 H          80.9760   15.3867   12.4297 H         1 PLS398      0.0000 
     27 H          81.8241   16.3671   11.2217 H         1 PLS398      0.0000 
     28 H          83.8409   11.9254   13.5210 H         1 PLS398      0.0000 
     29 H          81.4431   14.7096   13.9030 H         1 PLS398      0.0000 
     30 H          82.3635   13.4786   14.7847 H         1 PLS398      0.0000 
     31 H          86.8333   13.3342    9.9879 H         1 PLS398      0.0000 
     32 H          85.8564   12.3220    9.2086 H         1 PLS398      0.0000 
     33 H          85.7973   13.8981    8.8948 H         1 PLS398      0.0000 
     34 H          78.7006   18.7639   10.5105 H         1 PLS398      0.0000 
     35 H          84.3684   16.2221   10.3095 H         1 PLS398      0.0000 
@<TRIPOS>BOND
     1    2    1 1    
     2   14    1 1    
     3    3    2 1    
     4    5    2 1    
     5   23    2 1    
     6    4    3 1    
     7   24    3 1    
     8   25    3 1    
     9   34    4 1    
    10    6    5 ar   
    11    7    5 ar   
    12    9    8 ar   
    13   16    8 ar   
    14   10    9 1    
    15   11    9 ar   
    16   31   10 1    
    17   32   10 1    
    18   33   10 1    
    19   12   11 1    
    20   13   11 ar   
    21   35   12 1    
    22   14   13 1    
    23   15   13 ar   
    24   26   14 1    
    25   27   14 1    
    26   16   15 ar   
    27   17   15 1    
    28   28   16 1    
    29   18   17 1    
    30   29   17 1    
    31   30   17 1    
    32   19   18 1    
    33   20   19 ar   
    34   21   19 ar   
    35   22   19 ar   
@<TRIPOS>SUBSTRUCTURE
     1 PLS398      1 GROUP   
@<TRIPOS>SET

