#    Name: 2y0d_UGA_1_INTS_M
#    Modification time : Tue Mar 25 07:19:01 2014

@<TRIPOS>MOLECULE
2y0d_UGA_1_INTS_M
   92     0    12     0     0
SMALL
NO_CHARGES


@<TRIPOS>ATOM
      1 CA        -25.7830  -19.0210   30.5415 C.3       4 GLC5        0.0000 
      2 CA        -24.8860  -17.3390   29.4510 C.3      12 GLL5        0.0000 
      3 CA        -26.6800  -20.7030   31.6320 C.3       8 GLP5        0.0000 
      4 N         -23.9780  -14.2785   27.2215 N.am      2 SEC2        0.0000 
      5 N         -24.2310  -15.6180   27.9980 N.am     10 SEL2        0.0000 
      6 N         -23.7250  -12.9390   26.4450 N.am      6 SEP2        0.0000 
      7 N         -24.7645  -12.6990   29.0425 N.am      2 SEC2        0.0000 
      8 N         -24.5920  -13.5540   30.1040 N.am     10 SEL2        0.0000 
      9 N         -24.9370  -11.8440   27.9810 N.am      6 SEP2        0.0000 
     10 CA        -24.5885  -13.8085   33.0440 C.3       4 GLC5        0.0000 
     11 CA        -25.1690  -15.4120   31.6150 C.3      12 GLL5        0.0000 
     12 CA        -24.0080  -12.2050   34.4730 C.3       8 GLP5        0.0000 
     13 O         -24.0635  -15.3215   34.1270 O.2       1 ALC1        0.0000 
     14 O         -24.6130  -14.7620   32.7440 O.2       9 ALL1        0.0000 
     15 O         -23.5140  -15.8810   35.5100 O.2       5 ALP1        0.0000 
     16 O         -23.2055  -15.3375   32.8095 O.2       1 ALC1        0.0000 
     17 O         -21.7980  -15.9130   32.8750 O.2       5 ALP1        0.0000 
     18 CA        -25.0520  -18.8710   32.3060 C.3       4 GLC5        0.0000 
     19 CA        -24.8570  -16.8670   31.8330 C.3      12 GLL5        0.0000 
     20 CA        -25.2470  -20.8750   32.7790 C.3       8 GLP5        0.0000 
     21 NZ        -27.0605  -16.0070   33.6390 N.4       3 LYC4        0.0000 
     22 NZ        -26.6950  -17.2200   33.3010 N.4      11 LYL4        0.0000 
     23 NZ        -27.4260  -14.7940   33.9770 N.4       7 LYP4        0.0000 
     24 N         -27.0605  -16.0070   33.6390 N.am      2 SEC2        0.0000 
     25 N         -26.6950  -17.2200   33.3010 N.am     10 SEL2        0.0000 
     26 N         -27.4260  -14.7940   33.9770 N.am      6 SEP2        0.0000 
     27 N         -27.9035  -17.1950   32.5040 N.am      2 SEC2        0.0000 
     28 N         -29.1120  -17.1700   31.7070 N.am      6 SEP2        0.0000 
     29 NZ        -23.2565  -18.3595   34.1330 N.4       3 LYC4        0.0000 
     30 NZ        -24.6600  -17.7370   33.9920 N.4      11 LYL4        0.0000 
     31 NZ        -21.8530  -18.9820   34.2740 N.4       7 LYP4        0.0000 
     32 N         -23.2565  -18.3595   34.1330 N.am      2 SEC2        0.0000 
     33 N         -24.6600  -17.7370   33.9920 N.am     10 SEL2        0.0000 
     34 N         -21.8530  -18.9820   34.2740 N.am      6 SEP2        0.0000 
     35 NZ        -20.5090  -19.0840   28.4715 N.4       3 LYC4        0.0000 
     36 NZ        -21.6820  -19.5160   29.5780 N.4      11 LYL4        0.0000 
     37 NZ        -19.3360  -18.6520   27.3650 N.4       7 LYP4        0.0000 
     38 N         -20.5115  -18.9080   30.2510 N.am      2 SEC2        0.0000 
     39 N         -21.6820  -19.5160   29.5780 N.am     10 SEL2        0.0000 
     40 N         -19.3410  -18.3000   30.9240 N.am      6 SEP2        0.0000 
     41 N         -20.5090  -19.0840   28.4715 N.am      2 SEC2        0.0000 
     42 N         -19.3360  -18.6520   27.3650 N.am      6 SEP2        0.0000 
     43 N         -20.8150  -18.7490   27.3580 N.am      2 SEC2        0.0000 
     44 N         -22.2940  -18.8460   27.3510 N.am     10 SEL2        0.0000 
     45 NZ        -20.6320  -18.0000   26.4170 N.4       3 LYC4        0.0000 
     46 NZ        -21.9280  -17.3480   25.4690 N.4      11 LYL4        0.0000 
     47 CA        -26.2955  -18.9395   25.1625 C.3       4 GLC5        0.0000 
     48 CA        -24.6290  -19.9730   24.9660 C.3      12 GLL5        0.0000 
     49 CA        -27.9620  -17.9060   25.3590 C.3       8 GLP5        0.0000 
     50 CA        -26.4190  -21.5345   23.1340 C.3       4 GLC5        0.0000 
     51 CA        -24.7870  -20.9650   23.8040 C.3      12 GLL5        0.0000 
     52 CA        -28.0510  -22.1040   22.4640 C.3       8 GLP5        0.0000 
     53 CA        -26.6335  -20.0545   24.6935 C.3       4 GLC5        0.0000 
     54 CA        -28.4800  -19.1440   25.5830 C.3       8 GLP5        0.0000 
     55 CA        -23.0150  -22.7380   24.5400 C.3       4 GLC5        0.0000 
     56 CA        -23.4640  -21.5200   23.3080 C.3      12 GLL5        0.0000 
     57 CA        -22.5660  -23.9560   25.7720 C.3       8 GLP5        0.0000 
     58 N         -25.0085  -23.7280   23.3970 N.am      2 SEC2        0.0000 
     59 N         -23.7030  -22.9140   23.1160 N.am     10 SEL2        0.0000 
     60 N         -26.3140  -24.5420   23.6780 N.am      6 SEP2        0.0000 
     61 O         -22.5670  -23.7580   22.8740 O.2       1 ALC1        0.0000 
     62 O         -23.7030  -22.9140   23.1160 O.2       9 ALL1        0.0000 
     63 O         -21.4310  -24.6020   22.6320 O.2       5 ALP1        0.0000 
     64 CA        -26.3130  -19.2370   21.3805 C.3       4 GLC5        0.0000 
     65 CA        -24.6440  -20.5970   21.4830 C.3      12 GLL5        0.0000 
     66 CA        -27.9820  -17.8770   21.2780 C.3       8 GLP5        0.0000 
     67 CA        -26.3475  -21.3505   21.9735 C.3       4 GLC5        0.0000 
     68 CA        -25.1755  -16.9405   22.2230 C.3       4 GLC5        0.0000 
     69 CA        -24.3470  -18.2690   21.1320 C.3      12 GLL5        0.0000 
     70 CA        -26.0040  -15.6120   23.3140 C.3       8 GLP5        0.0000 
     71 N         -24.5460  -21.5150   18.1725 N.am      2 SEC2        0.0000 
     72 N         -25.5710  -20.6750   18.9210 N.am     10 SEL2        0.0000 
     73 N         -23.5210  -22.3550   17.4240 N.am      6 SEP2        0.0000 
     74 O         -25.6105  -18.4315   17.0745 O.2       1 ALC1        0.0000 
     75 O         -25.3160  -18.4430   18.5040 O.2       9 ALL1        0.0000 
     76 O         -25.9050  -18.4200   15.6450 O.2       5 ALP1        0.0000 
     77 N         -25.4855  -15.7455   16.9000 N.am      2 SEC2        0.0000 
     78 N         -24.9990  -16.1190   18.2960 N.am     10 SEL2        0.0000 
     79 N         -25.9720  -15.3720   15.5040 N.am      6 SEP2        0.0000 
     80 CA        -25.5370  -16.0175   21.3065 C.3       4 GLC5        0.0000 
     81 CA        -24.4570  -17.1370   20.3060 C.3      12 GLL5        0.0000 
     82 CA        -26.6170  -14.8980   22.3070 C.3       8 GLP5        0.0000 
     83 CA        -26.4162  -17.0365   28.5000 C.3       4 GLC5        0.0000 
     84 CA        -24.9790  -15.8510   29.1810 C.3      12 GLL5        0.0000 
     85 CA        -27.9000  -17.4780   27.6840 C.3       8 GLP5        0.0000 
     86 CA        -22.7323  -15.1690   29.1137 C.3       4 GLC5        0.0000 
     87 CA        -20.7480  -14.9210   28.4700 C.3       8 GLP5        0.0000 
     88 CA        -23.5690  -21.6355   25.4780 C.3       4 GLC5        0.0000 
     89 CA        -22.4300  -22.8020   26.5710 C.3       8 GLP5        0.0000 
     90 CA        -21.5032  -21.5892   23.1355 C.3       4 GLC5        0.0000 
     91 CA        -19.6540  -22.0230   23.6190 C.3       8 GLP5        0.0000 
     92 CA        -26.1920  -17.7900   20.9985 C.3       4 GLC5        0.0000 
@<TRIPOS>BOND
@<TRIPOS>SUBSTRUCTURE
     1 ALC1       13 GROUP        1 X    ALC  0     ROOT ALC X 1
     2 SEC2        4 GROUP        1 X    SEC  0     **** SEC X 2
     3 LYC4       21 GROUP        1 X    LYC  0     **** LYC X 4
     4 GLC5        1 GROUP        1 X    GLC  0     **** GLC X 6
     5 ALP1       15 GROUP        1 Y    ALP  0     ROOT ALP Y 8
     6 SEP2        6 GROUP        1 Y    SEP  0     **** SEP Y 9
     7 LYP4       23 GROUP        1 Y    LYP  0     **** LYP Y 11
     8 GLP5        3 GROUP        1 Y    GLP  0     **** GLP Y 13
     9 ALL1       14 GROUP        1 Z    ALL  0     ROOT ALL Z 15
    10 SEL2        5 GROUP        1 Z    SEL  0     **** SEL Z 16
    11 LYL4       22 GROUP        1 Z    LYL  0     **** LYL Z 18
    12 GLL5        2 GROUP        1 Z    GLL  0     **** GLL Z 20
@<TRIPOS>SET

