#    Name: 2y0d_UGA_1_ligand
#    Modification time : Tue Mar 25 07:19:01 2014

@<TRIPOS>MOLECULE
2y0d_UGA_1_ligand
   56    58     1     0     0
SMALL
NO_CHARGES


@<TRIPOS>ATOM
      1 C1'       -24.8860  -17.3390   29.4510 C.3       1 UGA500      0.0000 
      2 C2'       -24.9790  -15.8510   29.1810 C.3       1 UGA500      0.0000 
      3 O2'       -24.2310  -15.6180   27.9980 O.3       1 UGA500      0.0000 
      4 C3'       -24.4540  -14.9830   30.3340 C.3       1 UGA500      0.0000 
      5 O3'       -24.5920  -13.5540   30.1040 O.3       1 UGA500      0.0000 
      6 C4'       -25.1690  -15.4120   31.6150 C.3       1 UGA500      0.0000 
      7 O4'       -24.6130  -14.7620   32.7440 O.3       1 UGA500      0.0000 
      8 C5'       -24.8570  -16.8670   31.8330 C.3       1 UGA500      0.0000 
      9 O5'       -25.3990  -17.6200   30.7550 O.3       1 UGA500      0.0000 
     10 C6'       -25.4580  -17.3050   33.1310 C.2       1 UGA500      0.0000 
     11 O'P       -26.6950  -17.2200   33.3010 O.co2     1 UGA500      0.0000 
     12 O'Q       -24.6600  -17.7370   33.9920 O.co2     1 UGA500      0.0000 
     13 PB        -22.9430  -19.1990   28.7960 P.3       1 UGA500      0.0000 
     14 O1B       -24.0340  -20.2180   28.7850 O.co2     1 UGA500      0.0000 
     15 O2B       -21.6820  -19.5160   29.5780 O.co2     1 UGA500      0.0000 
     16 O3B       -23.5380  -17.7800   29.3080 O.3       1 UGA500      0.0000 
     17 O3A       -22.2940  -18.8460   27.3510 O.3       1 UGA500      0.0000 
     18 PA        -23.0210  -18.1910   26.0680 P.3       1 UGA500      0.0000 
     19 O1A       -21.9280  -17.3480   25.4690 O.co2     1 UGA500      0.0000 
     20 O2A       -24.3940  -17.6320   26.3790 O.co2     1 UGA500      0.0000 
     21 O5D       -23.3010  -19.4590   25.1200 O.3       1 UGA500      0.0000 
     22 C5D       -24.6290  -19.9730   24.9660 C.3       1 UGA500      0.0000 
     23 C4D       -24.7870  -20.9650   23.8040 C.3       1 UGA500      0.0000 
     24 O4D       -25.3950  -20.3410   22.6710 O.3       1 UGA500      0.0000 
     25 C3D       -23.4640  -21.5200   23.3080 C.3       1 UGA500      0.0000 
     26 O3D       -23.7030  -22.9140   23.1160 O.3       1 UGA500      0.0000 
     27 C2D       -23.2410  -20.7910   21.9960 C.3       1 UGA500      0.0000 
     28 O2D       -22.5170  -21.5800   21.0700 O.3       1 UGA500      0.0000 
     29 C1D       -24.6440  -20.5970   21.4830 C.3       1 UGA500      0.0000 
     30 N1        -24.7280  -19.4390   20.6120 N.am      1 UGA500      0.0000 
     31 C6        -24.3470  -18.2690   21.1320 C.2       1 UGA500      0.0000 
     32 C2        -25.2080  -19.5370   19.3350 C.2       1 UGA500      0.0000 
     33 O2        -25.5710  -20.6750   18.9210 O.2       1 UGA500      0.0000 
     34 N3        -25.3160  -18.4430   18.5040 N.am      1 UGA500      0.0000 
     35 C4        -24.9370  -17.2090   18.9830 C.2       1 UGA500      0.0000 
     36 O4        -24.9990  -16.1190   18.2960 O.2       1 UGA500      0.0000 
     37 C5        -24.4570  -17.1370   20.3060 C.2       1 UGA500      0.0000 
     38 H         -25.5186  -17.8309   28.6961 H         1 UGA500      0.0000 
     39 H         -26.0248  -15.6065   29.0154 H         1 UGA500      0.0000 
     40 H         -23.3917  -15.2448   30.4699 H         1 UGA500      0.0000 
     41 H         -26.1983  -15.2842   31.5211 H         1 UGA500      0.0000 
     42 H         -23.7863  -16.9779   31.8887 H         1 UGA500      0.0000 
     43 H         -25.3625  -19.1522   24.7989 H         1 UGA500      0.0000 
     44 H         -24.9702  -20.4925   25.8897 H         1 UGA500      0.0000 
     45 H         -25.3928  -21.7994   24.1387 H         1 UGA500      0.0000 
     46 H         -22.7244  -21.2948   23.9909 H         1 UGA500      0.0000 
     47 H         -22.8198  -19.8485   22.1926 H         1 UGA500      0.0000 
     48 H         -24.9658  -21.4827   21.0129 H         1 UGA500      0.0000 
     49 H         -23.9899  -18.1669   22.0766 H         1 UGA500      0.0000 
     50 H         -25.6710  -18.5463   17.5495 H         1 UGA500      0.0000 
     51 H         -24.1737  -16.2101   20.6843 H         1 UGA500      0.0000 
     52 H         -24.3826  -16.4285   27.4323 H         1 UGA500      0.0000 
     53 H         -23.9971  -13.1240   30.7831 H         1 UGA500      0.0000 
     54 H         -23.9553  -15.4146   33.1204 H         1 UGA500      0.0000 
     55 H         -22.9573  -23.2256   22.5270 H         1 UGA500      0.0000 
     56 H         -22.2676  -22.4069   21.5741 H         1 UGA500      0.0000 
@<TRIPOS>BOND
     1    2    1 1    
     2    9    1 1    
     3   16    1 1    
     4   38    1 1    
     5    3    2 1    
     6    4    2 1    
     7   39    2 1    
     8   52    3 1    
     9    5    4 1    
    10    6    4 1    
    11   40    4 1    
    12   53    5 1    
    13    7    6 1    
    14    8    6 1    
    15   41    6 1    
    16   54    7 1    
    17    9    8 1    
    18   10    8 1    
    19   42    8 1    
    20   11   10 ar   
    21   12   10 ar   
    22   14   13 ar   
    23   15   13 ar   
    24   16   13 1    
    25   17   13 1    
    26   18   17 1    
    27   19   18 ar   
    28   20   18 ar   
    29   21   18 1    
    30   22   21 1    
    31   23   22 1    
    32   43   22 1    
    33   44   22 1    
    34   24   23 1    
    35   25   23 1    
    36   45   23 1    
    37   29   24 1    
    38   26   25 1    
    39   27   25 1    
    40   46   25 1    
    41   55   26 1    
    42   28   27 1    
    43   29   27 1    
    44   47   27 1    
    45   56   28 1    
    46   30   29 1    
    47   48   29 1    
    48   31   30 1    
    49   32   30 1    
    50   37   31 2    
    51   49   31 1    
    52   33   32 2    
    53   34   32 1    
    54   35   34 1    
    55   50   34 1    
    56   36   35 2    
    57   37   35 1    
    58   51   37 1    
@<TRIPOS>SUBSTRUCTURE
     1 UGA500      1 GROUP   
@<TRIPOS>SET

