#    Name: 2iwx_M1S_1_INTS_M
#    Modification time : Tue Mar 25 18:49:57 2014

@<TRIPOS>MOLECULE
2iwx_M1S_1_INTS_M
   51     0     6     0     0
SMALL
NO_CHARGES


@<TRIPOS>ATOM
      1 CA         53.1625   76.4340   -3.6605 C.3       2 GLC5        0.0000 
      2 CA         55.1850   76.8410   -4.5140 C.3       6 GLL5        0.0000 
      3 CA         51.1400   76.0270   -2.8070 C.3       4 GLP5        0.0000 
      4 CA         52.4610   77.1205   -4.3665 C.3       2 GLC5        0.0000 
      5 CA         54.3080   77.9400   -4.5250 C.3       6 GLL5        0.0000 
      6 CA         50.6140   76.3010   -4.2080 C.3       4 GLP5        0.0000 
      7 CA         54.1405   80.6610   -4.6645 C.3       2 GLC5        0.0000 
      8 CA         54.2500   78.8390   -3.4690 C.3       6 GLL5        0.0000 
      9 CA         54.0310   82.4830   -5.8600 C.3       4 GLP5        0.0000 
     10 CA         52.6950   77.4330   -3.1380 C.3       2 GLC5        0.0000 
     11 CA         56.1720   73.8415   -3.6325 C.3       2 GLC5        0.0000 
     12 CA         57.0120   75.4290   -3.3490 C.3       6 GLL5        0.0000 
     13 CA         55.3320   72.2540   -3.9160 C.3       4 GLP5        0.0000 
     14 CA         57.3095   74.4420   -1.4575 C.3       2 GLC5        0.0000 
     15 CA         57.6070   73.4550    0.4340 C.3       4 GLP5        0.0000 
     16 CA         58.1715   79.0945   -3.7470 C.3       2 GLC5        0.0000 
     17 CA         58.8980   77.0470   -4.2040 C.3       6 GLL5        0.0000 
     18 CA         57.4450   81.1420   -3.2900 C.3       4 GLP5        0.0000 
     19 CA         58.7745   80.5220   -5.4070 C.3       2 GLC5        0.0000 
     20 CA         59.9570   79.0080   -6.2950 C.3       6 GLL5        0.0000 
     21 CA         57.5920   82.0360   -4.5190 C.3       4 GLP5        0.0000 
     22 CA         57.0755   78.4210   -8.7670 C.3       2 GLC5        0.0000 
     23 CA         58.7230   77.5900   -7.9270 C.3       6 GLL5        0.0000 
     24 CA         55.4280   79.2520   -9.6070 C.3       4 GLP5        0.0000 
     25 CA         55.9570   77.2065   -8.4070 C.3       2 GLC5        0.0000 
     26 CA         57.2910   75.6270   -8.3670 C.3       6 GLL5        0.0000 
     27 CA         54.6230   78.7860   -8.4470 C.3       4 GLP5        0.0000 
     28 CA         55.6875   73.2825   -6.3865 C.3       2 GLC5        0.0000 
     29 CA         56.6900   74.7670   -7.2600 C.3       6 GLL5        0.0000 
     30 CA         54.6850   71.7980   -5.5130 C.3       4 GLP5        0.0000 
     31 N          52.5445   79.0435   -5.5070 N.am      1 SEC2        0.0000 
     32 N          53.4440   78.1320   -5.5890 N.am      5 SEL2        0.0000 
     33 N          51.6450   79.9550   -5.4250 N.am      3 SEP2        0.0000 
     34 CA         57.2745   75.3635   -0.2650 C.3       2 GLC5        0.0000 
     35 CA         56.9420   77.2720   -0.9640 C.3       6 GLL5        0.0000 
     36 CA         56.8970   77.3350    0.6395 C.3       2 GLC5        0.0000 
     37 CA         56.8520   77.3980    2.2430 C.3       4 GLP5        0.0000 
     38 CA         54.6847   78.0883   -6.4832 C.3       2 GLC5        0.0000 
     39 CA         54.8180   75.0265   -3.6482 C.3       2 GLC5        0.0000 
     40 CA         54.0240   73.3260   -3.3200 C.3       4 GLP5        0.0000 
     41 CA         56.3794   79.6352   -2.9789 C.3       2 GLC5        0.0000 
     42 CA         55.1110   78.6130   -2.3920 C.3       6 GLL5        0.0000 
     43 CA         53.8249   78.0468   -1.3044 C.3       2 GLC5        0.0000 
     44 CA         52.3360   77.9650    0.0590 C.3       4 GLP5        0.0000 
     45 CA         59.9505   78.0187   -9.8330 C.3       2 GLC5        0.0000 
     46 CA         60.0570   78.2250   -7.6030 C.3       6 GLL5        0.0000 
     47 CA         60.5110   78.1300  -11.9010 C.3       4 GLP5        0.0000 
     48 CA         59.2500   79.8701   -8.0290 C.3       2 GLC5        0.0000 
     49 CA         59.1350   81.6370   -8.6200 C.3       4 GLP5        0.0000 
     50 CA         55.8773   75.0970   -9.3072 C.3       2 GLC5        0.0000 
     51 CA         54.7640   74.9970  -10.8010 C.3       4 GLP5        0.0000 
@<TRIPOS>BOND
@<TRIPOS>SUBSTRUCTURE
     1 SEC2       31 GROUP        1 X    SEC  0     ROOT SEC X 2
     2 GLC5        1 GROUP        1 X    GLC  0     **** GLC X 6
     3 SEP2       33 GROUP        1 Y    SEP  0     ROOT SEP Y 9
     4 GLP5        3 GROUP        1 Y    GLP  0     **** GLP Y 13
     5 SEL2       32 GROUP        1 Z    SEL  0     ROOT SEL Z 16
     6 GLL5        2 GROUP        1 Z    GLL  0     **** GLL Z 20
@<TRIPOS>SET

