#    Name: 2iwx_M1S_1_ligand
#    Modification time : Tue Mar 25 18:49:57 2014

@<TRIPOS>MOLECULE
2iwx_M1S_1_ligand
   45    46     1     0     0
SMALL
NO_CHARGES


@<TRIPOS>ATOM
      1 C1         55.2130   75.9430   -5.7160 C.2       1 M1S1215     0.0000 
      2 C2         55.1850   76.8410   -4.5140 C.ar      1 M1S1215     0.0000 
      3 C3         54.3080   77.9400   -4.5250 C.ar      1 M1S1215     0.0000 
      4 C4         54.2500   78.8390   -3.4690 C.ar      1 M1S1215     0.0000 
      5 C5         55.1110   78.6130   -2.3920 C.ar      1 M1S1215     0.0000 
      6 C6         55.9470   77.5310   -2.4050 C.ar      1 M1S1215     0.0000 
      7 C7         56.0390   76.6130   -3.4390 C.ar      1 M1S1215     0.0000 
      8 C8         57.0120   75.4290   -3.3490 C.3       1 M1S1215     0.0000 
      9 C9         58.3680   75.6650   -3.9470 C.2       1 M1S1215     0.0000 
     10 C10        58.8980   77.0470   -4.2040 C.3       1 M1S1215     0.0000 
     11 C11        60.3080   76.9840   -4.8030 C.3       1 M1S1215     0.0000 
     12 C12        60.8100   78.3620   -5.2040 C.3       1 M1S1215     0.0000 
     13 C13        59.9570   79.0080   -6.2950 C.3       1 M1S1215     0.0000 
     14 C14        60.0570   78.2250   -7.6030 C.3       1 M1S1215     0.0000 
     15 C15        58.7230   77.5900   -7.9270 C.2       1 M1S1215     0.0000 
     16 C16        58.6180   76.2670   -8.0280 C.2       1 M1S1215     0.0000 
     17 C17        57.2910   75.6270   -8.3670 C.3       1 M1S1215     0.0000 
     18 C18        56.6900   74.7670   -7.2600 C.3       1 M1S1215     0.0000 
     19 O2         54.2500   75.6110   -6.3730 O.2       1 M1S1215     0.0000 
     20 O3         53.4440   78.1320   -5.5890 O.3       1 M1S1215     0.0000 
     21 O4         55.1350   79.4940   -1.3390 O.3       1 M1S1215     0.0000 
     22 CL1        56.9420   77.2720   -0.9640 Cl        1 M1S1215     0.0000 
     23 O5         59.0370   74.6520   -4.1670 O.2       1 M1S1215     0.0000 
     24 O1         56.5320   75.5970   -6.0790 O.3       1 M1S1215     0.0000 
     25 H          53.6160   79.6220   -3.4747 H         1 M1S1215     0.0000 
     26 H          56.5375   74.5533   -3.8407 H         1 M1S1215     0.0000 
     27 H          57.1220   75.1524   -2.2789 H         1 M1S1215     0.0000 
     28 H          58.9387   77.6099   -3.2709 H         1 M1S1215     0.0000 
     29 H          58.2446   77.5729   -4.9009 H         1 M1S1215     0.0000 
     30 H          60.2915   76.3334   -5.6807 H         1 M1S1215     0.0000 
     31 H          60.9873   76.5500   -4.0655 H         1 M1S1215     0.0000 
     32 H          61.8445   78.2799   -5.5626 H         1 M1S1215     0.0000 
     33 H          60.8152   79.0159   -4.3220 H         1 M1S1215     0.0000 
     34 H          60.2989   80.0290   -6.4605 H         1 M1S1215     0.0000 
     35 H          58.9175   79.0333   -5.9701 H         1 M1S1215     0.0000 
     36 H          60.8147   77.4531   -7.4985 H         1 M1S1215     0.0000 
     37 H          60.3441   78.9028   -8.4023 H         1 M1S1215     0.0000 
     38 H          57.9493   78.2464   -8.0541 H         1 M1S1215     0.0000 
     39 H          59.3928   75.6110   -7.8901 H         1 M1S1215     0.0000 
     40 H          57.4106   75.0018   -9.2749 H         1 M1S1215     0.0000 
     41 H          56.5630   76.4197   -8.6336 H         1 M1S1215     0.0000 
     42 H          57.3617   73.9341   -7.0707 H         1 M1S1215     0.0000 
     43 H          55.7333   74.3843   -7.6050 H         1 M1S1215     0.0000 
     44 H          53.3274   77.2254   -5.9944 H         1 M1S1215     0.0000 
     45 H          54.4753   80.2052   -1.5817 H         1 M1S1215     0.0000 
@<TRIPOS>BOND
     1    2    1 1    
     2   19    1 2    
     3   24    1 1    
     4    3    2 ar   
     5    7    2 ar   
     6    4    3 ar   
     7   20    3 1    
     8    5    4 ar   
     9   25    4 1    
    10    6    5 ar   
    11   21    5 1    
    12    7    6 ar   
    13   22    6 1    
    14    8    7 1    
    15    9    8 1    
    16   26    8 1    
    17   27    8 1    
    18   10    9 1    
    19   23    9 2    
    20   11   10 1    
    21   28   10 1    
    22   29   10 1    
    23   12   11 1    
    24   30   11 1    
    25   31   11 1    
    26   13   12 1    
    27   32   12 1    
    28   33   12 1    
    29   14   13 1    
    30   34   13 1    
    31   35   13 1    
    32   15   14 1    
    33   36   14 1    
    34   37   14 1    
    35   16   15 2    
    36   38   15 1    
    37   17   16 1    
    38   39   16 1    
    39   18   17 1    
    40   40   17 1    
    41   41   17 1    
    42   24   18 1    
    43   42   18 1    
    44   43   18 1    
    45   44   20 1    
    46   45   21 1    
@<TRIPOS>SUBSTRUCTURE
     1 M1S1215     1 GROUP   
@<TRIPOS>SET

