#    Name: 1lgr_AMP_9_INTS_M
#    Modification time : Mon Apr  7 14:04:21 2014

@<TRIPOS>MOLECULE
1lgr_AMP_9_INTS_M
   30     0     6     0     0
SMALL
NO_CHARGES


@<TRIPOS>ATOM
      1 N         -15.6395  -33.7015  -13.3725 N.am      1 SEC2        0.0000 
      2 N         -15.9650  -32.4420  -14.3880 N.am      5 SEL2        0.0000 
      3 N         -15.3140  -34.9610  -12.3570 N.am      3 SEP2        0.0000 
      4 CA        -19.5165  -35.0115  -14.2095 C.3       2 GLC5        0.0000 
      5 CA        -19.8500  -33.9410  -12.4310 C.3       6 GLL5        0.0000 
      6 CA        -19.1830  -36.0820  -15.9880 C.3       4 GLP5        0.0000 
      7 CA        -20.1760  -37.2110  -13.4070 C.3       2 GLC5        0.0000 
      8 CA        -20.6120  -36.0850  -11.8170 C.3       6 GLL5        0.0000 
      9 CA        -19.7400  -38.3370  -14.9970 C.3       4 GLP5        0.0000 
     10 CA        -18.8855  -41.6690   -9.7065 C.3       2 GLC5        0.0000 
     11 CA        -19.0490  -39.9040   -9.2410 C.3       6 GLL5        0.0000 
     12 CA        -18.7220  -43.4340  -10.1720 C.3       4 GLP5        0.0000 
     13 CA        -21.5635  -41.4865  -10.0655 C.3       2 GLC5        0.0000 
     14 CA        -20.3200  -40.3580  -11.1120 C.3       6 GLL5        0.0000 
     15 CA        -22.8070  -42.6150   -9.0190 C.3       4 GLP5        0.0000 
     16 CA        -20.0300  -39.3475  -13.0545 C.3       2 GLC5        0.0000 
     17 CA        -20.2675  -41.5615  -12.7575 C.3       2 GLC5        0.0000 
     18 CA        -20.2150  -42.7650  -14.4030 C.3       4 GLP5        0.0000 
     19 CA        -19.5210  -41.8960  -10.6420 C.3       2 GLC5        0.0000 
     20 CA        -18.3920  -39.3795  -11.5925 C.3       2 GLC5        0.0000 
     21 CA        -16.4640  -38.4010  -12.0730 C.3       4 GLP5        0.0000 
     22 CA        -21.8440  -37.8435  -10.0900 C.3       2 GLC5        0.0000 
     23 CA        -19.9330  -38.2540  -10.6700 C.3       6 GLL5        0.0000 
     24 CA        -23.7550  -37.4330   -9.5100 C.3       4 GLP5        0.0000 
     25 CA        -19.8365  -38.2955  -12.8335 C.3       2 GLC5        0.0000 
     26 CA        -22.4640  -36.5395  -12.6917 C.3       2 GLC5        0.0000 
     27 CA        -23.8240  -37.5150  -13.8370 C.3       4 GLP5        0.0000 
     28 CA        -22.4295  -36.4985  -10.5282 C.3       2 GLC5        0.0000 
     29 CA        -17.9966  -38.5696  -11.0530 C.3       2 GLC5        0.0000 
     30 CA        -19.2020  -38.5410   -9.5510 C.3       6 GLL5        0.0000 
@<TRIPOS>BOND
@<TRIPOS>SUBSTRUCTURE
     1 SEC2        1 GROUP        1 X    SEC  0     ROOT SEC X 2
     2 GLC5        4 GROUP        1 X    GLC  0     **** GLC X 6
     3 SEP2        3 GROUP        1 Y    SEP  0     ROOT SEP Y 9
     4 GLP5        6 GROUP        1 Y    GLP  0     **** GLP Y 13
     5 SEL2        2 GROUP        1 Z    SEL  0     ROOT SEL Z 16
     6 GLL5        5 GROUP        1 Z    GLL  0     **** GLL Z 20
@<TRIPOS>SET

