#    Name: 1lgr_AMP_9_ligand
#    Modification time : Mon Apr  7 14:04:21 2014

@<TRIPOS>MOLECULE
1lgr_AMP_9_ligand
   35    37     1     0     0
SMALL
NO_CHARGES


@<TRIPOS>ATOM
      1 P         -16.7790  -31.6970  -13.3970 P.3       1 AMP479      0.0000 
      2 O1P       -16.2790  -32.0480  -11.9250 O.co2     1 AMP479      0.0000 
      3 O2P       -15.9650  -32.4420  -14.3880 O.co2     1 AMP479      0.0000 
      4 O3P       -16.8080  -30.2220  -13.5720 O.co2     1 AMP479      0.0000 
      5 O5'       -18.2750  -32.2560  -13.3810 O.3       1 AMP479      0.0000 
      6 C5'       -18.4950  -33.2340  -12.3740 C.3       1 AMP479      0.0000 
      7 C4'       -19.8500  -33.9410  -12.4310 C.3       1 AMP479      0.0000 
      8 O4'       -19.6110  -35.3720  -12.5430 O.3       1 AMP479      0.0000 
      9 C3'       -20.7200  -33.8000  -11.1940 C.3       1 AMP479      0.0000 
     10 O3'       -21.4900  -32.6800  -11.4250 O.3       1 AMP479      0.0000 
     11 C2'       -21.5960  -35.0430  -11.2760 C.3       1 AMP479      0.0000 
     12 O2'       -22.6050  -34.8820  -12.2610 O.3       1 AMP479      0.0000 
     13 C1'       -20.6120  -36.0850  -11.8170 C.3       1 AMP479      0.0000 
     14 N9        -19.9460  -36.8810  -10.7610 N.pl3     1 AMP479      0.0000 
     15 C8        -19.2200  -36.4310   -9.6980 C.2       1 AMP479      0.0000 
     16 N7        -18.7510  -37.3800   -8.9460 N.2       1 AMP479      0.0000 
     17 C5        -19.2020  -38.5410   -9.5510 C.ar      1 AMP479      0.0000 
     18 C6        -19.0490  -39.9040   -9.2410 C.ar      1 AMP479      0.0000 
     19 N6        -18.3580  -40.3400   -8.1720 N.pl3     1 AMP479      0.0000 
     20 N1        -19.6260  -40.7970  -10.0590 N.ar      1 AMP479      0.0000 
     21 C2        -20.3200  -40.3580  -11.1120 C.ar      1 AMP479      0.0000 
     22 N3        -20.5310  -39.1120  -11.5100 N.ar      1 AMP479      0.0000 
     23 C4        -19.9330  -38.2540  -10.6700 C.ar      1 AMP479      0.0000 
     24 H         -18.4014  -32.7892  -11.3492 H         1 AMP479      0.0000 
     25 H         -17.7084  -34.0322  -12.4050 H         1 AMP479      0.0000 
     26 H         -20.3997  -33.6084  -13.2884 H         1 AMP479      0.0000 
     27 H         -20.1433  -33.8128  -10.3587 H         1 AMP479      0.0000 
     28 H         -21.9130  -35.3261  -10.3440 H         1 AMP479      0.0000 
     29 H         -21.1538  -36.7385  -12.4861 H         1 AMP479      0.0000 
     30 H         -19.0800  -35.4461   -9.5403 H         1 AMP479      0.0000 
     31 H         -18.3473  -41.3296   -8.0287 H         1 AMP479      0.0000 
     32 H         -17.9167  -39.6355   -7.6161 H         1 AMP479      0.0000 
     33 H         -20.7825  -41.1491  -11.7380 H         1 AMP479      0.0000 
     34 H         -22.3187  -33.0226  -11.8674 H         1 AMP479      0.0000 
     35 H         -22.1541  -35.0886  -13.1293 H         1 AMP479      0.0000 
@<TRIPOS>BOND
     1    2    1 ar   
     2    3    1 ar   
     3    4    1 ar   
     4    5    1 1    
     5    6    5 1    
     6    7    6 1    
     7   24    6 1    
     8   25    6 1    
     9    8    7 1    
    10    9    7 1    
    11   26    7 1    
    12   13    8 1    
    13   10    9 1    
    14   11    9 1    
    15   27    9 1    
    16   34   10 1    
    17   12   11 1    
    18   13   11 1    
    19   28   11 1    
    20   35   12 1    
    21   14   13 1    
    22   29   13 1    
    23   15   14 1    
    24   23   14 1    
    25   16   15 2    
    26   30   15 1    
    27   17   16 1    
    28   18   17 ar   
    29   23   17 ar   
    30   19   18 1    
    31   20   18 ar   
    32   31   19 1    
    33   32   19 1    
    34   21   20 ar   
    35   22   21 ar   
    36   33   21 1    
    37   23   22 ar   
@<TRIPOS>SUBSTRUCTURE
     1 AMP479      1 GROUP   
@<TRIPOS>SET

