#    Name: 1s16_ANP_1_INTS_M
#    Modification time : Tue Mar 25 01:43:11 2014

@<TRIPOS>MOLECULE
1s16_ANP_1_INTS_M
   91     0    15     0     0
SMALL
NO_CHARGES


@<TRIPOS>ATOM
      1 NZ         20.4965   52.2250   -7.2990 N.4       3 LYC4        0.0000 
      2 NZ         20.2510   53.6930   -7.8100 N.4      13 LYL4        0.0000 
      3 NZ         20.7420   50.7570   -6.7880 N.4       8 LYP4        0.0000 
      4 N          21.2580   54.5185   -6.9660 N.am      2 SEC2        0.0000 
      5 N          20.2510   53.6930   -7.8100 N.am     12 SEL2        0.0000 
      6 N          22.2650   55.3440   -6.1220 N.am      7 SEP2        0.0000 
      7 N          20.4965   52.2250   -7.2990 N.am      2 SEC2        0.0000 
      8 N          20.7420   50.7570   -6.7880 N.am      7 SEP2        0.0000 
      9 N          20.9125   52.5905   -8.6050 N.am      2 SEC2        0.0000 
     10 N          21.5740   51.4880   -9.4000 N.am      7 SEP2        0.0000 
     11 NZ         19.7005   51.6800   -6.5100 N.4       3 LYC4        0.0000 
     12 NZ         18.6590   52.6030   -6.2320 N.4      13 LYL4        0.0000 
     13 N          17.6285   51.7100   -6.0130 N.am      2 SEC2        0.0000 
     14 N          18.6590   52.6030   -6.2320 N.am     12 SEL2        0.0000 
     15 N          16.5980   50.8170   -5.7940 N.am      7 SEP2        0.0000 
     16 N          17.6710   52.8100   -5.1755 N.am      2 SEC2        0.0000 
     17 N          16.6830   53.0170   -4.1190 N.am      7 SEP2        0.0000 
     18 N          19.7005   51.6800   -6.5100 N.am      2 SEC2        0.0000 
     19 N          17.8980   56.2225   -6.3595 N.am      2 SEC2        0.0000 
     20 N          18.5550   55.0050   -6.6180 N.am     12 SEL2        0.0000 
     21 N          17.2410   57.4400   -6.1010 N.am      7 SEP2        0.0000 
     22 N          19.0655   56.1440   -7.2165 N.am      2 SEC2        0.0000 
     23 N          19.5760   57.2830   -7.8150 N.am      7 SEP2        0.0000 
     24 NZ         15.3635   52.0095  -10.5865 N.4       3 LYC4        0.0000 
     25 NZ         15.5130   53.1610   -9.6890 N.4      13 LYL4        0.0000 
     26 NZ         15.2140   50.8580  -11.4840 N.4       8 LYP4        0.0000 
     27 N          15.3635   52.0095  -10.5865 N.am      2 SEC2        0.0000 
     28 N          15.5130   53.1610   -9.6890 N.am     12 SEL2        0.0000 
     29 N          15.2140   50.8580  -11.4840 N.am      7 SEP2        0.0000 
     30 N          15.6080   54.4420   -6.2430 N.am      2 SEC2        0.0000 
     31 N          15.5190   53.4380   -7.2080 N.am     12 SEL2        0.0000 
     32 N          15.6970   55.4460   -5.2780 N.am      7 SEP2        0.0000 
     33 Zn         15.6975   58.9830   -8.8185 Zn        4 ZIC7        0.0000 
     34 Zn         16.3150   57.8750   -9.2910 Zn       14 ZIL7        0.0000 
     35 Zn         15.0800   60.0910   -8.3460 Zn        9 ZIP7        0.0000 
     36 N          17.6980   55.4225  -11.8320 N.am      2 SEC2        0.0000 
     37 N          17.5510   56.0850  -10.4570 N.am     12 SEL2        0.0000 
     38 N          17.8450   54.7600  -13.2070 N.am      7 SEP2        0.0000 
     39 N          18.5390   57.0980  -10.7000 N.am      2 SEC2        0.0000 
     40 N          19.5270   58.1110  -10.9430 N.am      7 SEP2        0.0000 
     41 CA         13.7185   57.9610  -11.6760 C.3       5 GLC5        0.0000 
     42 CA         13.7910   56.6690  -10.4280 C.3      15 GLL5        0.0000 
     43 CA         13.6460   59.2530  -12.9240 C.3      10 GLP5        0.0000 
     44 CA         15.3815   57.9335  -11.3690 C.3       5 GLC5        0.0000 
     45 CA         16.9720   59.1980  -12.3100 C.3      10 GLP5        0.0000 
     46 CA         11.9260   57.5615  -11.7565 C.3       5 GLC5        0.0000 
     47 CA         12.6900   55.8530  -11.1050 C.3      15 GLL5        0.0000 
     48 CA         11.1620   59.2700  -12.4080 C.3      10 GLP5        0.0000 
     49 CA         10.5490   56.1865  -11.2435 C.3       5 GLC5        0.0000 
     50 CA          8.4080   56.5200  -11.3820 C.3      10 GLP5        0.0000 
     51 N          11.5075   53.9930   -9.3000 N.am      2 SEC2        0.0000 
     52 N          12.7550   53.6860   -9.8990 N.am     12 SEL2        0.0000 
     53 N          10.2600   54.3000   -8.7010 N.am      7 SEP2        0.0000 
     54 CA         11.4885   51.8140  -12.2805 C.3       5 GLC5        0.0000 
     55 CA         12.1220   53.8980  -12.2930 C.3      15 GLL5        0.0000 
     56 CA         10.8550   49.7300  -12.2680 C.3      10 GLP5        0.0000 
     57 N          10.5030   54.0800  -10.2755 N.am      2 SEC2        0.0000 
     58 N          10.7460   53.8600  -11.8500 N.am     12 SEL2        0.0000 
     59 O          10.1940   53.5555  -13.0465 O.2       1 ALC1        0.0000 
     60 O          10.7460   53.8600  -11.8500 O.2      11 ALL1        0.0000 
     61 O           9.6420   53.2510  -14.2430 O.2       6 ALP1        0.0000 
     62 CA         11.4840   56.7860  -13.4240 C.3       5 GLC5        0.0000 
     63 CA         12.3170   55.0940  -13.2470 C.3      15 GLL5        0.0000 
     64 CA         10.6510   58.4780  -13.6010 C.3      10 GLP5        0.0000 
     65 CA         13.6705   51.4200  -17.6975 C.3       5 GLC5        0.0000 
     66 CA         14.2980   53.5260  -17.4780 C.3      15 GLL5        0.0000 
     67 CA         13.0430   49.3140  -17.9170 C.3      10 GLP5        0.0000 
     68 CA         14.3445   54.4455  -19.3660 C.3       5 GLC5        0.0000 
     69 CA         14.3910   55.3650  -21.2540 C.3      10 GLP5        0.0000 
     70 O          15.8570   52.8100  -19.4720 O.2       1 ALC1        0.0000 
     71 O          15.4510   53.4650  -18.2500 O.2      11 ALL1        0.0000 
     72 O          16.2630   52.1550  -20.6940 O.2       6 ALP1        0.0000 
     73 CA         12.4825   51.0995  -17.5860 C.3       5 GLC5        0.0000 
     74 CA         11.9220   52.8850  -17.2550 C.3      15 GLL5        0.0000 
     75 CA         11.0560   53.5070  -19.1725 C.3       5 GLC5        0.0000 
     76 CA         10.1900   54.1290  -21.0900 C.3      10 GLP5        0.0000 
     77 CA         11.0645   54.7270  -17.7165 C.3       5 GLC5        0.0000 
     78 CA         10.2070   56.5690  -18.1780 C.3      10 GLP5        0.0000 
     79 N          10.7310   53.3960  -15.1390 N.am      2 SEC2        0.0000 
     80 N          11.8200   53.5410  -16.0350 N.am     12 SEL2        0.0000 
     81 N           9.6420   53.2510  -14.2430 N.am      7 SEP2        0.0000 
     82 CA         12.2144   55.8257   -9.4296 C.3       5 GLC5        0.0000 
     83 CA         11.2740   56.3420   -7.8920 C.3      10 GLP5        0.0000 
     84 CA         13.2572   52.2705  -11.3092 C.3       5 GLC5        0.0000 
     85 CA         13.0690   54.3580  -11.1680 C.3      15 GLL5        0.0000 
     86 CA         13.9190   50.4130  -10.8880 C.3      10 GLP5        0.0000 
     87 CA         15.9665   53.3305  -15.7445 C.3       5 GLC5        0.0000 
     88 CA         14.2900   54.2200  -16.2420 C.3      15 GLL5        0.0000 
     89 CA         17.6390   52.7880  -14.6290 C.3      10 GLP5        0.0000 
     90 CA         13.1163   55.6108  -16.8327 C.3       5 GLC5        0.0000 
     91 CA         12.5960   57.1850  -17.4730 C.3      10 GLP5        0.0000 
@<TRIPOS>BOND
@<TRIPOS>SUBSTRUCTURE
     1 ALC1       59 GROUP        1 X    ALC  0     ROOT ALC X 1
     2 SEC2        4 GROUP        1 X    SEC  0     **** SEC X 2
     3 LYC4        1 GROUP        1 X    LYC  0     **** LYC X 4
     4 ZIC7       33 GROUP        1 X    ZIC  0     **** ZIC X 5
     5 GLC5       41 GROUP        1 X    GLC  0     **** GLC X 6
     6 ALP1       61 GROUP        1 Y    ALP  0     ROOT ALP Y 8
     7 SEP2        6 GROUP        1 Y    SEP  0     **** SEP Y 9
     8 LYP4        3 GROUP        1 Y    LYP  0     **** LYP Y 11
     9 ZIP7       35 GROUP        1 Y    ZIP  0     **** ZIP Y 12
    10 GLP5       43 GROUP        1 Y    GLP  0     **** GLP Y 13
    11 ALL1       60 GROUP        1 Z    ALL  0     ROOT ALL Z 15
    12 SEL2        5 GROUP        1 Z    SEL  0     **** SEL Z 16
    13 LYL4        2 GROUP        1 Z    LYL  0     **** LYL Z 18
    14 ZIL7       34 GROUP        1 Z    ZIL  0     **** ZIL Z 19
    15 GLL5       42 GROUP        1 Z    GLL  0     **** GLL Z 20
@<TRIPOS>SET

