#    Name: 1s16_ANP_1_ligand
#    Modification time : Tue Mar 25 01:43:11 2014

@<TRIPOS>MOLECULE
1s16_ANP_1_ligand
   43    45     1     0     0
SMALL
NO_CHARGES


@<TRIPOS>ATOM
      1 PG         18.8100   53.6960   -7.2840 P.3       1 ANP1500     0.0000 
      2 O1G        20.2510   53.6930   -7.8100 O.co2     1 ANP1500     0.0000 
      3 O2G        18.6590   52.6030   -6.2320 O.co2     1 ANP1500     0.0000 
      4 O3G        18.5550   55.0050   -6.6180 O.co2     1 ANP1500     0.0000 
      5 PB         16.1740   53.8720   -8.5490 P.3       1 ANP1500     0.0000 
      6 O1B        15.5130   53.1610   -9.6890 O.co2     1 ANP1500     0.0000 
      7 O2B        15.5190   53.4380   -7.2080 O.co2     1 ANP1500     0.0000 
      8 N3B        17.7340   53.4750   -8.4780 N.4       1 ANP1500     0.0000 
      9 PA         16.2650   56.4510   -9.8090 P.3       1 ANP1500     0.0000 
     10 O1A        16.3150   57.8750   -9.2910 O.co2     1 ANP1500     0.0000 
     11 O2A        17.5510   56.0850  -10.4570 O.co2     1 ANP1500     0.0000 
     12 O3A        15.9140   55.4490   -8.5820 O.3       1 ANP1500     0.0000 
     13 O5'        15.1390   56.3310  -10.8620 O.3       1 ANP1500     0.0000 
     14 C5'        13.7910   56.6690  -10.4280 C.3       1 ANP1500     0.0000 
     15 C4'        12.6900   55.8530  -11.1050 C.3       1 ANP1500     0.0000 
     16 O4'        12.5400   56.2590  -12.4600 O.3       1 ANP1500     0.0000 
     17 C3'        13.0690   54.3580  -11.1680 C.3       1 ANP1500     0.0000 
     18 O3'        12.7550   53.6860   -9.8990 O.3       1 ANP1500     0.0000 
     19 C2'        12.1220   53.8980  -12.2930 C.3       1 ANP1500     0.0000 
     20 O2'        10.7460   53.8600  -11.8500 O.3       1 ANP1500     0.0000 
     21 C1'        12.3170   55.0940  -13.2470 C.3       1 ANP1500     0.0000 
     22 N9         13.2230   54.9080  -14.3880 N.pl3     1 ANP1500     0.0000 
     23 C8         14.5340   55.3240  -14.3960 C.2       1 ANP1500     0.0000 
     24 N7         15.1640   54.9070  -15.5090 N.2       1 ANP1500     0.0000 
     25 C5         14.2900   54.2200  -16.2420 C.ar      1 ANP1500     0.0000 
     26 C6         14.2980   53.5260  -17.4780 C.ar      1 ANP1500     0.0000 
     27 N6         15.4510   53.4650  -18.2500 N.pl3     1 ANP1500     0.0000 
     28 N1         13.1430   52.9050  -17.9130 N.ar      1 ANP1500     0.0000 
     29 C2         11.9220   52.8850  -17.2550 C.ar      1 ANP1500     0.0000 
     30 N3         11.8200   53.5410  -16.0350 N.ar      1 ANP1500     0.0000 
     31 C4         12.9790   54.2000  -15.5250 C.ar      1 ANP1500     0.0000 
     32 H          13.5785   57.7441  -10.6155 H         1 ANP1500     0.0000 
     33 H          13.6880   56.5297   -9.3297 H         1 ANP1500     0.0000 
     34 H          11.7836   55.9430  -10.5609 H         1 ANP1500     0.0000 
     35 H          14.0458   54.2699  -11.4860 H         1 ANP1500     0.0000 
     36 H          12.4908   53.0548  -12.7333 H         1 ANP1500     0.0000 
     37 H          11.2493   55.2323  -13.6985 H         1 ANP1500     0.0000 
     38 H          14.9387   55.8523  -13.6795 H         1 ANP1500     0.0000 
     39 H          16.2644   53.8975  -17.8611 H         1 ANP1500     0.0000 
     40 H          15.3682   52.9937  -19.1281 H         1 ANP1500     0.0000 
     41 H          11.1208   52.4022  -17.6553 H         1 ANP1500     0.0000 
     42 H          13.6297   53.3275   -9.5728 H         1 ANP1500     0.0000 
     43 H          10.2150   53.6555  -12.6724 H         1 ANP1500     0.0000 
@<TRIPOS>BOND
     1    2    1 ar   
     2    3    1 ar   
     3    4    1 ar   
     4    8    1 1    
     5    6    5 ar   
     6    7    5 ar   
     7    8    5 1    
     8   12    5 1    
     9   10    9 ar   
    10   11    9 ar   
    11   12    9 1    
    12   13    9 1    
    13   14   13 1    
    14   15   14 1    
    15   32   14 1    
    16   33   14 1    
    17   16   15 1    
    18   17   15 1    
    19   34   15 1    
    20   21   16 1    
    21   18   17 1    
    22   19   17 1    
    23   35   17 1    
    24   42   18 1    
    25   20   19 1    
    26   21   19 1    
    27   36   19 1    
    28   43   20 1    
    29   22   21 1    
    30   37   21 1    
    31   23   22 1    
    32   31   22 1    
    33   24   23 2    
    34   38   23 1    
    35   25   24 1    
    36   26   25 ar   
    37   31   25 ar   
    38   27   26 1    
    39   28   26 ar   
    40   39   27 1    
    41   40   27 1    
    42   29   28 ar   
    43   30   29 ar   
    44   41   29 1    
    45   31   30 ar   
@<TRIPOS>SUBSTRUCTURE
     1 ANP1500     1 GROUP   
@<TRIPOS>SET

