#    Name: 4eqc_XR1_1_INTS_M
#    Modification time : Mon Mar 24 18:24:15 2014

@<TRIPOS>MOLECULE
4eqc_XR1_1_INTS_M
   77     0     9     0     0
SMALL
NO_CHARGES


@<TRIPOS>ATOM
      1 CA         15.2895   36.4730  -16.8975 C.3       3 GLC5        0.0000 
      2 CA         14.0340   34.7360  -16.4710 C.3       9 GLL5        0.0000 
      3 CA         16.5450   38.2100  -17.3240 C.3       6 GLP5        0.0000 
      4 CA         13.4520   36.7495  -16.4285 C.3       3 GLC5        0.0000 
      5 CA         12.8700   38.7630  -16.3860 C.3       6 GLP5        0.0000 
      6 CA         11.7845   38.0725  -14.7480 C.3       3 GLC5        0.0000 
      7 CA         10.6990   37.3820  -13.1100 C.3       9 GLL5        0.0000 
      8 CA         12.5810   37.7010  -12.5235 C.3       3 GLC5        0.0000 
      9 CA         14.4630   38.0200  -11.9370 C.3       6 GLP5        0.0000 
     10 CA         10.9075   39.3495  -12.6205 C.3       3 GLC5        0.0000 
     11 CA         11.1160   41.3170  -12.1310 C.3       6 GLP5        0.0000 
     12 N           9.9910   34.5560  -15.4280 N.am      2 SEC2        0.0000 
     13 N          11.4070   34.8940  -15.3940 N.am      8 SEL2        0.0000 
     14 N           8.5750   34.2180  -15.4620 N.am      5 SEP2        0.0000 
     15 CA          6.0125   36.2400  -13.9000 C.3       3 GLC5        0.0000 
     16 CA          5.6170   35.2710  -11.9980 C.3       9 GLL5        0.0000 
     17 CA          6.4080   37.2090  -15.8020 C.3       6 GLP5        0.0000 
     18 CA          4.7425   32.5005  -10.4320 C.3       3 GLC5        0.0000 
     19 CA          5.9710   33.8080   -9.9500 C.3       9 GLL5        0.0000 
     20 CA          3.5140   31.1930  -10.9140 C.3       6 GLP5        0.0000 
     21 CA          6.0225   32.5495   -8.5475 C.3       3 GLC5        0.0000 
     22 CA          6.0740   31.2910   -7.1450 C.3       6 GLP5        0.0000 
     23 CA          6.2095   35.6360   -9.5425 C.3       3 GLC5        0.0000 
     24 CA          6.4480   37.4640   -9.1350 C.3       6 GLP5        0.0000 
     25 CA         13.6580   33.4775  -10.4115 C.3       3 GLC5        0.0000 
     26 CA         13.0950   34.6100  -12.2070 C.3       9 GLL5        0.0000 
     27 CA         14.2210   32.3450   -8.6160 C.3       6 GLP5        0.0000 
     28 CA         12.5275   35.3965  -10.5240 C.3       3 GLC5        0.0000 
     29 CA         11.9600   36.1830   -8.8410 C.3       6 GLP5        0.0000 
     30 CA         14.9290   33.3860  -10.2620 C.3       3 GLC5        0.0000 
     31 CA         15.6370   34.4270  -11.9080 C.3       9 GLL5        0.0000 
     32 CA         16.7950   35.5535  -10.8190 C.3       3 GLC5        0.0000 
     33 CA         17.9530   36.6800   -9.7300 C.3       6 GLP5        0.0000 
     34 N          18.0085   34.4980  -11.4320 N.am      2 SEC2        0.0000 
     35 N          16.9210   34.3580  -12.3900 N.am      8 SEL2        0.0000 
     36 N          19.0960   34.6380  -10.4740 N.am      5 SEP2        0.0000 
     37 CA         16.2860   32.8335  -13.3025 C.3       3 GLC5        0.0000 
     38 CA         17.0380   34.4380  -13.7530 C.3       9 GLL5        0.0000 
     39 CA         15.5340   31.2290  -12.8520 C.3       6 GLP5        0.0000 
     40 O          19.4535   34.1050  -13.5640 O.2       1 ALC1        0.0000 
     41 O          18.2080   34.3540  -14.2640 O.2       7 ALL1        0.0000 
     42 O          20.6990   33.8560  -12.8640 O.2       4 ALP1        0.0000 
     43 CA         21.3245   32.6165  -18.0815 C.3       3 GLC5        0.0000 
     44 CA         21.3300   33.6500  -19.8710 C.3       9 GLL5        0.0000 
     45 CA         21.3190   31.5830  -16.2920 C.3       6 GLP5        0.0000 
     46 CA         23.2890   33.9085  -23.0295 C.3       3 GLC5        0.0000 
     47 CA         22.1730   35.3430  -23.1310 C.3       9 GLL5        0.0000 
     48 CA         24.4050   32.4740  -22.9280 C.3       6 GLP5        0.0000 
     49 CA         10.4277   36.3410  -11.1027 C.3       3 GLC5        0.0000 
     50 CA         10.5090   36.0340   -9.3120 C.3       6 GLP5        0.0000 
     51 CA          8.5501   37.6200  -13.5041 C.3       3 GLC5        0.0000 
     52 CA          8.6480   35.8240  -12.2470 C.3       9 GLL5        0.0000 
     53 CA          7.6030   39.0040  -14.4380 C.3       6 GLP5        0.0000 
     54 CA          7.4025   36.3323  -10.5962 C.3       3 GLC5        0.0000 
     55 CA          9.4330   35.6172  -10.6847 C.3       3 GLC5        0.0000 
     56 CA          6.2890   36.1930  -10.4065 C.3       3 GLC5        0.0000 
     57 CA          6.6430   34.5730  -11.3580 C.3       9 GLL5        0.0000 
     58 CA          7.8345   34.6983   -9.4235 C.3       3 GLC5        0.0000 
     59 CA          9.3620   35.2060   -8.1930 C.3       6 GLP5        0.0000 
     60 CA         10.0098   34.7305  -10.7270 C.3       3 GLC5        0.0000 
     61 CA          8.8430   33.3860  -11.9420 C.3       9 GLL5        0.0000 
     62 CA         10.9713   35.3752  -11.1088 C.3       3 GLC5        0.0000 
     63 CA         10.7770   34.7300  -12.7050 C.3       9 GLL5        0.0000 
     64 CA         13.5277   36.3383  -12.2967 C.3       3 GLC5        0.0000 
     65 CA         12.0900   34.7030  -13.1060 C.3       9 GLL5        0.0000 
     66 CA         14.6880   36.2799  -12.5660 C.3       3 GLC5        0.0000 
     67 CA         14.4990   34.5400  -12.7000 C.3       9 GLL5        0.0000 
     68 CA         15.1358   32.8888  -12.9927 C.3       3 GLC5        0.0000 
     69 CA         19.7952   32.7417  -16.1535 C.3       3 GLC5        0.0000 
     70 CA         18.6090   34.2510  -15.5090 C.3       9 GLL5        0.0000 
     71 CA         17.4718   32.0717  -15.4455 C.3       3 GLC5        0.0000 
     72 CA         16.6720   30.2430  -14.8760 C.3       6 GLP5        0.0000 
     73 CA         20.1855   32.7377  -17.1547 C.3       3 GLC5        0.0000 
     74 CA         18.4610   33.5470  -17.8450 C.3       9 GLL5        0.0000 
     75 CA         20.6915   33.2463  -16.4002 C.3       3 GLC5        0.0000 
     76 CA         20.3170   34.9120  -17.1620 C.3       9 GLL5        0.0000 
     77 CA         23.0723   33.2477  -21.6728 C.3       3 GLC5        0.0000 
@<TRIPOS>BOND
@<TRIPOS>SUBSTRUCTURE
     1 ALC1       40 GROUP        1 X    ALC  0     ROOT ALC X 1
     2 SEC2       12 GROUP        1 X    SEC  0     **** SEC X 2
     3 GLC5        1 GROUP        1 X    GLC  0     **** GLC X 6
     4 ALP1       42 GROUP        1 Y    ALP  0     ROOT ALP Y 8
     5 SEP2       14 GROUP        1 Y    SEP  0     **** SEP Y 9
     6 GLP5        3 GROUP        1 Y    GLP  0     **** GLP Y 13
     7 ALL1       41 GROUP        1 Z    ALL  0     ROOT ALL Z 15
     8 SEL2       13 GROUP        1 Z    SEL  0     **** SEL Z 16
     9 GLL5        2 GROUP        1 Z    GLL  0     **** GLL Z 20
@<TRIPOS>SET

