#    Name: 4eqc_XR1_1_ligand
#    Modification time : Mon Mar 24 18:24:15 2014

@<TRIPOS>MOLECULE
4eqc_XR1_1_ligand
   68    73     1     0     0
SMALL
NO_CHARGES


@<TRIPOS>ATOM
      1 C26        14.0130   33.3000  -16.9950 C.3       1 XR1601      0.0000 
      2 C25        14.0340   34.7360  -16.4710 C.3       1 XR1601      0.0000 
      3 N21        13.7180   34.6730  -15.0440 N.am      1 XR1601      0.0000 
      4 C22        12.3350   34.7770  -14.6070 C.2       1 XR1601      0.0000 
      5 CL1        10.6990   37.3820  -13.1100 Cl        1 XR1601      0.0000 
      6 O27        11.4070   34.8940  -15.3940 O.2       1 XR1601      0.0000 
      7 C33         9.9940   35.9140  -12.6770 C.ar      1 XR1601      0.0000 
      8 C32         8.6480   35.8240  -12.2470 C.ar      1 XR1601      0.0000 
      9 C31         8.0660   34.5770  -11.8680 C.ar      1 XR1601      0.0000 
     10 C37         6.6430   34.5730  -11.3580 C.2       1 XR1601      0.0000 
     11 C36         5.6170   35.2710  -11.9980 C.2       1 XR1601      0.0000 
     12 N35         4.3950   35.1800  -11.4120 N.2       1 XR1601      0.0000 
     13 S38         5.9710   33.8080   -9.9500 S.3       1 XR1601      0.0000 
     14 C34         4.4240   34.4480  -10.3180 C.2       1 XR1601      0.0000 
     15 C30         8.8430   33.3860  -11.9420 C.ar      1 XR1601      0.0000 
     16 C29        10.1780   33.4680  -12.3420 C.ar      1 XR1601      0.0000 
     17 C28        10.7770   34.7300  -12.7050 C.ar      1 XR1601      0.0000 
     18 C23        12.0900   34.7030  -13.1060 C.2       1 XR1601      0.0000 
     19 C24        13.0950   34.6100  -12.2070 C.2       1 XR1601      0.0000 
     20 C19        14.4990   34.5400  -12.7000 C.ar      1 XR1601      0.0000 
     21 C20        15.6370   34.4270  -11.9080 C.ar      1 XR1601      0.0000 
     22 N15        16.9210   34.3580  -12.3900 N.ar      1 XR1601      0.0000 
     23 C18        14.7580   34.5960  -14.0860 C.ar      1 XR1601      0.0000 
     24 N17        16.0190   34.5730  -14.5910 N.ar      1 XR1601      0.0000 
     25 C16        17.0380   34.4380  -13.7530 C.ar      1 XR1601      0.0000 
     26 N14        18.2080   34.3540  -14.2640 N.pl3     1 XR1601      0.0000 
     27 C8         18.6090   34.2510  -15.5090 C.ar      1 XR1601      0.0000 
     28 C13        17.9340   33.5500  -16.5210 C.ar      1 XR1601      0.0000 
     29 C12        18.4610   33.5470  -17.8450 C.ar      1 XR1601      0.0000 
     30 C11        19.6430   34.2380  -18.1900 C.ar      1 XR1601      0.0000 
     31 C10        20.3170   34.9120  -17.1620 C.ar      1 XR1601      0.0000 
     32 C9         19.8110   34.9070  -15.8550 C.ar      1 XR1601      0.0000 
     33 N3         20.0900   34.3150  -19.4120 N.3       1 XR1601      0.0000 
     34 C2         21.3300   33.6500  -19.8710 C.3       1 XR1601      0.0000 
     35 C4         19.3640   34.8980  -20.5850 C.3       1 XR1601      0.0000 
     36 C5         20.1840   35.4120  -21.8140 C.3       1 XR1601      0.0000 
     37 N6         21.3620   34.5920  -22.1970 N.4       1 XR1601      0.0000 
     38 C7         22.1730   35.3430  -23.1310 C.3       1 XR1601      0.0000 
     39 C1         22.1490   34.3930  -20.9640 C.3       1 XR1601      0.0000 
     40 H          13.2946   35.3096  -17.0104 H         1 XR1601      0.0000 
     41 H          15.0189   35.1476  -16.6357 H         1 XR1601      0.0000 
     42 H           8.0712   36.6755  -12.2050 H         1 XR1601      0.0000 
     43 H           5.7897   35.7979  -12.8323 H         1 XR1601      0.0000 
     44 H           3.7706   34.1851   -9.6683 H         1 XR1601      0.0000 
     45 H           8.4194   32.4936  -11.7040 H         1 XR1601      0.0000 
     46 H          10.7635   32.6236  -12.3856 H         1 XR1601      0.0000 
     47 H          12.9613   34.5839  -11.2036 H         1 XR1601      0.0000 
     48 H          15.4949   34.3921  -10.8539 H         1 XR1601      0.0000 
     49 H          19.0619   34.3707  -13.5125 H         1 XR1601      0.0000 
     50 H          17.0744   33.0450  -16.3202 H         1 XR1601      0.0000 
     51 H          17.9545   33.0169  -18.5771 H         1 XR1601      0.0000 
     52 H          21.1903   35.4144  -17.3689 H         1 XR1601      0.0000 
     53 H          20.3377   35.4043  -15.1078 H         1 XR1601      0.0000 
     54 H          21.0965   32.6333  -20.2674 H         1 XR1601      0.0000 
     55 H          22.0145   33.4752  -19.0071 H         1 XR1601      0.0000 
     56 H          18.7201   35.7552  -20.2394 H         1 XR1601      0.0000 
     57 H          18.6216   34.1473  -20.9776 H         1 XR1601      0.0000 
     58 H          20.4986   36.4540  -21.5858 H         1 XR1601      0.0000 
     59 H          19.4774   35.4930  -22.6690 H         1 XR1601      0.0000 
     60 H          21.0539   33.6686  -22.5902 H         1 XR1601      0.0000 
     61 H          23.0480   33.8001  -21.1671 H         1 XR1601      0.0000 
     62 H          22.4673   35.3546  -20.5456 H         1 XR1601      0.0000 
     63 H          14.2196   33.2583  -17.9725 H         1 XR1601      0.0000 
     64 H          14.6849   32.7246  -16.5287 H         1 XR1601      0.0000 
     65 H          13.1192   32.8705  -16.8657 H         1 XR1601      0.0000 
     66 H          22.4961   36.2025  -22.7348 H         1 XR1601      0.0000 
     67 H          22.9821   34.8295  -23.4167 H         1 XR1601      0.0000 
     68 H          21.6652   35.5752  -23.9606 H         1 XR1601      0.0000 
@<TRIPOS>BOND
     1    2    1 1    
     2   63    1 1    
     3   64    1 1    
     4   65    1 1    
     5    3    2 1    
     6   40    2 1    
     7   41    2 1    
     8    4    3 am   
     9   23    3 1    
    10    6    4 2    
    11   18    4 1    
    12    7    5 1    
    13    8    7 ar   
    14   17    7 ar   
    15    9    8 ar   
    16   42    8 1    
    17   10    9 1    
    18   15    9 ar   
    19   11   10 2    
    20   13   10 1    
    21   12   11 1    
    22   43   11 1    
    23   14   12 2    
    24   14   13 1    
    25   44   14 1    
    26   16   15 ar   
    27   45   15 1    
    28   17   16 ar   
    29   46   16 1    
    30   18   17 1    
    31   19   18 2    
    32   20   19 1    
    33   47   19 1    
    34   21   20 ar   
    35   23   20 ar   
    36   22   21 ar   
    37   48   21 1    
    38   25   22 ar   
    39   24   23 ar   
    40   25   24 ar   
    41   26   25 1    
    42   27   26 1    
    43   49   26 1    
    44   28   27 ar   
    45   32   27 ar   
    46   29   28 ar   
    47   50   28 1    
    48   30   29 ar   
    49   51   29 1    
    50   31   30 ar   
    51   33   30 1    
    52   32   31 ar   
    53   52   31 1    
    54   53   32 1    
    55   34   33 1    
    56   35   33 1    
    57   39   34 1    
    58   54   34 1    
    59   55   34 1    
    60   36   35 1    
    61   56   35 1    
    62   57   35 1    
    63   37   36 1    
    64   58   36 1    
    65   59   36 1    
    66   38   37 1    
    67   39   37 1    
    68   60   37 1    
    69   66   38 1    
    70   67   38 1    
    71   68   38 1    
    72   61   39 1    
    73   62   39 1    
@<TRIPOS>SUBSTRUCTURE
     1 XR1601      1 GROUP   
@<TRIPOS>SET

