#    Name: 3fmk_FMK_1_INTS_M
#    Modification time : Tue Mar 25 06:05:22 2014

@<TRIPOS>MOLECULE
3fmk_FMK_1_INTS_M
   63     0     9     0     0
SMALL
NO_CHARGES


@<TRIPOS>ATOM
      1 CA         19.4410    8.5070   30.4175 C.3       3 GLC5        0.0000 
      2 CA         21.5440    8.5730   30.9910 C.3       9 GLL5        0.0000 
      3 CA         17.3380    8.4410   29.8440 C.3       6 GLP5        0.0000 
      4 CA         21.4145    6.4750   31.3055 C.3       3 GLC5        0.0000 
      5 CA         21.2850    4.3770   31.6200 C.3       6 GLP5        0.0000 
      6 CA         22.2070    7.3790   29.2540 C.3       3 GLC5        0.0000 
      7 CA         22.8700    6.1850   27.5170 C.3       6 GLP5        0.0000 
      8 CA         28.3260    8.1220   30.4820 C.3       3 GLC5        0.0000 
      9 CA         27.0310    8.8490   31.5380 C.3       9 GLL5        0.0000 
     10 CA         29.6210    7.3950   29.4260 C.3       6 GLP5        0.0000 
     11 CA         23.2390    6.9985   33.0190 C.3       3 GLC5        0.0000 
     12 CA         23.7540    8.5620   31.7750 C.3       9 GLL5        0.0000 
     13 CA         22.7240    5.4350   34.2630 C.3       6 GLP5        0.0000 
     14 CA         23.9765    7.3255   30.0265 C.3       3 GLC5        0.0000 
     15 CA         24.1990    6.0890   28.2780 C.3       6 GLP5        0.0000 
     16 CA         20.1760   12.6375   33.3130 C.3       3 GLC5        0.0000 
     17 CA         20.2200   12.0300   31.2570 C.3       9 GLL5        0.0000 
     18 CA         20.1320   13.2450   35.3690 C.3       6 GLP5        0.0000 
     19 CA         18.8120    9.5490   30.4155 C.3       3 GLC5        0.0000 
     20 CA         20.2860   10.6570   30.9870 C.3       9 GLL5        0.0000 
     21 CA         16.9965   13.9410   31.9070 C.3       3 GLC5        0.0000 
     22 CA         17.8280   12.2090   30.9730 C.3       9 GLL5        0.0000 
     23 CA         16.1650   15.6730   32.8410 C.3       6 GLP5        0.0000 
     24 CA         21.5040   10.6875   33.7145 C.3       3 GLC5        0.0000 
     25 CA         22.5680   10.5950   31.7760 C.3       9 GLL5        0.0000 
     26 CA         20.4400   10.7800   35.6530 C.3       6 GLP5        0.0000 
     27 O          25.2970    6.6280   31.6045 O.2       1 ALC1        0.0000 
     28 O          24.9050    7.8890   32.0380 O.2       7 ALL1        0.0000 
     29 O          25.6890    5.3670   31.1710 O.2       4 ALP1        0.0000 
     30 CA         12.3560   10.4820   30.1675 C.3       3 GLC5        0.0000 
     31 CA         14.0360   10.5990   30.6840 C.3       9 GLL5        0.0000 
     32 CA         10.6760   10.3650   29.6510 C.3       6 GLP5        0.0000 
     33 CA         15.0270    9.2500   29.9685 C.3       3 GLC5        0.0000 
     34 CA         16.0180    7.9010   29.2530 C.3       6 GLP5        0.0000 
     35 CA         19.2435   10.9965   34.3915 C.3       3 GLC5        0.0000 
     36 CA         18.0470   11.2130   33.1300 C.3       9 GLL5        0.0000 
     37 N          22.9120    6.5080   30.7560 N.am      2 SEC2        0.0000 
     38 N          22.6840    7.9080   31.2570 N.am      8 SEL2        0.0000 
     39 N          23.1400    5.1080   30.2550 N.am      5 SEP2        0.0000 
     40 CA         18.5433    9.5532   33.0133 C.3       3 GLC5        0.0000 
     41 CA         19.4040    7.7790   33.4500 C.3       6 GLP5        0.0000 
     42 CA         16.7970   11.3335   28.1197 C.3       3 GLC5        0.0000 
     43 CA         15.7790   11.8920   29.7400 C.3       9 GLL5        0.0000 
     44 CA         17.1760   10.5040   26.4510 C.3       6 GLP5        0.0000 
     45 CA         25.6395    9.0300   34.6193 C.3       3 GLC5        0.0000 
     46 CA         26.0440    8.5540   32.6650 C.3       9 GLL5        0.0000 
     47 CA         24.9230    9.9680   36.0540 C.3       6 GLP5        0.0000 
     48 CA         20.3490   12.0328   29.4565 C.3       3 GLC5        0.0000 
     49 CA         20.4450   12.7220   27.7910 C.3       6 GLP5        0.0000 
     50 CA         20.1486    8.8679   32.2516 C.3       3 GLC5        0.0000 
     51 CA         18.9437   12.5217   29.0980 C.3       3 GLC5        0.0000 
     52 CA         16.5913   10.0425   30.0654 C.3       3 GLC5        0.0000 
     53 CA         13.7763   12.4439   29.4961 C.3       3 GLC5        0.0000 
     54 CA         15.2710   11.1250   30.7850 C.3       9 GLL5        0.0000 
     55 CA         12.7720   13.8340   28.5190 C.3       6 GLP5        0.0000 
     56 CA         13.5495   11.6026   31.8835 C.3       3 GLC5        0.0000 
     57 CA         12.2540   12.4000   32.7470 C.3       6 GLP5        0.0000 
     58 CA         13.9855    9.3136   31.9775 C.3       3 GLC5        0.0000 
     59 CA         13.1260    7.8220   32.9350 C.3       6 GLP5        0.0000 
     60 CA         16.7821   12.2672   33.7692 C.3       3 GLC5        0.0000 
     61 CA         17.3180   11.4420   32.0230 C.3       9 GLL5        0.0000 
     62 CA         16.2020   13.3430   34.9860 C.3       6 GLP5        0.0000 
     63 CA         17.4939    9.9461   31.0730 C.3       3 GLC5        0.0000 
@<TRIPOS>BOND
@<TRIPOS>SUBSTRUCTURE
     1 ALC1       27 GROUP        1 X    ALC  0     ROOT ALC X 1
     2 SEC2       37 GROUP        1 X    SEC  0     **** SEC X 2
     3 GLC5        1 GROUP        1 X    GLC  0     **** GLC X 6
     4 ALP1       29 GROUP        1 Y    ALP  0     ROOT ALP Y 8
     5 SEP2       39 GROUP        1 Y    SEP  0     **** SEP Y 9
     6 GLP5        3 GROUP        1 Y    GLP  0     **** GLP Y 13
     7 ALL1       28 GROUP        1 Z    ALL  0     ROOT ALL Z 15
     8 SEL2       38 GROUP        1 Z    SEL  0     **** SEL Z 16
     9 GLL5        2 GROUP        1 Z    GLL  0     **** GLL Z 20
@<TRIPOS>SET

