#    Name: 3fmk_FMK_1_ligand
#    Modification time : Tue Mar 25 06:05:22 2014

@<TRIPOS>MOLECULE
3fmk_FMK_1_ligand
   46    49     1     0     0
SMALL
NO_CHARGES


@<TRIPOS>ATOM
      1 C21        17.3180   11.4420   32.0230 C.ar      1 FMK361      0.0000 
      2 C20        16.0370   10.8980   31.9270 C.ar      1 FMK361      0.0000 
      3 C24        23.6820   12.6880   32.6010 C.3       1 FMK361      0.0000 
      4 C18        15.7790   11.8920   29.7400 C.ar      1 FMK361      0.0000 
      5 C6         21.5440    8.5730   30.9910 C.ar      1 FMK361      0.0000 
      6 C2         26.0440    8.5540   32.6650 C.3       1 FMK361      0.0000 
      7 C3         27.0310    8.8490   31.5380 C.3       1 FMK361      0.0000 
      8 C4         23.7540    8.5620   31.7750 C.ar      1 FMK361      0.0000 
      9 C11        21.3250   12.6900   31.7750 C.2       1 FMK361      0.0000 
     10 C12        20.2200   12.0300   31.2570 C.2       1 FMK361      0.0000 
     11 C13        20.2860   10.6570   30.9870 C.2       1 FMK361      0.0000 
     12 C16        17.8280   12.2090   30.9730 C.ar      1 FMK361      0.0000 
     13 C17        17.0570   12.4340   29.8370 C.ar      1 FMK361      0.0000 
     14 C8         21.4570    9.9400   31.2480 C.ar      1 FMK361      0.0000 
     15 C9         22.5680   10.5950   31.7760 C.ar      1 FMK361      0.0000 
     16 N1         24.9050    7.8890   32.0380 N.pl3     1 FMK361      0.0000 
     17 C19        15.2710   11.1250   30.7850 C.ar      1 FMK361      0.0000 
     18 F23        14.0360   10.5990   30.6840 F         1 FMK361      0.0000 
     19 F22        18.0470   11.2130   33.1300 F         1 FMK361      0.0000 
     20 O15        19.0840   12.7650   31.0190 O.3       1 FMK361      0.0000 
     21 O14        21.2620   13.9180   32.0030 O.2       1 FMK361      0.0000 
     22 N10        22.5150   11.9810   32.0450 N.am      1 FMK361      0.0000 
     23 N5         23.6920    9.8900   32.0250 N.ar      1 FMK361      0.0000 
     24 N7         22.6840    7.9080   31.2570 N.ar      1 FMK361      0.0000 
     25 C30        26.6680    7.6300   33.7040 C.3       1 FMK361      0.0000 
     26 N25        26.4780    9.8360   30.6110 N.pl3     1 FMK361      0.0000 
     27 N29        25.8610    9.4940   29.4120 N.2       1 FMK361      0.0000 
     28 C28        25.4970   10.6860   28.8830 C.2       1 FMK361      0.0000 
     29 N27        25.8680   11.7120   29.7010 N.2       1 FMK361      0.0000 
     30 N26        26.5090   11.2030   30.8460 N.2       1 FMK361      0.0000 
     31 H          15.6602   10.3323   32.6954 H         1 FMK361      0.0000 
     32 H          15.2120   12.0571   28.9003 H         1 FMK361      0.0000 
     33 H          20.7192    8.0875   30.5949 H         1 FMK361      0.0000 
     34 H          25.7494    9.4657   33.1155 H         1 FMK361      0.0000 
     35 H          27.2513    7.9087   31.0200 H         1 FMK361      0.0000 
     36 H          27.9630    9.2136   31.9848 H         1 FMK361      0.0000 
     37 H          19.4670   10.1749   30.5943 H         1 FMK361      0.0000 
     38 H          17.4329   13.0030   29.0660 H         1 FMK361      0.0000 
     39 H          25.0195    6.8902   31.8074 H         1 FMK361      0.0000 
     40 H          25.0316   10.8011   28.0313 H         1 FMK361      0.0000 
     41 H          24.4561   12.0714   32.7443 H         1 FMK361      0.0000 
     42 H          23.9972   13.4183   31.9949 H         1 FMK361      0.0000 
     43 H          23.4751   13.1089   33.4842 H         1 FMK361      0.0000 
     44 H          26.9383    6.7531   33.3066 H         1 FMK361      0.0000 
     45 H          27.4874    8.0312   34.1135 H         1 FMK361      0.0000 
     46 H          26.0345    7.4302   34.4515 H         1 FMK361      0.0000 
@<TRIPOS>BOND
     1    2    1 ar   
     2   12    1 ar   
     3   19    1 1    
     4   17    2 ar   
     5   31    2 1    
     6   22    3 1    
     7   41    3 1    
     8   42    3 1    
     9   43    3 1    
    10   13    4 ar   
    11   17    4 ar   
    12   32    4 1    
    13   14    5 ar   
    14   24    5 ar   
    15   33    5 1    
    16    7    6 1    
    17   16    6 1    
    18   25    6 1    
    19   34    6 1    
    20   26    7 1    
    21   35    7 1    
    22   36    7 1    
    23   16    8 1    
    24   23    8 ar   
    25   24    8 ar   
    26   10    9 1    
    27   21    9 2    
    28   22    9 am   
    29   11   10 2    
    30   20   10 1    
    31   14   11 1    
    32   37   11 1    
    33   13   12 ar   
    34   20   12 1    
    35   38   13 1    
    36   15   14 ar   
    37   22   15 1    
    38   23   15 ar   
    39   39   16 1    
    40   18   17 1    
    41   44   25 1    
    42   45   25 1    
    43   46   25 1    
    44   27   26 1    
    45   30   26 1    
    46   28   27 2    
    47   29   28 1    
    48   40   28 1    
    49   30   29 2    
@<TRIPOS>SUBSTRUCTURE
     1 FMK361      1 GROUP   
@<TRIPOS>SET

