#    Name: 3i7e_DJR_1_INTS_M
#    Modification time : Tue Mar 25 15:58:38 2014

@<TRIPOS>MOLECULE
3i7e_DJR_1_INTS_M
   86     0     9     0     0
SMALL
NO_CHARGES


@<TRIPOS>ATOM
      1 N          -0.0485    4.3785   12.4845 N.am      2 SEC2        0.0000 
      2 N           0.6820    3.2600   11.9230 N.am      8 SEL2        0.0000 
      3 N          -0.7790    5.4970   13.0460 N.am      5 SEP2        0.0000 
      4 CA          1.5370    5.3955   11.4145 C.3       3 GLC5        0.0000 
      5 CA          1.6270    3.4820   10.8560 C.3       9 GLL5        0.0000 
      6 CA          1.4470    7.3090   11.9730 C.3       6 GLP5        0.0000 
      7 CA         -0.4830    4.1210   11.2095 C.3       3 GLC5        0.0000 
      8 CA         -2.5930    4.7600   11.5630 C.3       6 GLP5        0.0000 
      9 N           2.2200    5.0205   12.5295 N.am      2 SEC2        0.0000 
     10 N           2.6710    4.3860   11.2710 N.am      8 SEL2        0.0000 
     11 N           1.7690    5.6550   13.7880 N.am      5 SEP2        0.0000 
     12 CA          3.2160    3.8375   13.2075 C.3       3 GLC5        0.0000 
     13 CA          3.9710    3.7970   11.1030 C.3       9 GLL5        0.0000 
     14 CA          2.4610    3.8780   15.3120 C.3       6 GLP5        0.0000 
     15 CA          2.7090    5.5530   11.5380 C.3       3 GLC5        0.0000 
     16 CA         -1.0190    3.3025   11.8555 C.3       3 GLC5        0.0000 
     17 CA          0.5550    1.8450   12.1480 C.3       9 GLL5        0.0000 
     18 CA         -1.1280    0.7840   12.4450 C.3       3 GLC5        0.0000 
     19 CA         -2.8110   -0.2770   12.7420 C.3       6 GLP5        0.0000 
     20 O           4.8955    2.2900   14.4595 O.2       1 ALC1        0.0000 
     21 O           4.5940    0.7350   14.0290 O.2       7 ALL1        0.0000 
     22 O           5.1970    3.8450   14.8900 O.2       4 ALP1        0.0000 
     23 CA          6.4440   -0.6930    9.7685 C.3       3 GLC5        0.0000 
     24 CA          8.0890    0.4150   10.6800 C.3       9 GLL5        0.0000 
     25 CA          4.7990   -1.8010    8.8570 C.3       6 GLP5        0.0000 
     26 CA          8.2680    3.8295   13.6355 C.3       3 GLC5        0.0000 
     27 CA          7.2270    2.3980   12.5180 C.3       9 GLL5        0.0000 
     28 CA          9.3090    5.2610   14.7530 C.3       6 GLP5        0.0000 
     29 N           5.9550    1.2530   18.1255 N.am      2 SEC2        0.0000 
     30 N           5.4900    0.7160   16.8910 N.am      8 SEL2        0.0000 
     31 N           6.4200    1.7900   19.3600 N.am      5 SEP2        0.0000 
     32 O           4.6250    1.1015   17.7530 O.2       1 ALC1        0.0000 
     33 O           5.4900    0.7160   16.8910 O.2       7 ALL1        0.0000 
     34 O           3.7600    1.4870   18.6150 O.2       4 ALP1        0.0000 
     35 O           3.9790    0.3630   17.2745 O.2       1 ALC1        0.0000 
     36 O           2.4680    0.0100   17.6580 O.2       4 ALP1        0.0000 
     37 CA          7.1335   -2.0470   18.4900 C.3       3 GLC5        0.0000 
     38 CA          6.0830   -1.6290   16.6490 C.3       9 GLL5        0.0000 
     39 CA          8.1840   -2.4650   20.3310 C.3       6 GLP5        0.0000 
     40 CA         10.7970   -6.5160   15.9860 C.3       3 GLC5        0.0000 
     41 CA          9.7400   -6.1200   17.8320 C.3       9 GLL5        0.0000 
     42 CA         11.8540   -6.9120   14.1400 C.3       6 GLP5        0.0000 
     43 N          10.9565   -5.9900   20.1635 N.am      2 SEC2        0.0000 
     44 N          10.5640   -6.8120   18.7220 N.am      8 SEL2        0.0000 
     45 N          11.3490   -5.1680   21.6050 N.am      5 SEP2        0.0000 
     46 CA          9.6400   -7.4960   20.7825 C.3       3 GLC5        0.0000 
     47 CA         10.4330   -8.2230   19.0390 C.3       9 GLL5        0.0000 
     48 CA          8.8470   -6.7690   22.5260 C.3       6 GLP5        0.0000 
     49 CA         11.9010   -7.2775   19.9710 C.3       3 GLC5        0.0000 
     50 CA         13.3690   -6.3320   20.9030 C.3       6 GLP5        0.0000 
     51 CA         11.2985   -8.9250   17.4675 C.3       3 GLC5        0.0000 
     52 CA         12.1640   -9.6270   15.8960 C.3       6 GLP5        0.0000 
     53 CA          9.9020   -7.9650   15.9625 C.3       3 GLC5        0.0000 
     54 CA          8.6510   -6.6810   17.1060 C.3       9 GLL5        0.0000 
     55 CA         11.1530   -9.2490   14.8190 C.3       6 GLP5        0.0000 
     56 CA          2.1295   -3.6400   19.3270 C.3       3 GLC5        0.0000 
     57 CA          2.3510   -4.0960   17.1840 C.3       9 GLL5        0.0000 
     58 CA          1.9080   -3.1840   21.4700 C.3       6 GLP5        0.0000 
     59 CA          0.9405   -4.9960   17.8700 C.3       3 GLC5        0.0000 
     60 CA         -0.4700   -5.8960   18.5560 C.3       6 GLP5        0.0000 
     61 CA          1.0075   -2.9245   17.3940 C.3       3 GLC5        0.0000 
     62 CA         -0.3360   -1.7530   17.6040 C.3       6 GLP5        0.0000 
     63 CA          1.3142    2.1827   13.8152 C.3       3 GLC5        0.0000 
     64 CA          1.8980    1.2460   11.7350 C.3       9 GLL5        0.0000 
     65 CA          1.4020    2.8200   15.6890 C.3       6 GLP5        0.0000 
     66 CA          0.7243   -0.4388   11.8567 C.3       3 GLC5        0.0000 
     67 CA          0.2220   -2.4230   11.7720 C.3       6 GLP5        0.0000 
     68 CA          9.3758    1.6892   12.3032 C.3       3 GLC5        0.0000 
     69 CA          7.3660    1.0410   12.9470 C.3       9 GLL5        0.0000 
     70 CA         11.1690    2.8310   12.1250 C.3       6 GLP5        0.0000 
     71 CA          8.8215   -1.3083   11.3345 C.3       3 GLC5        0.0000 
     72 CA          7.7990    0.0540   12.0160 C.3       9 GLL5        0.0000 
     73 CA          9.6990   -2.8510   11.3210 C.3       6 GLP5        0.0000 
     74 CA          9.2353    0.0841   13.7112 C.3       3 GLC5        0.0000 
     75 CA         10.9690   -0.2810   14.5790 C.3       6 GLP5        0.0000 
     76 CA          9.4192    0.9415    9.2035 C.3       3 GLC5        0.0000 
     77 CA         10.8180    0.7910    7.9370 C.3       6 GLP5        0.0000 
     78 CA          9.5948    1.9615   11.2975 C.3       3 GLC5        0.0000 
     79 CA          7.9520    1.7690   10.2600 C.3       9 GLL5        0.0000 
     80 CA          9.2720    2.7043   11.9855 C.3       3 GLC5        0.0000 
     81 CA          7.5230    2.7570   11.1740 C.3       9 GLL5        0.0000 
     82 CA          9.4820   -3.0112   18.4207 C.3       3 GLC5        0.0000 
     83 CA          9.2750   -3.9340   16.7760 C.3       9 GLL5        0.0000 
     84 CA          9.3040   -1.6890   19.6250 C.3       6 GLP5        0.0000 
     85 CA         11.5855   -4.1887   16.6702 C.3       3 GLC5        0.0000 
     86 CA         13.5110   -4.0440   16.1240 C.3       6 GLP5        0.0000 
@<TRIPOS>BOND
@<TRIPOS>SUBSTRUCTURE
     1 ALC1       20 GROUP        1 X    ALC  0     ROOT ALC X 1
     2 SEC2        1 GROUP        1 X    SEC  0     **** SEC X 2
     3 GLC5        4 GROUP        1 X    GLC  0     **** GLC X 6
     4 ALP1       22 GROUP        1 Y    ALP  0     ROOT ALP Y 8
     5 SEP2        3 GROUP        1 Y    SEP  0     **** SEP Y 9
     6 GLP5        6 GROUP        1 Y    GLP  0     **** GLP Y 13
     7 ALL1       21 GROUP        1 Z    ALL  0     ROOT ALL Z 15
     8 SEL2        2 GROUP        1 Z    SEL  0     **** SEL Z 16
     9 GLL5        5 GROUP        1 Z    GLL  0     **** GLL Z 20
@<TRIPOS>SET

