#    Name: 3i7e_DJR_1_ligand
#    Modification time : Tue Mar 25 15:58:38 2014

@<TRIPOS>MOLECULE
3i7e_DJR_1_ligand
   77    80     1     0     0
SMALL
NO_CHARGES


@<TRIPOS>ATOM
      1 C           2.2950    2.1710   10.5650 C.3       1 DJR100      0.0000 
      2 O           0.6820    3.2600   11.9230 O.3       1 DJR100      0.0000 
      3 C27         1.6270    3.4820   10.8560 C.3       1 DJR100      0.0000 
      4 O9          2.6710    4.3860   11.2710 O.3       1 DJR100      0.0000 
      5 C2          3.9710    3.7970   11.1030 C.3       1 DJR100      0.0000 
      6 C1          3.7630    2.5140   10.3000 C.3       1 DJR100      0.0000 
      7 C3          0.5550    1.8450   12.1480 C.3       1 DJR100      0.0000 
      8 C5          1.8980    1.2460   11.7350 C.3       1 DJR100      0.0000 
      9 O4          2.8430    1.3390   12.8440 O.3       1 DJR100      0.0000 
     10 C4          3.7420    0.3230   13.0970 C.2       1 DJR100      0.0000 
     11 O5          3.7620   -0.7870   12.5420 O.2       1 DJR100      0.0000 
     12 N1          4.5940    0.7350   14.0290 N.am      1 DJR100      0.0000 
     13 C6          5.6840   -0.1040   14.5700 C.3       1 DJR100      0.0000 
     14 C8          7.0420    0.6480   14.3950 C.3       1 DJR100      0.0000 
     15 C9          7.3660    1.0410   12.9470 C.ar      1 DJR100      0.0000 
     16 C11         7.7990    0.0540   12.0160 C.ar      1 DJR100      0.0000 
     17 C13         8.0890    0.4150   10.6800 C.ar      1 DJR100      0.0000 
     18 C14         7.9520    1.7690   10.2600 C.ar      1 DJR100      0.0000 
     19 C12         7.5230    2.7570   11.1740 C.ar      1 DJR100      0.0000 
     20 C10         7.2270    2.3980   12.5180 C.ar      1 DJR100      0.0000 
     21 C7          5.3000   -0.4350   16.0550 C.3       1 DJR100      0.0000 
     22 O6          5.4900    0.7160   16.8910 O.3       1 DJR100      0.0000 
     23 C15         6.0830   -1.6290   16.6490 C.3       1 DJR100      0.0000 
     24 N2          5.8660   -2.8840   15.8860 N.pl3     1 DJR100      0.0000 
     25 S           7.1990   -3.5630   14.9830 S.o2      1 DJR100      0.0000 
     26 O8          6.4920   -4.4430   13.8830 O.2       1 DJR100      0.0000 
     27 O7          8.0210   -2.3940   14.3210 O.2       1 DJR100      0.0000 
     28 C18         8.1940   -4.5280   16.0650 C.ar      1 DJR100      0.0000 
     29 C23         9.2750   -3.9340   16.7760 C.ar      1 DJR100      0.0000 
     30 C22        10.0450   -4.7330   17.6570 C.ar      1 DJR100      0.0000 
     31 C21         9.7400   -6.1200   17.8320 C.ar      1 DJR100      0.0000 
     32 O1         10.5640   -6.8120   18.7220 O.3       1 DJR100      0.0000 
     33 C26        10.4330   -8.2230   19.0390 C.3       1 DJR100      0.0000 
     34 C20         8.6510   -6.6810   17.1060 C.ar      1 DJR100      0.0000 
     35 C19         7.8800   -5.8920   16.2280 C.ar      1 DJR100      0.0000 
     36 C16         4.5240   -3.5650   15.8830 C.3       1 DJR100      0.0000 
     37 C17         3.8570   -3.8080   17.2690 C.3       1 DJR100      0.0000 
     38 C25         2.3510   -4.0960   17.1840 C.3       1 DJR100      0.0000 
     39 C24         4.5080   -5.0030   17.9790 C.3       1 DJR100      0.0000 
     40 H           1.8405    1.7972    9.6497 H         1 DJR100      0.0000 
     41 H           1.1491    3.8214    9.9718 H         1 DJR100      0.0000 
     42 H           4.4200    3.5333   12.0509 H         1 DJR100      0.0000 
     43 H           4.6366    4.4410   10.5445 H         1 DJR100      0.0000 
     44 H           3.9050    2.7072    9.2700 H         1 DJR100      0.0000 
     45 H           4.3839    1.7470   10.6802 H         1 DJR100      0.0000 
     46 H          -0.2143    1.4069   11.5338 H         1 DJR100      0.0000 
     47 H           0.3874    1.6158   13.1874 H         1 DJR100      0.0000 
     48 H           1.7453    0.2842   11.3728 H         1 DJR100      0.0000 
     49 H           4.5412    1.7004   14.4437 H         1 DJR100      0.0000 
     50 H           5.7239   -1.0296   14.0219 H         1 DJR100      0.0000 
     51 H           7.8438    0.0038   14.7841 H         1 DJR100      0.0000 
     52 H           7.0163    1.5529   15.0194 H         1 DJR100      0.0000 
     53 H           7.8988   -0.9153   12.3184 H         1 DJR100      0.0000 
     54 H           8.3970   -0.2917   10.0128 H         1 DJR100      0.0000 
     55 H           8.1657    2.0211    9.2944 H         1 DJR100      0.0000 
     56 H           7.4245    3.7256   10.8753 H         1 DJR100      0.0000 
     57 H           6.9151    3.1064   13.1788 H         1 DJR100      0.0000 
     58 H           4.2365   -0.7156   16.0520 H         1 DJR100      0.0000 
     59 H           5.7664   -1.7558   17.6932 H         1 DJR100      0.0000 
     60 H           7.1492   -1.3647   16.6566 H         1 DJR100      0.0000 
     61 H           9.4885   -2.9520   16.6514 H         1 DJR100      0.0000 
     62 H          10.8237   -4.3223   18.1731 H         1 DJR100      0.0000 
     63 H           8.4287   -7.6760   17.2280 H         1 DJR100      0.0000 
     64 H           7.1027   -6.3048   15.7160 H         1 DJR100      0.0000 
     65 H           4.6081   -4.5528   15.3734 H         1 DJR100      0.0000 
     66 H           3.8079   -2.9755   15.2648 H         1 DJR100      0.0000 
     67 H           4.0067   -2.9350   17.8873 H         1 DJR100      0.0000 
     68 H          10.5377   -8.7973   18.2271 H         1 DJR100      0.0000 
     69 H          11.1222   -8.5208   19.6995 H         1 DJR100      0.0000 
     70 H           9.5386   -8.4335   19.4336 H         1 DJR100      0.0000 
     71 H           2.1591   -4.9115   16.6380 H         1 DJR100      0.0000 
     72 H           1.9502   -4.2472   18.0876 H         1 DJR100      0.0000 
     73 H           1.8511   -3.3382   16.7647 H         1 DJR100      0.0000 
     74 H           5.4844   -4.8547   18.1363 H         1 DJR100      0.0000 
     75 H           4.0907   -5.1775   18.8708 H         1 DJR100      0.0000 
     76 H           4.4215   -5.8442   17.4453 H         1 DJR100      0.0000 
     77 H           4.5972    0.8816   17.3099 H         1 DJR100      0.0000 
@<TRIPOS>BOND
     1    3    1 1    
     2    6    1 1    
     3    8    1 1    
     4   40    1 1    
     5    3    2 1    
     6    7    2 1    
     7    4    3 1    
     8   41    3 1    
     9    5    4 1    
    10    6    5 1    
    11   42    5 1    
    12   43    5 1    
    13   44    6 1    
    14   45    6 1    
    15    8    7 1    
    16   46    7 1    
    17   47    7 1    
    18    9    8 1    
    19   48    8 1    
    20   10    9 1    
    21   11   10 2    
    22   12   10 am   
    23   13   12 1    
    24   49   12 1    
    25   14   13 1    
    26   21   13 1    
    27   50   13 1    
    28   15   14 1    
    29   51   14 1    
    30   52   14 1    
    31   16   15 ar   
    32   20   15 ar   
    33   17   16 ar   
    34   53   16 1    
    35   18   17 ar   
    36   54   17 1    
    37   19   18 ar   
    38   55   18 1    
    39   20   19 ar   
    40   56   19 1    
    41   57   20 1    
    42   22   21 1    
    43   23   21 1    
    44   58   21 1    
    45   77   22 1    
    46   24   23 1    
    47   59   23 1    
    48   60   23 1    
    49   25   24 1    
    50   36   24 1    
    51   26   25 2    
    52   27   25 2    
    53   28   25 1    
    54   29   28 ar   
    55   35   28 ar   
    56   30   29 ar   
    57   61   29 1    
    58   31   30 ar   
    59   62   30 1    
    60   32   31 1    
    61   34   31 ar   
    62   33   32 1    
    63   68   33 1    
    64   69   33 1    
    65   70   33 1    
    66   35   34 ar   
    67   63   34 1    
    68   64   35 1    
    69   37   36 1    
    70   65   36 1    
    71   66   36 1    
    72   38   37 1    
    73   39   37 1    
    74   67   37 1    
    75   71   38 1    
    76   72   38 1    
    77   73   38 1    
    78   74   39 1    
    79   75   39 1    
    80   76   39 1    
@<TRIPOS>SUBSTRUCTURE
     1 DJR100      1 GROUP   
@<TRIPOS>SET

