#    Name: 1pmq_880_1_INTS_M
#    Modification time : Mon Mar 24 21:56:51 2014

@<TRIPOS>MOLECULE
1pmq_880_1_INTS_M
  103     0     9     0     0
SMALL
NO_CHARGES


@<TRIPOS>ATOM
      1 CA         21.4820    9.1710   29.0395 C.3       3 GLC5        0.0000 
      2 CA         23.2200   10.0300   30.0330 C.3       9 GLL5        0.0000 
      3 CA         19.7440    8.3120   28.0460 C.3       6 GLP5        0.0000 
      4 CA         26.6860   10.7550   32.2795 C.3       3 GLC5        0.0000 
      5 CA         24.8020   10.2390   32.0430 C.3       9 GLL5        0.0000 
      6 CA         28.5700   11.2710   32.5160 C.3       6 GLP5        0.0000 
      7 CA         24.6010   11.1440   33.6225 C.3       3 GLC5        0.0000 
      8 CA         24.4000   12.0490   35.2020 C.3       6 GLP5        0.0000 
      9 CA         23.6115   14.3520   25.8645 C.3       3 GLC5        0.0000 
     10 CA         23.3330   14.8180   27.9400 C.3       9 GLL5        0.0000 
     11 CA         23.8900   13.8860   23.7890 C.3       6 GLP5        0.0000 
     12 OD1        23.8705   17.0665   29.0015 O.co2     2 ASC3        0.0000 
     13 OD1        24.0890   15.7650   28.8000 O.co2     8 ASL3        0.0000 
     14 OD1        23.6520   18.3680   29.2030 O.co2     5 ASP3        0.0000 
     15 OD1        24.8775   16.5290   28.1565 O.co2     2 ASC3        0.0000 
     16 OD1        25.6660   17.2930   27.5130 O.co2     5 ASP3        0.0000 
     17 CA         26.1210   16.5480   30.3185 C.3       3 GLC5        0.0000 
     18 CA         24.8720   15.1210   29.8960 C.3       9 GLL5        0.0000 
     19 CA         27.3700   17.9750   30.7410 C.3       6 GLP5        0.0000 
     20 CA         23.8465   13.7310   32.7280 C.3       3 GLC5        0.0000 
     21 CA         23.9760   14.1640   30.8050 C.3       9 GLL5        0.0000 
     22 CA         23.7170   13.2980   34.6510 C.3       6 GLP5        0.0000 
     23 CA         19.2660   12.2100   31.0750 C.3       3 GLC5        0.0000 
     24 CA         19.6320   12.4140   33.1430 C.3       9 GLL5        0.0000 
     25 CA         18.9000   12.0060   29.0070 C.3       6 GLP5        0.0000 
     26 CA         20.3505    8.7420   30.0615 C.3       3 GLC5        0.0000 
     27 CA         20.9570    9.1720   32.0770 C.3       9 GLL5        0.0000 
     28 CA         21.5240   11.3675   34.9040 C.3       3 GLC5        0.0000 
     29 CA         19.6270   11.8130   34.4300 C.3       9 GLL5        0.0000 
     30 CA         23.4210   10.9220   35.3780 C.3       6 GLP5        0.0000 
     31 CA         17.7070   12.2550   31.4810 C.3       3 GLC5        0.0000 
     32 CA         18.6100   13.3700   32.8010 C.3       9 GLL5        0.0000 
     33 CA         16.8040   11.1400   30.1610 C.3       6 GLP5        0.0000 
     34 CA         19.3725    9.7470   36.5000 C.3       3 GLC5        0.0000 
     35 CA         18.7700   11.3740   36.8540 C.3       9 GLL5        0.0000 
     36 CA         19.9750    8.1200   36.1460 C.3       6 GLP5        0.0000 
     37 CA         19.8000   11.0590   38.3715 C.3       3 GLC5        0.0000 
     38 CA         20.8300   10.7440   39.8890 C.3       6 GLP5        0.0000 
     39 CA         19.7710   13.0135   36.9815 C.3       3 GLC5        0.0000 
     40 CA         20.7720   14.6530   37.1090 C.3       6 GLP5        0.0000 
     41 CA         17.4985   11.1380   38.5380 C.3       3 GLC5        0.0000 
     42 CA         16.2270   10.9020   40.2220 C.3       6 GLP5        0.0000 
     43 CA         17.4885   10.3295   36.0950 C.3       3 GLC5        0.0000 
     44 CA         16.2070    9.2850   35.3360 C.3       6 GLP5        0.0000 
     45 CA         15.3200   13.4290   34.7760 C.3       3 GLC5        0.0000 
     46 CA         16.4250   13.4170   36.2560 C.3       9 GLL5        0.0000 
     47 CA         14.2150   13.4410   33.2960 C.3       6 GLP5        0.0000 
     48 CA         14.7435   13.4960   36.8530 C.3       3 GLC5        0.0000 
     49 CA         13.0620   13.5750   37.4500 C.3       6 GLP5        0.0000 
     50 CA         16.5555   14.3605   37.6235 C.3       3 GLC5        0.0000 
     51 CA         16.6860   15.3040   38.9910 C.3       6 GLP5        0.0000 
     52 CA         16.3160   11.3510   35.7960 C.3       3 GLC5        0.0000 
     53 CA         18.2345    9.9975   31.3785 C.3       3 GLC5        0.0000 
     54 CA         19.6650    8.8550   32.5960 C.3       9 GLL5        0.0000 
     55 CA         18.9545    5.7540   34.0010 C.3       3 GLC5        0.0000 
     56 CA         19.3860    7.4770   32.7790 C.3       9 GLL5        0.0000 
     57 CA         18.5230    4.0310   35.2230 C.3       6 GLP5        0.0000 
     58 CA         18.2235    6.4210   31.8370 C.3       3 GLC5        0.0000 
     59 CA         17.0610    5.3650   30.8950 C.3       6 GLP5        0.0000 
     60 N          19.5760    5.3010   32.6760 N.am      1 SEC2        0.0000 
     61 N          20.2980    6.4960   32.5120 N.am      7 SEL2        0.0000 
     62 N          18.8540    4.1060   32.8400 N.am      4 SEP2        0.0000 
     63 CA         22.8935    7.1525   33.3090 C.3       3 GLC5        0.0000 
     64 CA         21.4760    6.8920   32.0000 C.3       9 GLL5        0.0000 
     65 CA         24.3110    7.4130   34.6180 C.3       6 GLP5        0.0000 
     66 CA         21.5310    5.7245   33.6755 C.3       3 GLC5        0.0000 
     67 CA         21.5860    4.5570   35.3510 C.3       6 GLP5        0.0000 
     68 CA         19.9245    5.7995   31.2585 C.3       3 GLC5        0.0000 
     69 CA         18.3730    4.7070   30.5170 C.3       6 GLP5        0.0000 
     70 CA         21.5030    7.4120   28.7035 C.3       3 GLC5        0.0000 
     71 CA         23.2620    6.5120   29.3610 C.3       9 GLL5        0.0000 
     72 CA         23.5975    7.2555   26.8395 C.3       3 GLC5        0.0000 
     73 CA         24.4500    6.1480   28.4190 C.3       9 GLL5        0.0000 
     74 CA         22.7450    8.3630   25.2600 C.3       6 GLP5        0.0000 
     75 CA         24.4010    6.2660   32.9310 C.3       3 GLC5        0.0000 
     76 CA         24.4910    5.1190   31.2440 C.3       9 GLL5        0.0000 
     77 CA         21.9408   12.7563   33.6600 C.3       3 GLC5        0.0000 
     78 CA         20.6970   12.0150   32.1950 C.3       9 GLL5        0.0000 
     79 CA         19.9337   11.6762   30.5045 C.3       3 GLC5        0.0000 
     80 CA         22.2593   10.4235   33.6605 C.3       3 GLC5        0.0000 
     81 CA         21.2380   10.6780   31.8090 C.3       9 GLL5        0.0000 
     82 CA         25.1805    9.0222   32.9958 C.3       3 GLC5        0.0000 
     83 CA         25.6800    8.1140   34.6310 C.3       6 GLP5        0.0000 
     84 CA         20.8302   12.7542   29.1870 C.3       3 GLC5        0.0000 
     85 CA         23.1420   13.1220   29.9410 C.3       9 GLL5        0.0000 
     86 CA         17.8807   11.0637   33.7317 C.3       3 GLC5        0.0000 
     87 CA         16.1320   10.0140   33.6770 C.3       6 GLP5        0.0000 
     88 CA         19.5555   10.0480   35.5235 C.3       3 GLC5        0.0000 
     89 CA         19.9540   13.3145   36.0050 C.3       3 GLC5        0.0000 
     90 CA         17.1305   11.3060   34.4518 C.3       3 GLC5        0.0000 
     91 CA         18.6450   12.1390   35.3720 C.3       9 GLL5        0.0000 
     92 CA         17.1120   11.7780   33.4835 C.3       3 GLC5        0.0000 
     93 CA         17.5740   13.7140   33.7790 C.3       9 GLL5        0.0000 
     94 CA         18.7784   15.0284   34.2853 C.3       3 GLC5        0.0000 
     95 CA         17.6130   13.0570   35.0810 C.3       9 GLL5        0.0000 
     96 CA         19.4550   16.6790   34.9550 C.3       6 GLP5        0.0000 
     97 CA         16.1584   13.4094   33.4558 C.3       3 GLC5        0.0000 
     98 CA         17.8287    9.0900   33.1822 C.3       3 GLC5        0.0000 
     99 CA         19.9118    8.1826   34.3519 C.3       3 GLC5        0.0000 
    100 CA         22.9055    4.9045   28.4320 C.3       3 GLC5        0.0000 
    101 CA         23.1200    5.5740   30.5870 C.3       9 GLL5        0.0000 
    102 CA         22.6200    3.7660   26.8900 C.3       6 GLP5        0.0000 
    103 CA         23.9549    4.5234   28.1685 C.3       3 GLC5        0.0000 
@<TRIPOS>BOND
@<TRIPOS>SUBSTRUCTURE
     1 SEC2       60 GROUP        1 X    SEC  0     ROOT SEC X 2
     2 ASC3       12 GROUP        1 X    ASC  0     **** ASC X 3
     3 GLC5        1 GROUP        1 X    GLC  0     **** GLC X 6
     4 SEP2       62 GROUP        1 Y    SEP  0     ROOT SEP Y 9
     5 ASP3       14 GROUP        1 Y    ASP  0     **** ASP Y 10
     6 GLP5        3 GROUP        1 Y    GLP  0     **** GLP Y 13
     7 SEL2       61 GROUP        1 Z    SEL  0     ROOT SEL Z 16
     8 ASL3       13 GROUP        1 Z    ASL  0     **** ASL Z 17
     9 GLL5        2 GROUP        1 Z    GLL  0     **** GLL Z 20
@<TRIPOS>SET

