#    Name: 1pmq_880_1_ligand
#    Modification time : Mon Mar 24 21:56:52 2014

@<TRIPOS>MOLECULE
1pmq_880_1_ligand
   68    72     1     0     0
SMALL
NO_CHARGES


@<TRIPOS>ATOM
      1 N1         22.3400   10.9660   30.8020 N.pl3     1 880501      0.0000 
      2 C2         22.3960   12.3250   30.6660 C.2       1 880501      0.0000 
      3 N3         21.4840   12.9700   31.4520 N.2       1 880501      0.0000 
      4 C4         20.6970   12.0150   32.1950 C.2       1 880501      0.0000 
      5 C5         21.2380   10.6780   31.8090 C.2       1 880501      0.0000 
      6 C6         23.2200   10.0300   30.0330 C.3       1 880501      0.0000 
      7 C7         24.5600    9.6220   30.6780 C.3       1 880501      0.0000 
      8 C10        24.8020   10.2390   32.0430 C.3       1 880501      0.0000 
      9 C16        23.1420   13.1220   29.9410 C.3       1 880501      0.0000 
     10 C17        22.3790   13.8830   28.7930 C.3       1 880501      0.0000 
     11 C18        23.3330   14.8180   27.9400 C.3       1 880501      0.0000 
     12 N19        24.0890   15.7650   28.8000 N.4       1 880501      0.0000 
     13 C20        24.8720   15.1210   29.8960 C.3       1 880501      0.0000 
     14 C21        23.9760   14.1640   30.8050 C.3       1 880501      0.0000 
     15 C35        19.6320   12.4140   33.1430 C.ar      1 880501      0.0000 
     16 C36        20.9570    9.1720   32.0770 C.ar      1 880501      0.0000 
     17 C37        19.6270   11.8130   34.4300 C.ar      1 880501      0.0000 
     18 C38        18.6450   12.1390   35.3720 C.ar      1 880501      0.0000 
     19 C39        17.6130   13.0570   35.0810 C.ar      1 880501      0.0000 
     20 C40        17.5740   13.7140   33.7790 C.ar      1 880501      0.0000 
     21 C41        18.6100   13.3700   32.8010 C.ar      1 880501      0.0000 
     22 CL45       18.7700   11.3740   36.8540 Cl        1 880501      0.0000 
     23 CL46       16.4250   13.4170   36.2560 Cl        1 880501      0.0000 
     24 C47        19.6650    8.8550   32.5960 C.ar      1 880501      0.0000 
     25 C48        19.3860    7.4770   32.7790 C.ar      1 880501      0.0000 
     26 N49        20.2980    6.4960   32.5120 N.ar      1 880501      0.0000 
     27 C50        21.4760    6.8920   32.0000 C.ar      1 880501      0.0000 
     28 N51        21.8010    8.1660   31.6980 N.ar      1 880501      0.0000 
     29 N54        22.4500    5.9700   31.7930 N.pl3     1 880501      0.0000 
     30 C55        23.1200    5.5740   30.5870 C.3       1 880501      0.0000 
     31 C56        23.2620    6.5120   29.3610 C.3       1 880501      0.0000 
     32 C57        24.4500    6.1480   28.4190 C.3       1 880501      0.0000 
     33 C58        25.7050    5.6830   29.0930 C.3       1 880501      0.0000 
     34 C59        25.5020    4.6460   30.1380 C.3       1 880501      0.0000 
     35 C60        24.4910    5.1190   31.2440 C.3       1 880501      0.0000 
     36 H          23.4473   10.4733   29.0298 H         1 880501      0.0000 
     37 H          22.6537    9.0911   29.8041 H         1 880501      0.0000 
     38 H          25.3767    9.9105   29.9962 H         1 880501      0.0000 
     39 H          24.5849    8.5233   30.7635 H         1 880501      0.0000 
     40 H          23.9585   12.5533   29.3815 H         1 880501      0.0000 
     41 H          21.6011   14.4974   29.2355 H         1 880501      0.0000 
     42 H          21.9276   13.1536   28.1276 H         1 880501      0.0000 
     43 H          22.7042   15.3530   27.2254 H         1 880501      0.0000 
     44 H          24.0101   14.1658   27.3847 H         1 880501      0.0000 
     45 H          25.3087   15.8725   30.5589 H         1 880501      0.0000 
     46 H          25.6819   14.5087   29.4909 H         1 880501      0.0000 
     47 H          24.6263   13.6184   31.4739 H         1 880501      0.0000 
     48 H          23.2875   14.7747   31.3716 H         1 880501      0.0000 
     49 H          20.3593   11.1298   34.6639 H         1 880501      0.0000 
     50 H          16.8690   14.3740   33.5593 H         1 880501      0.0000 
     51 H          18.5979   13.8074   31.8941 H         1 880501      0.0000 
     52 H          19.0053    9.5605   32.8140 H         1 880501      0.0000 
     53 H          18.4339    7.2228   33.1349 H         1 880501      0.0000 
     54 H          22.8032    5.4198   32.6817 H         1 880501      0.0000 
     55 H          22.6832    4.5965   30.2570 H         1 880501      0.0000 
     56 H          23.3999    7.5408   29.7148 H         1 880501      0.0000 
     57 H          22.3329    6.4795   28.7793 H         1 880501      0.0000 
     58 H          24.6663    7.0417   27.7942 H         1 880501      0.0000 
     59 H          24.0895    5.3681   27.7135 H         1 880501      0.0000 
     60 H          26.2186    6.5629   29.5423 H         1 880501      0.0000 
     61 H          26.4052    5.2941   28.3195 H         1 880501      0.0000 
     62 H          26.4453    4.4065   30.6369 H         1 880501      0.0000 
     63 H          25.1032    3.7262   29.7010 H         1 880501      0.0000 
     64 H          24.2943    4.3017   31.9162 H         1 880501      0.0000 
     65 H          24.9120    5.9564   31.7732 H         1 880501      0.0000 
     66 H          25.6781    9.9519   32.4303 H         1 880501      0.0000 
     67 H          24.8129   11.2381   32.0023 H         1 880501      0.0000 
     68 H          24.0927    9.9800   32.6987 H         1 880501      0.0000 
@<TRIPOS>BOND
     1    2    1 1    
     2    5    1 1    
     3    6    1 1    
     4    3    2 2    
     5    9    2 1    
     6    4    3 1    
     7    5    4 2    
     8   15    4 1    
     9   16    5 1    
    10    7    6 1    
    11   36    6 1    
    12   37    6 1    
    13    8    7 1    
    14   38    7 1    
    15   39    7 1    
    16   66    8 1    
    17   67    8 1    
    18   68    8 1    
    19   10    9 1    
    20   14    9 1    
    21   40    9 1    
    22   11   10 1    
    23   41   10 1    
    24   42   10 1    
    25   12   11 1    
    26   43   11 1    
    27   44   11 1    
    28   13   12 1    
    29   14   13 1    
    30   45   13 1    
    31   46   13 1    
    32   47   14 1    
    33   48   14 1    
    34   17   15 ar   
    35   21   15 ar   
    36   24   16 ar   
    37   28   16 ar   
    38   18   17 ar   
    39   49   17 1    
    40   19   18 ar   
    41   22   18 1    
    42   20   19 ar   
    43   23   19 1    
    44   21   20 ar   
    45   50   20 1    
    46   51   21 1    
    47   25   24 ar   
    48   52   24 1    
    49   26   25 ar   
    50   53   25 1    
    51   27   26 ar   
    52   28   27 ar   
    53   29   27 1    
    54   30   29 1    
    55   54   29 1    
    56   31   30 1    
    57   35   30 1    
    58   55   30 1    
    59   32   31 1    
    60   56   31 1    
    61   57   31 1    
    62   33   32 1    
    63   58   32 1    
    64   59   32 1    
    65   34   33 1    
    66   60   33 1    
    67   61   33 1    
    68   35   34 1    
    69   62   34 1    
    70   63   34 1    
    71   64   35 1    
    72   65   35 1    
@<TRIPOS>SUBSTRUCTURE
     1 880501      1 GROUP   
@<TRIPOS>SET

