#    Name: 2h7p_468_1_INTS_M
#    Modification time : Tue Mar 25 15:42:56 2014

@<TRIPOS>MOLECULE
2h7p_468_1_INTS_M
   60     0     6     0     0
SMALL
NO_CHARGES


@<TRIPOS>ATOM
      1 CA         46.3070   53.0425   57.7310 C.3       2 GLC5        0.0000 
      2 CA         44.5680   53.5240   58.7020 C.3       6 GLL5        0.0000 
      3 CA         48.0460   52.5610   56.7600 C.3       4 GLP5        0.0000 
      4 CA         39.7055   54.6930   60.2590 C.3       2 GLC5        0.0000 
      5 CA         41.5320   53.8470   59.4110 C.3       6 GLL5        0.0000 
      6 CA         37.8790   55.5390   61.1070 C.3       4 GLP5        0.0000 
      7 CA         39.7645   54.2665   58.0985 C.3       2 GLC5        0.0000 
      8 CA         37.9970   54.6860   56.7860 C.3       4 GLP5        0.0000 
      9 CA         40.7625   55.2695   57.1920 C.3       2 GLC5        0.0000 
     10 CA         42.3210   55.0490   58.7100 C.3       6 GLL5        0.0000 
     11 CA         39.2040   55.4900   55.6740 C.3       4 GLP5        0.0000 
     12 N          38.6700   51.1775   57.0570 N.am      1 SEC2        0.0000 
     13 N          40.0080   51.0560   57.3830 N.am      5 SEL2        0.0000 
     14 N          37.3320   51.2990   56.7310 N.am      3 SEP2        0.0000 
     15 N          40.8650   50.9075   56.4675 N.am      1 SEC2        0.0000 
     16 N          41.7220   50.7590   55.5520 N.am      3 SEP2        0.0000 
     17 CA         35.8485   50.9745   65.0910 C.3       2 GLC5        0.0000 
     18 CA         35.9270   50.6900   62.9570 C.3       6 GLL5        0.0000 
     19 CA         35.7700   51.2590   67.2250 C.3       4 GLP5        0.0000 
     20 CA         35.3105   48.5565   60.8745 C.3       2 GLC5        0.0000 
     21 CA         35.7830   49.3140   62.3470 C.3       6 GLL5        0.0000 
     22 CA         34.8380   47.7990   59.4020 C.3       4 GLP5        0.0000 
     23 CA         35.7400   51.0550   61.0000 C.3       2 GLC5        0.0000 
     24 CA         35.6970   52.7960   59.6530 C.3       4 GLP5        0.0000 
     25 CA         32.3245   50.2085   62.0195 C.3       2 GLC5        0.0000 
     26 CA         33.0360   50.6430   63.6860 C.3       6 GLL5        0.0000 
     27 CA         31.6130   49.7740   60.3530 C.3       4 GLP5        0.0000 
     28 CA         33.4800   48.7730   63.8260 C.3       2 GLC5        0.0000 
     29 CA         33.9240   46.9030   63.9660 C.3       4 GLP5        0.0000 
     30 CA         42.8545   51.2330   57.3685 C.3       2 GLC5        0.0000 
     31 CA         42.0550   52.5660   58.7520 C.3       6 GLL5        0.0000 
     32 CA         42.8730   50.0010   55.8570 C.3       4 GLP5        0.0000 
     33 CA         43.3805   56.3175   57.3448 C.3       2 GLC5        0.0000 
     34 CA         43.6310   57.6240   55.9400 C.3       4 GLP5        0.0000 
     35 CA         38.1065   51.3792   59.4663 C.3       2 GLC5        0.0000 
     36 CA         39.2980   50.4780   59.4560 C.3       6 GLL5        0.0000 
     37 CA         36.6950   52.3250   58.8010 C.3       4 GLP5        0.0000 
     38 CA         40.8150   50.7078   62.5490 C.3       2 GLC5        0.0000 
     39 CA         39.7380   50.3890   60.8070 C.3       6 GLL5        0.0000 
     40 CA         41.1220   50.8190   64.2930 C.3       4 GLP5        0.0000 
     41 CA         41.0015   48.8479   59.7081 C.3       2 GLC5        0.0000 
     42 CA         41.2780   50.8040   60.8030 C.3       6 GLL5        0.0000 
     43 CA         41.6050   47.0770   58.9490 C.3       4 GLP5        0.0000 
     44 CA         37.2760   54.2973   62.4898 C.3       2 GLC5        0.0000 
     45 CA         37.2890   52.7310   63.5630 C.3       6 GLL5        0.0000 
     46 CA         34.1370   54.2357   64.7305 C.3       2 GLC5        0.0000 
     47 CA         36.0570   53.3800   64.1820 C.3       6 GLL5        0.0000 
     48 CA         32.8590   55.4340   65.2740 C.3       4 GLP5        0.0000 
     49 CA         34.4985   53.8033   62.5285 C.3       2 GLC5        0.0000 
     50 CA         34.7730   52.6950   64.1920 C.3       6 GLL5        0.0000 
     51 CA         33.5820   54.5690   60.8700 C.3       4 GLP5        0.0000 
     52 CA         36.8849   52.3148   65.3804 C.3       2 GLC5        0.0000 
     53 CA         37.1100   51.9000   67.0380 C.3       4 GLP5        0.0000 
     54 CA         35.2380   51.6513   65.5657 C.3       2 GLC5        0.0000 
     55 CA         33.5547   52.1178   61.9387 C.3       2 GLC5        0.0000 
     56 CA         34.6390   51.3920   63.6210 C.3       6 GLL5        0.0000 
     57 CA         33.2720   53.2180   60.2240 C.3       4 GLP5        0.0000 
     58 CA         38.1534   50.6977   64.0881 C.3       2 GLC5        0.0000 
     59 CA         39.7120   50.0110   65.0660 C.3       4 GLP5        0.0000 
     60 CA         34.8895   48.4525   63.3090 C.3       2 GLC5        0.0000 
@<TRIPOS>BOND
@<TRIPOS>SUBSTRUCTURE
     1 SEC2       12 GROUP        1 X    SEC  0     ROOT SEC X 2
     2 GLC5        1 GROUP        1 X    GLC  0     **** GLC X 6
     3 SEP2       14 GROUP        1 Y    SEP  0     ROOT SEP Y 9
     4 GLP5        3 GROUP        1 Y    GLP  0     **** GLP Y 13
     5 SEL2       13 GROUP        1 Z    SEL  0     ROOT SEL Z 16
     6 GLL5        2 GROUP        1 Z    GLL  0     **** GLL Z 20
@<TRIPOS>SET

