#    Name: 2h7p_468_1_ligand
#    Modification time : Tue Mar 25 15:42:56 2014

@<TRIPOS>MOLECULE
2h7p_468_1_ligand
   46    48     1     0     0
SMALL
NO_CHARGES


@<TRIPOS>ATOM
      1 C1         44.5680   53.5240   58.7020 C.3       1 468501      0.0000 
      2 C2         43.6170   52.3640   59.0080 C.3       1 468501      0.0000 
      3 C3         42.0550   52.5660   58.7520 C.3       1 468501      0.0000 
      4 C4         41.5320   53.8470   59.4110 C.3       1 468501      0.0000 
      5 C5         42.3210   55.0490   58.7100 C.3       1 468501      0.0000 
      6 C6         43.9390   54.9730   58.7890 C.3       1 468501      0.0000 
      7 C7         40.2950   50.9190   58.5750 C.2       1 468501      0.0000 
      8 C8         39.2980   50.4780   59.4560 C.3       1 468501      0.0000 
      9 C9         39.7380   50.3890   60.8070 C.3       1 468501      0.0000 
     10 C10        41.2780   50.8040   60.8030 C.3       1 468501      0.0000 
     11 N11        41.5350   51.1480   59.2060 N.am      1 468501      0.0000 
     12 C12        39.0400   51.4430   61.5890 C.2       1 468501      0.0000 
     13 N13        38.0180   50.8250   62.4830 N.am      1 468501      0.0000 
     14 O14        39.2690   52.5920   61.3930 O.2       1 468501      0.0000 
     15 O15        40.0080   51.0560   57.3830 O.2       1 468501      0.0000 
     16 C15        37.2360   51.4270   62.9640 C.ar      1 468501      0.0000 
     17 C20        37.2890   52.7310   63.5630 C.ar      1 468501      0.0000 
     18 C19        36.0570   53.3800   64.1820 C.ar      1 468501      0.0000 
     19 C18        34.7730   52.6950   64.1920 C.ar      1 468501      0.0000 
     20 C17        34.6390   51.3920   63.6210 C.ar      1 468501      0.0000 
     21 C16        35.9270   50.6900   62.9570 C.ar      1 468501      0.0000 
     22 C23        35.7830   49.3140   62.3470 C.3       1 468501      0.0000 
     23 CL1        33.0360   50.6430   63.6860 Cl        1 468501      0.0000 
     24 H          44.9826   53.4024   57.6850 H         1 468501      0.0000 
     25 H          45.4251   53.4916   59.3986 H         1 468501      0.0000 
     26 H          43.7332   52.0631   60.0773 H         1 468501      0.0000 
     27 H          43.9276   51.4666   58.4201 H         1 468501      0.0000 
     28 H          41.9695   52.5997   57.6689 H         1 468501      0.0000 
     29 H          41.7681   53.8596   60.4440 H         1 468501      0.0000 
     30 H          40.4988   53.9748   59.2129 H         1 468501      0.0000 
     31 H          42.0092   55.9881   59.1750 H         1 468501      0.0000 
     32 H          42.0408   55.0801   57.6537 H         1 468501      0.0000 
     33 H          44.3362   55.5831   57.9703 H         1 468501      0.0000 
     34 H          44.2432   55.4369   59.7338 H         1 468501      0.0000 
     35 H          38.9019   49.4778   59.1262 H         1 468501      0.0000 
     36 H          38.4015   51.1556   59.3997 H         1 468501      0.0000 
     37 H          39.6544   49.4615   61.2328 H         1 468501      0.0000 
     38 H          41.8641   49.9898   61.0458 H         1 468501      0.0000 
     39 H          41.4099   51.6778   61.3363 H         1 468501      0.0000 
     40 H          38.1997   49.7570   62.5466 H         1 468501      0.0000 
     41 H          38.1499   53.2629   63.5933 H         1 468501      0.0000 
     42 H          36.1627   54.2945   64.5815 H         1 468501      0.0000 
     43 H          33.9717   53.1570   64.6114 H         1 468501      0.0000 
     44 H          36.0119   49.3135   61.3736 H         1 468501      0.0000 
     45 H          36.3825   48.6470   62.7894 H         1 468501      0.0000 
     46 H          34.8485   48.9676   62.4285 H         1 468501      0.0000 
@<TRIPOS>BOND
     1    2    1 1    
     2    6    1 1    
     3   24    1 1    
     4   25    1 1    
     5    3    2 1    
     6   26    2 1    
     7   27    2 1    
     8    4    3 1    
     9   11    3 1    
    10   28    3 1    
    11    5    4 1    
    12   29    4 1    
    13   30    4 1    
    14    6    5 1    
    15   31    5 1    
    16   32    5 1    
    17   33    6 1    
    18   34    6 1    
    19    8    7 1    
    20   11    7 am   
    21   15    7 2    
    22    9    8 1    
    23   35    8 1    
    24   36    8 1    
    25   10    9 1    
    26   12    9 1    
    27   37    9 1    
    28   11   10 1    
    29   38   10 1    
    30   39   10 1    
    31   13   12 am   
    32   14   12 2    
    33   16   13 1    
    34   40   13 1    
    35   17   16 ar   
    36   21   16 ar   
    37   18   17 ar   
    38   41   17 1    
    39   19   18 ar   
    40   42   18 1    
    41   20   19 ar   
    42   43   19 1    
    43   21   20 ar   
    44   23   20 1    
    45   22   21 1    
    46   44   22 1    
    47   45   22 1    
    48   46   22 1    
@<TRIPOS>SUBSTRUCTURE
     1 468501      1 GROUP   
@<TRIPOS>SET

