#    Name: 3lfn_A27_1_INTS_M
#    Modification time : Mon Mar 24 21:36:31 2014

@<TRIPOS>MOLECULE
3lfn_A27_1_INTS_M
   71     0     9     0     0
SMALL
NO_CHARGES


@<TRIPOS>ATOM
      1 CA         39.5900   -9.6680   26.9430 C.3       3 GLC5        0.0000 
      2 CA         38.7670   -7.8590   26.6150 C.3       9 GLL5        0.0000 
      3 CA         40.4130  -11.4770   27.2710 C.3       6 GLP5        0.0000 
      4 CA         39.4075   -5.3430   23.1945 C.3       3 GLC5        0.0000 
      5 CA         39.1280   -5.9940   25.1150 C.3       9 GLL5        0.0000 
      6 CA         39.6870   -4.6920   21.2740 C.3       6 GLP5        0.0000 
      7 CA         39.2405   -8.7045   20.0730 C.3       3 GLC5        0.0000 
      8 CA         39.0840   -9.1830   22.0430 C.3       9 GLL5        0.0000 
      9 CA         39.3970   -8.2260   18.1030 C.3       6 GLP5        0.0000 
     10 CA         37.7605   -9.9440   20.6340 C.3       3 GLC5        0.0000 
     11 CA         36.4370  -10.7050   19.2250 C.3       6 GLP5        0.0000 
     12 CA         42.1595   -8.3120   23.8950 C.3       3 GLC5        0.0000 
     13 CA         40.5430   -9.0360   24.4000 C.3       9 GLL5        0.0000 
     14 CA         43.7760   -7.5880   23.3900 C.3       6 GLP5        0.0000 
     15 CA         38.3620   -7.6485   19.8145 C.3       3 GLC5        0.0000 
     16 CA         37.3270   -7.0710   21.5260 C.3       9 GLL5        0.0000 
     17 CA         36.8820   -8.8880   20.3755 C.3       3 GLC5        0.0000 
     18 CA         33.4290   -5.0955   22.8440 C.3       3 GLC5        0.0000 
     19 CA         35.2150   -6.1260   22.1670 C.3       9 GLL5        0.0000 
     20 CA         31.6430   -4.0650   23.5210 C.3       6 GLP5        0.0000 
     21 CA         36.0145   -8.3980   25.4815 C.3       3 GLC5        0.0000 
     22 CA         36.4610   -7.4660   23.7540 C.3       9 GLL5        0.0000 
     23 CA         35.5680   -9.3300   27.2090 C.3       6 GLP5        0.0000 
     24 O          40.5135  -11.2570   20.0465 O.2       1 ALC1        0.0000 
     25 O          40.8560  -10.8010   21.3770 O.2       7 ALL1        0.0000 
     26 O          40.1710  -11.7130   18.7160 O.2       4 ALP1        0.0000 
     27 N          42.7840  -11.8485   21.0215 N.am      2 SEC2        0.0000 
     28 N          41.8720  -11.2570   21.9120 N.am      8 SEL2        0.0000 
     29 N          43.6960  -12.4400   20.1310 N.am      5 SEP2        0.0000 
     30 O          44.0715  -11.6085   23.1770 O.2       1 ALC1        0.0000 
     31 O          43.1070  -11.0760   23.8700 O.2       7 ALL1        0.0000 
     32 O          45.0360  -12.1410   22.4840 O.2       4 ALP1        0.0000 
     33 CA         46.2660  -12.1865   24.0785 C.3       3 GLC5        0.0000 
     34 CA         44.8490  -11.2560   25.5110 C.3       9 GLL5        0.0000 
     35 CA         47.6830  -13.1170   22.6460 C.3       6 GLP5        0.0000 
     36 CA         46.6970  -10.5800   25.0220 C.3       3 GLC5        0.0000 
     37 CA         48.5450   -9.9040   24.5330 C.3       6 GLP5        0.0000 
     38 CA         44.3125   -9.4220   24.4505 C.3       3 GLC5        0.0000 
     39 CA         42.5960  -13.3355   26.3360 C.3       3 GLC5        0.0000 
     40 CA         44.6370  -12.7000   25.9650 C.3       9 GLL5        0.0000 
     41 CA         40.5550  -13.9710   26.7070 C.3       6 GLP5        0.0000 
     42 CA         43.8570  -13.9465   24.8410 C.3       3 GLC5        0.0000 
     43 CA         43.0770  -15.1930   23.7170 C.3       6 GLP5        0.0000 
     44 CA         45.0960  -14.4055   25.1710 C.3       3 GLC5        0.0000 
     45 CA         45.8120  -13.1940   26.8070 C.3       9 GLL5        0.0000 
     46 CA         44.3800  -15.6170   23.5350 C.3       6 GLP5        0.0000 
     47 CA         36.7925   -6.0780   28.5545 C.3       3 GLC5        0.0000 
     48 CA         38.4760   -6.9670   27.6650 C.3       9 GLL5        0.0000 
     49 CA         35.0890   -5.8780   29.5620 C.3       6 GLP5        0.0000 
     50 CA         37.2079   -8.3637   26.7215 C.3       3 GLC5        0.0000 
     51 CA         39.5817   -3.7435   25.1595 C.3       3 GLC5        0.0000 
     52 CA         40.1760   -1.9380   24.6840 C.3       6 GLP5        0.0000 
     53 CA         37.8740   -9.7010   24.7707 C.3       3 GLC5        0.0000 
     54 CA         39.3850   -8.2550   24.2700 C.3       9 GLL5        0.0000 
     55 CA         36.7340  -11.1080   25.8750 C.3       6 GLP5        0.0000 
     56 CA         40.6120   -7.8465   22.6007 C.3       3 GLC5        0.0000 
     57 CA         42.2100   -7.3990   21.5350 C.3       6 GLP5        0.0000 
     58 CA         38.8740   -6.3323   22.1040 C.3       3 GLC5        0.0000 
     59 CA         38.6430   -8.3330   23.0630 C.3       9 GLL5        0.0000 
     60 CA         40.5857  -10.4667   25.5778 C.3       3 GLC5        0.0000 
     61 CA         40.9740   -9.8770   23.3690 C.3       9 GLL5        0.0000 
     62 CA         39.2403  -11.2750   22.4366 C.3       3 GLC5        0.0000 
     63 CA         38.1640  -12.8270   22.1290 C.3       6 GLP5        0.0000 
     64 CA         41.2632   -8.5610   22.1396 C.3       3 GLC5        0.0000 
     65 CA         40.2340   -9.9550   22.1960 C.3       9 GLL5        0.0000 
     66 CA         38.2278   -5.6910   21.3218 C.3       3 GLC5        0.0000 
     67 CA         35.6544   -4.5199   22.4188 C.3       3 GLC5        0.0000 
     68 CA         35.3470   -6.6840   23.4390 C.3       9 GLL5        0.0000 
     69 CA         35.7790   -2.5890   22.2730 C.3       6 GLP5        0.0000 
     70 CA         34.1500   -7.3138   24.1598 C.3       3 GLC5        0.0000 
     71 CA         32.4290   -7.6920   25.0410 C.3       6 GLP5        0.0000 
@<TRIPOS>BOND
@<TRIPOS>SUBSTRUCTURE
     1 ALC1       24 GROUP        1 X    ALC  0     ROOT ALC X 1
     2 SEC2       27 GROUP        1 X    SEC  0     **** SEC X 2
     3 GLC5        1 GROUP        1 X    GLC  0     **** GLC X 6
     4 ALP1       26 GROUP        1 Y    ALP  0     ROOT ALP Y 8
     5 SEP2       29 GROUP        1 Y    SEP  0     **** SEP Y 9
     6 GLP5        3 GROUP        1 Y    GLP  0     **** GLP Y 13
     7 ALL1       25 GROUP        1 Z    ALL  0     ROOT ALL Z 15
     8 SEL2       28 GROUP        1 Z    SEL  0     **** SEL Z 16
     9 GLL5        2 GROUP        1 Z    GLL  0     **** GLL Z 20
@<TRIPOS>SET

