#    Name: 3lfn_A27_1_ligand
#    Modification time : Mon Mar 24 21:36:31 2014

@<TRIPOS>MOLECULE
3lfn_A27_1_ligand
   49    52     1     0     0
SMALL
NO_CHARGES


@<TRIPOS>ATOM
      1 C1         38.4760   -6.9670   27.6650 C.ar      1 A27299      0.0000 
      2 C2         38.7670   -7.8590   26.6150 C.ar      1 A27299      0.0000 
      3 C3         39.0740   -7.3820   25.3280 C.ar      1 A27299      0.0000 
      4 C4         39.1280   -5.9940   25.1150 C.ar      1 A27299      0.0000 
      5 C5         38.8470   -5.1040   26.1550 C.ar      1 A27299      0.0000 
      6 C6         38.5160   -5.5890   27.4290 C.ar      1 A27299      0.0000 
      7 C12        39.3850   -8.2550   24.2700 C.ar      1 A27299      0.0000 
      8 C13        38.6430   -8.3330   23.0630 C.ar      1 A27299      0.0000 
      9 C14        39.0840   -9.1830   22.0430 C.ar      1 A27299      0.0000 
     10 C15        40.2340   -9.9550   22.1960 C.ar      1 A27299      0.0000 
     11 C16        40.9740   -9.8770   23.3690 C.ar      1 A27299      0.0000 
     12 C17        40.5430   -9.0360   24.4000 C.ar      1 A27299      0.0000 
     13 C20        37.4790   -7.6120   22.8050 C.ar      1 A27299      0.0000 
     14 C21        37.3270   -7.0710   21.5260 C.ar      1 A27299      0.0000 
     15 C22        36.2100   -6.3090   21.2130 C.ar      1 A27299      0.0000 
     16 C23        35.2150   -6.1260   22.1670 C.ar      1 A27299      0.0000 
     17 C24        35.3470   -6.6840   23.4390 C.ar      1 A27299      0.0000 
     18 C25        36.4610   -7.4660   23.7540 C.ar      1 A27299      0.0000 
     19 O30        34.1130   -5.4060   21.8380 O.3       1 A27299      0.0000 
     20 N31        40.8560  -10.8010   21.3770 N.pl3     1 A27299      0.0000 
     21 N32        41.8720  -11.2570   21.9120 N.2       1 A27299      0.0000 
     22 C33        42.0350  -10.7480   23.1300 C.2       1 A27299      0.0000 
     23 N34        43.1070  -11.0760   23.8700 N.am      1 A27299      0.0000 
     24 C35        43.5290  -10.6280   25.0590 C.2       1 A27299      0.0000 
     25 C36        44.8490  -11.2560   25.5110 C.3       1 A27299      0.0000 
     26 C37        44.6370  -12.7000   25.9650 C.3       1 A27299      0.0000 
     27 C40        45.8120  -13.1940   26.8070 C.3       1 A27299      0.0000 
     28 O46        42.9620   -9.8040   25.7770 O.2       1 A27299      0.0000 
     29 H          38.2382   -7.3275   28.5896 H         1 A27299      0.0000 
     30 H          38.7547   -8.8722   26.7922 H         1 A27299      0.0000 
     31 H          39.3769   -5.6335   24.1842 H         1 A27299      0.0000 
     32 H          38.8823   -4.0916   25.9886 H         1 A27299      0.0000 
     33 H          38.3036   -4.9314   28.1863 H         1 A27299      0.0000 
     34 H          38.5458   -9.2376   21.1616 H         1 A27299      0.0000 
     35 H          41.0886   -8.9876   25.2779 H         1 A27299      0.0000 
     36 H          38.0515   -7.2412   20.8128 H         1 A27299      0.0000 
     37 H          36.1179   -5.8831   20.2845 H         1 A27299      0.0000 
     38 H          34.6210   -6.5193   24.1489 H         1 A27299      0.0000 
     39 H          36.5322   -7.9240   24.6616 H         1 A27299      0.0000 
     40 H          40.5024  -11.0048   20.4576 H         1 A27299      0.0000 
     41 H          43.7623  -11.8630   23.4101 H         1 A27299      0.0000 
     42 H          45.2576  -10.6760   26.3365 H         1 A27299      0.0000 
     43 H          45.5556  -11.2396   24.6832 H         1 A27299      0.0000 
     44 H          44.5294  -13.3395   25.0882 H         1 A27299      0.0000 
     45 H          43.7219  -12.7597   26.5552 H         1 A27299      0.0000 
     46 H          46.6724  -13.1628   26.2984 H         1 A27299      0.0000 
     47 H          45.9378  -12.6403   27.6301 H         1 A27299      0.0000 
     48 H          45.6828  -14.1393   27.1066 H         1 A27299      0.0000 
     49 H          34.3231   -5.0041   20.9468 H         1 A27299      0.0000 
@<TRIPOS>BOND
     1    2    1 ar   
     2    6    1 ar   
     3   29    1 1    
     4    3    2 ar   
     5   30    2 1    
     6    4    3 ar   
     7    7    3 1    
     8    5    4 ar   
     9   31    4 1    
    10    6    5 ar   
    11   32    5 1    
    12   33    6 1    
    13    8    7 ar   
    14   12    7 ar   
    15    9    8 ar   
    16   13    8 1    
    17   10    9 ar   
    18   34    9 1    
    19   11   10 ar   
    20   20   10 1    
    21   12   11 ar   
    22   22   11 1    
    23   35   12 1    
    24   14   13 ar   
    25   18   13 ar   
    26   15   14 ar   
    27   36   14 1    
    28   16   15 ar   
    29   37   15 1    
    30   17   16 ar   
    31   19   16 1    
    32   18   17 ar   
    33   38   17 1    
    34   39   18 1    
    35   49   19 1    
    36   21   20 1    
    37   40   20 1    
    38   22   21 2    
    39   23   22 1    
    40   24   23 am   
    41   41   23 1    
    42   25   24 1    
    43   28   24 2    
    44   26   25 1    
    45   42   25 1    
    46   43   25 1    
    47   27   26 1    
    48   44   26 1    
    49   45   26 1    
    50   46   27 1    
    51   47   27 1    
    52   48   27 1    
@<TRIPOS>SUBSTRUCTURE
     1 A27299      1 GROUP   
@<TRIPOS>SET

