#    Name: 1y6a_AAZ_1_INTS_M
#    Modification time : Tue Mar 25 10:50:57 2014

@<TRIPOS>MOLECULE
1y6a_AAZ_1_INTS_M
   58     0     9     0     0
SMALL
NO_CHARGES


@<TRIPOS>ATOM
      1 N          -0.0880   29.8940   24.2650 N.am      2 SEC2        0.0000 
      2 N          -0.2730   29.6670   22.7710 N.am      8 SEL2        0.0000 
      3 N           0.0970   30.1210   25.7590 N.am      5 SEP2        0.0000 
      4 CA         -2.1965   28.6080   17.7925 C.3       3 GLC5        0.0000 
      5 CA         -2.3170   29.7940   19.5600 C.3       9 GLL5        0.0000 
      6 CA         -2.0760   27.4220   16.0250 C.3       6 GLP5        0.0000 
      7 CA          0.9005   24.8960   17.8120 C.3       3 GLC5        0.0000 
      8 CA          2.1930   24.1360   19.0580 C.3       9 GLL5        0.0000 
      9 CA         -0.3920   25.6560   16.5660 C.3       6 GLP5        0.0000 
     10 CA          3.2090   24.0535   17.4580 C.3       3 GLC5        0.0000 
     11 CA          4.2250   23.9710   15.8580 C.3       6 GLP5        0.0000 
     12 CA          2.3960   30.5165   20.4515 C.3       3 GLC5        0.0000 
     13 CA          1.4050   28.9620   19.6890 C.3       9 GLL5        0.0000 
     14 CA          3.3870   32.0710   21.2140 C.3       6 GLP5        0.0000 
     15 O           4.2385   27.5545   18.4590 O.2       1 ALC1        0.0000 
     16 O           3.0060   28.0930   18.0510 O.2       7 ALL1        0.0000 
     17 O           5.4710   27.0160   18.8670 O.2       4 ALP1        0.0000 
     18 N           5.1645   28.8155   16.2990 N.am      2 SEC2        0.0000 
     19 N           3.7780   29.4660   16.2370 N.am      8 SEL2        0.0000 
     20 N           6.5510   28.1650   16.3610 N.am      5 SEP2        0.0000 
     21 CA          4.7920   29.4095   14.8105 C.3       3 GLC5        0.0000 
     22 CA          3.3460   30.5380   15.6730 C.3       9 GLL5        0.0000 
     23 CA          6.2380   28.2810   13.9480 C.3       6 GLP5        0.0000 
     24 CA          1.1515   29.1710   15.5315 C.3       3 GLC5        0.0000 
     25 CA          2.1770   30.9240   16.2160 C.3       9 GLL5        0.0000 
     26 CA          0.1260   27.4180   14.8470 C.3       6 GLP5        0.0000 
     27 CA          2.6555   32.0155   17.3775 C.3       3 GLC5        0.0000 
     28 CA          1.2200   32.0310   15.9260 C.3       9 GLL5        0.0000 
     29 CA          4.0910   32.0000   18.8290 C.3       6 GLP5        0.0000 
     30 CA         -2.2875   33.1675   14.6380 C.3       3 GLC5        0.0000 
     31 CA         -0.7820   33.9220   15.5170 C.3       9 GLL5        0.0000 
     32 CA         -3.7930   32.4130   13.7590 C.3       6 GLP5        0.0000 
     33 CA          1.9488   27.8205   21.5347 C.3       3 GLC5        0.0000 
     34 CA          0.3640   28.7510   20.6130 C.3       9 GLL5        0.0000 
     35 CA          3.7120   27.5480   22.3120 C.3       6 GLP5        0.0000 
     36 CA          2.4458   27.0075   21.0703 C.3       3 GLC5        0.0000 
     37 CA          1.6950   26.5740   19.3650 C.3       9 GLL5        0.0000 
     38 CA          0.6219   26.4165   18.0061 C.3       3 GLC5        0.0000 
     39 CA          0.6640   26.3600   20.2920 C.3       9 GLL5        0.0000 
     40 CA          2.7302   27.9862   20.8443 C.3       3 GLC5        0.0000 
     41 CA          2.0920   27.8870   19.0640 C.3       9 GLL5        0.0000 
     42 CA          2.5507   30.2655   14.1918 C.3       3 GLC5        0.0000 
     43 CA          2.3400   29.8000   12.4390 C.3       6 GLP5        0.0000 
     44 CA          3.4263   31.3655   17.3867 C.3       3 GLC5        0.0000 
     45 CA          1.8170   31.1440   13.9243 C.3       3 GLC5        0.0000 
     46 CA          2.2203   33.4405   13.3492 C.3       3 GLC5        0.0000 
     47 CA          1.3680   32.9450   14.8930 C.3       9 GLL5        0.0000 
     48 CA          3.5720   33.4570   11.9020 C.3       6 GLP5        0.0000 
     49 CA         -0.5393   31.9667   14.2519 C.3       3 GLC5        0.0000 
     50 CA          0.3690   33.9030   14.7000 C.3       9 GLL5        0.0000 
     51 CA         -1.9100   30.7380   13.4490 C.3       6 GLP5        0.0000 
     52 CA         -1.1740   31.6235   15.0380 C.3       3 GLC5        0.0000 
     53 CA         -0.9380   32.9730   16.5340 C.3       9 GLL5        0.0000 
     54 CA         -5.0900   30.7650   17.2523 C.3       3 GLC5        0.0000 
     55 CA         -3.3510   32.3840   17.0640 C.3       9 GLL5        0.0000 
     56 CA         -6.2820   29.1140   17.0090 C.3       6 GLP5        0.0000 
     57 CA         -3.6934   32.4894   15.6738 C.3       3 GLC5        0.0000 
     58 CA         -4.4450   32.4480   17.9270 C.3       9 GLL5        0.0000 
@<TRIPOS>BOND
@<TRIPOS>SUBSTRUCTURE
     1 ALC1       15 GROUP        1 X    ALC  0     ROOT ALC X 1
     2 SEC2        1 GROUP        1 X    SEC  0     **** SEC X 2
     3 GLC5        4 GROUP        1 X    GLC  0     **** GLC X 6
     4 ALP1       17 GROUP        1 Y    ALP  0     ROOT ALP Y 8
     5 SEP2        3 GROUP        1 Y    SEP  0     **** SEP Y 9
     6 GLP5        6 GROUP        1 Y    GLP  0     **** GLP Y 13
     7 ALL1       16 GROUP        1 Z    ALL  0     ROOT ALL Z 15
     8 SEL2        2 GROUP        1 Z    SEL  0     **** SEL Z 16
     9 GLL5        5 GROUP        1 Z    GLL  0     **** GLL Z 20
@<TRIPOS>SET

