#    Name: 1y6a_AAZ_1_ligand
#    Modification time : Tue Mar 25 10:50:57 2014

@<TRIPOS>MOLECULE
1y6a_AAZ_1_ligand
   52    55     1     0     0
SMALL
NO_CHARGES


@<TRIPOS>ATOM
      1 O4         -0.2730   29.6670   22.7710 O.2       1 AAZ201      0.0000 
      2 S3         -0.4270   29.9540   21.3770 S.o2      1 AAZ201      0.0000 
      3 O5          0.0570   31.2530   21.0240 O.2       1 AAZ201      0.0000 
      4 C2         -2.0600   29.9360   21.0470 C.3       1 AAZ201      0.0000 
      5 C1         -2.3170   29.7940   19.5600 C.3       1 AAZ201      0.0000 
      6 C6          0.3640   28.7510   20.6130 C.ar      1 AAZ201      0.0000 
      7 C7          0.0070   27.4350   20.9020 C.ar      1 AAZ201      0.0000 
      8 C8          0.6640   26.3600   20.2920 C.ar      1 AAZ201      0.0000 
      9 C9          1.6950   26.5740   19.3650 C.ar      1 AAZ201      0.0000 
     10 O10         2.3450   25.5330   18.7420 O.3       1 AAZ201      0.0000 
     11 C11         2.1930   24.1360   19.0580 C.3       1 AAZ201      0.0000 
     12 C12         2.0920   27.8870   19.0640 C.ar      1 AAZ201      0.0000 
     13 C31         1.4050   28.9620   19.6890 C.ar      1 AAZ201      0.0000 
     14 N13         3.0060   28.0930   18.0510 N.pl3     1 AAZ201      0.0000 
     15 C14         2.9010   29.1020   17.1830 C.2       1 AAZ201      0.0000 
     16 N15         3.7780   29.4660   16.2370 N.2       1 AAZ201      0.0000 
     17 C16         3.3460   30.5380   15.6730 C.2       1 AAZ201      0.0000 
     18 C17         2.1770   30.9240   16.2160 C.2       1 AAZ201      0.0000 
     19 O18         1.7930   30.0030   17.2280 O.3       1 AAZ201      0.0000 
     20 C19         1.2200   32.0310   15.9260 C.ar      1 AAZ201      0.0000 
     21 C20         1.3680   32.9450   14.8930 C.ar      1 AAZ201      0.0000 
     22 C21         0.3690   33.9030   14.7000 C.ar      1 AAZ201      0.0000 
     23 C22        -0.7820   33.9220   15.5170 C.ar      1 AAZ201      0.0000 
     24 C23        -0.9380   32.9730   16.5340 C.ar      1 AAZ201      0.0000 
     25 C24         0.0620   32.0450   16.7200 C.ar      1 AAZ201      0.0000 
     26 C25        -2.1340   32.9830   17.4360 C.ar      1 AAZ201      0.0000 
     27 C26        -3.3510   32.3840   17.0640 C.ar      1 AAZ201      0.0000 
     28 C27        -4.4450   32.4480   17.9270 C.ar      1 AAZ201      0.0000 
     29 C28        -4.3030   33.0910   19.1590 C.ar      1 AAZ201      0.0000 
     30 C29        -3.0840   33.6790   19.5030 C.ar      1 AAZ201      0.0000 
     31 N30        -2.0350   33.6120   18.6520 N.ar      1 AAZ201      0.0000 
     32 H          -2.4462   30.8668   21.4312 H         1 AAZ201      0.0000 
     33 H          -2.4613   29.1031   21.6022 H         1 AAZ201      0.0000 
     34 H          -0.7532   27.2476   21.5758 H         1 AAZ201      0.0000 
     35 H           0.3865   25.3941   20.5270 H         1 AAZ201      0.0000 
     36 H           1.6835   29.9318   19.4533 H         1 AAZ201      0.0000 
     37 H           3.8138   27.4154   17.9752 H         1 AAZ201      0.0000 
     38 H           3.7888   31.0369   14.9365 H         1 AAZ201      0.0000 
     39 H           2.1847   32.9223   14.2862 H         1 AAZ201      0.0000 
     40 H           0.4679   34.6060   13.9546 H         1 AAZ201      0.0000 
     41 H          -1.5017   34.6340   15.3611 H         1 AAZ201      0.0000 
     42 H          -0.0324   31.3269   17.4693 H         1 AAZ201      0.0000 
     43 H          -3.4282   31.9049   16.1637 H         1 AAZ201      0.0000 
     44 H          -5.3380   32.0308   17.6627 H         1 AAZ201      0.0000 
     45 H          -5.0944   33.1311   19.8109 H         1 AAZ201      0.0000 
     46 H          -3.0032   34.1618   20.4142 H         1 AAZ201      0.0000 
     47 H          -1.9174   30.5491   19.0403 H         1 AAZ201      0.0000 
     48 H          -1.9275   28.9484   19.1949 H         1 AAZ201      0.0000 
     49 H          -3.2950   29.7801   19.3518 H         1 AAZ201      0.0000 
     50 H           2.7626   23.5588   18.4729 H         1 AAZ201      0.0000 
     51 H           2.4505   23.9390   20.0040 H         1 AAZ201      0.0000 
     52 H           1.2483   23.8295   18.9416 H         1 AAZ201      0.0000 
@<TRIPOS>BOND
     1    2    1 2    
     2    3    2 2    
     3    4    2 1    
     4    6    2 1    
     5    5    4 1    
     6   32    4 1    
     7   33    4 1    
     8   47    5 1    
     9   48    5 1    
    10   49    5 1    
    11    7    6 ar   
    12   13    6 ar   
    13    8    7 ar   
    14   34    7 1    
    15    9    8 ar   
    16   35    8 1    
    17   10    9 1    
    18   12    9 ar   
    19   11   10 1    
    20   50   11 1    
    21   51   11 1    
    22   52   11 1    
    23   13   12 ar   
    24   14   12 1    
    25   36   13 1    
    26   15   14 1    
    27   37   14 1    
    28   16   15 2    
    29   19   15 1    
    30   17   16 1    
    31   18   17 2    
    32   38   17 1    
    33   19   18 1    
    34   20   18 1    
    35   21   20 ar   
    36   25   20 ar   
    37   22   21 ar   
    38   39   21 1    
    39   23   22 ar   
    40   40   22 1    
    41   24   23 ar   
    42   41   23 1    
    43   25   24 ar   
    44   26   24 1    
    45   42   25 1    
    46   27   26 ar   
    47   31   26 ar   
    48   28   27 ar   
    49   43   27 1    
    50   29   28 ar   
    51   44   28 1    
    52   30   29 ar   
    53   45   29 1    
    54   31   30 ar   
    55   46   30 1    
@<TRIPOS>SUBSTRUCTURE
     1 AAZ201      1 GROUP   
@<TRIPOS>SET

