#    Name: 3mhy_ATP_2_INTS_M
#    Modification time : Mon Mar 24 23:14:49 2014

@<TRIPOS>MOLECULE
3mhy_ATP_2_INTS_M
  102     0    15     0     0
SMALL
NO_CHARGES


@<TRIPOS>ATOM
      1 NZ        -21.2110   -3.6575   24.8890 N.4       3 LYC4        0.0000 
      2 NZ        -20.3170   -2.7770   24.2510 N.4      13 LYL4        0.0000 
      3 NZ        -21.7900   -5.8110   25.7380 N.4       8 LYP4        0.0000 
      4 N         -21.2110   -3.6575   24.8890 N.am      2 SEC2        0.0000 
      5 N         -20.3170   -2.7770   24.2510 N.am     12 SEL2        0.0000 
      6 N         -22.1050   -4.5380   25.5270 N.am      7 SEP2        0.0000 
      7 Zn        -19.4965   -3.0280   20.8890 Zn        4 ZIC7        0.0000 
      8 Zn        -19.9420   -3.0450   21.7950 Zn       14 ZIL7        0.0000 
      9 Zn        -19.0510   -3.0110   19.9830 Zn        9 ZIP7        0.0000 
     10 N         -21.1415   -2.3555   21.4105 N.am      2 SEC2        0.0000 
     11 N         -19.9420   -3.0450   21.7950 N.am     12 SEL2        0.0000 
     12 N         -22.3410   -1.6660   21.0260 N.am      7 SEP2        0.0000 
     13 NZ        -19.8645   -5.5140   24.3005 N.4       3 LYC4        0.0000 
     14 NZ        -19.0650   -4.7310   23.3610 N.4      13 LYL4        0.0000 
     15 NZ        -18.2665   -5.3495   24.6415 N.4       3 LYC4        0.0000 
     16 NZ        -16.3890   -6.1460   25.1710 N.4       8 LYP4        0.0000 
     17 N         -17.7450   -5.2835   23.6200 N.am      2 SEC2        0.0000 
     18 N         -19.0650   -4.7310   23.3610 N.am     12 SEL2        0.0000 
     19 N         -16.4250   -5.8360   23.8790 N.am      7 SEP2        0.0000 
     20 N         -19.8645   -5.5140   24.3005 N.am      2 SEC2        0.0000 
     21 N         -20.6640   -6.2970   25.2400 N.am      7 SEP2        0.0000 
     22 N         -18.2665   -5.3495   24.6415 N.am      2 SEC2        0.0000 
     23 N         -17.4680   -5.9680   25.9220 N.am      7 SEP2        0.0000 
     24 N         -19.1375   -5.7305   22.3205 N.am      2 SEC2        0.0000 
     25 N         -19.2100   -6.7300   21.2800 N.am      7 SEP2        0.0000 
     26 NZ        -14.7320   -2.6200   23.8515 N.4       3 LYC4        0.0000 
     27 NZ        -15.6610   -2.1170   22.7810 N.4      13 LYL4        0.0000 
     28 NZ        -14.7050   -3.0260   25.8870 N.4       8 LYP4        0.0000 
     29 NZ        -14.6745   -1.0690   22.8365 N.4       3 LYC4        0.0000 
     30 NZ        -13.6880   -0.0210   22.8920 N.4       8 LYP4        0.0000 
     31 N         -15.8035   -2.3850   24.1830 N.am      2 SEC2        0.0000 
     32 N         -15.6610   -2.1170   22.7810 N.am     12 SEL2        0.0000 
     33 N         -15.9460   -2.6530   25.5850 N.am      7 SEP2        0.0000 
     34 N         -14.7320   -2.6200   23.8515 N.am      2 SEC2        0.0000 
     35 N         -13.8030   -3.1230   24.9220 N.am      7 SEP2        0.0000 
     36 N         -14.6745   -1.0690   22.8365 N.am      2 SEC2        0.0000 
     37 N         -13.6880   -0.0210   22.8920 N.am      7 SEP2        0.0000 
     38 Zn        -18.1520   -2.9585   20.4665 Zn        4 ZIC7        0.0000 
     39 Zn        -17.2530   -2.9060   20.9500 Zn       14 ZIL7        0.0000 
     40 N         -16.2465   -3.4380   20.0495 N.am      2 SEC2        0.0000 
     41 N         -17.2530   -2.9060   20.9500 N.am     12 SEL2        0.0000 
     42 N         -15.2400   -3.9700   19.1490 N.am      7 SEP2        0.0000 
     43 N         -17.0230   -2.5410   24.4480 N.am      2 SEC2        0.0000 
     44 N         -18.1000   -2.4290   23.3110 N.am     12 SEL2        0.0000 
     45 N         -20.4720    1.6015   22.4630 N.am      2 SEC2        0.0000 
     46 N         -19.5760    0.6570   21.8540 N.am     12 SEL2        0.0000 
     47 N         -21.3680    2.5460   23.0720 N.am      7 SEP2        0.0000 
     48 Zn        -19.0070   -1.9730   19.9680 Zn        4 ZIC7        0.0000 
     49 Zn        -18.9630   -0.9350   19.9530 Zn       14 ZIL7        0.0000 
     50 CA        -19.4285    2.9895   21.3460 C.3       5 GLC5        0.0000 
     51 CA        -18.4640    2.3680   19.7480 C.3      15 GLL5        0.0000 
     52 CA        -20.3930    3.6110   22.9440 C.3      10 GLP5        0.0000 
     53 CA        -16.2860    0.3050   17.8930 C.3       5 GLC5        0.0000 
     54 CA        -17.0050    2.4120   17.6660 C.3      15 GLL5        0.0000 
     55 CA        -15.5670   -1.8020   18.1200 C.3      10 GLP5        0.0000 
     56 O         -15.0860    5.1580   16.5840 O.2       1 ALC1        0.0000 
     57 O         -16.2800    4.3900   16.5260 O.2      11 ALL1        0.0000 
     58 O         -13.8920    5.9260   16.6420 O.2       6 ALP1        0.0000 
     59 CA        -15.8060    5.7205   19.0575 C.3       5 GLC5        0.0000 
     60 CA        -15.3560    3.7810   18.6170 C.3      15 GLL5        0.0000 
     61 CA        -16.2560    7.6600   19.4980 C.3      10 GLP5        0.0000 
     62 N         -13.4595    0.6755   21.6420 N.am      2 SEC2        0.0000 
     63 N         -13.2310    1.3720   20.3920 N.am     12 SEL2        0.0000 
     64 CA        -13.0675    2.2825   21.7420 C.3       5 GLC5        0.0000 
     65 CA        -12.2970    2.2410   19.8350 C.3      15 GLL5        0.0000 
     66 CA        -13.8380    2.3240   23.6490 C.3      10 GLP5        0.0000 
     67 CA         -9.6625    3.4850   20.9400 C.3       5 GLC5        0.0000 
     68 CA        -10.8780    2.2810   19.8930 C.3      15 GLL5        0.0000 
     69 CA         -8.4470    4.6890   21.9870 C.3      10 GLP5        0.0000 
     70 O          -8.6270    1.7260   20.9190 O.2       1 ALC1        0.0000 
     71 O         -10.1080    1.3850   20.5650 O.2      11 ALL1        0.0000 
     72 O          -7.1460    2.0670   21.2730 O.2       6 ALP1        0.0000 
     73 O         -10.3665    0.2810   21.4630 O.2       1 ALC1        0.0000 
     74 O         -10.6250   -0.8230   22.3610 O.2       6 ALP1        0.0000 
     75 N          -8.9455    3.8310   19.4575 N.am      2 SEC2        0.0000 
     76 N         -10.2670    3.2830   19.2160 N.am     12 SEL2        0.0000 
     77 N          -7.6240    4.3790   19.6990 N.am      7 SEP2        0.0000 
     78 CA        -11.2085    3.2315   16.8605 C.3       5 GLC5        0.0000 
     79 CA        -11.0080    4.1860   18.5420 C.3      15 GLL5        0.0000 
     80 CA        -11.4090    2.2770   15.1790 C.3      10 GLP5        0.0000 
     81 CA        -12.1325    5.4005   17.0500 C.3       5 GLC5        0.0000 
     82 CA        -13.2570    6.6150   15.5580 C.3      10 GLP5        0.0000 
     83 CA         -9.1470    4.3685   17.9230 C.3       5 GLC5        0.0000 
     84 CA         -7.2860    4.5510   17.3040 C.3      10 GLP5        0.0000 
     85 CA         -9.7275    4.4375   20.2645 C.3       5 GLC5        0.0000 
     86 N         -13.1190    5.0850   17.5350 N.am      2 SEC2        0.0000 
     87 N         -12.3460    4.2440   18.4280 N.am     12 SEL2        0.0000 
     88 N         -13.8920    5.9260   16.6420 N.am      7 SEP2        0.0000 
     89 CA        -12.1595    2.7510   17.1485 C.3       5 GLC5        0.0000 
     90 CA        -12.9100    3.2250   19.1180 C.3      15 GLL5        0.0000 
     91 CA        -19.7152    2.8415   17.8620 C.3       5 GLC5        0.0000 
     92 CA        -17.6190    3.2200   18.8040 C.3      15 GLL5        0.0000 
     93 CA        -21.3890    2.8890   16.4480 C.3      10 GLP5        0.0000 
     94 CA        -16.4348    3.0128   15.4192 C.3       5 GLC5        0.0000 
     95 CA        -16.4600    3.1880   13.3710 C.3      10 GLP5        0.0000 
     96 CA        -16.3802    1.2757   16.1052 C.3       5 GLC5        0.0000 
     97 CA        -15.8140    3.2630   17.2690 C.3      15 GLL5        0.0000 
     98 CA        -16.3510   -0.2860   14.7430 C.3      10 GLP5        0.0000 
     99 CA        -17.3640    4.8797   17.9655 C.3       5 GLC5        0.0000 
    100 CA        -18.1650    6.7200   18.1790 C.3      10 GLP5        0.0000 
    101 CA        -12.0269    1.0930   18.5765 C.3       5 GLC5        0.0000 
    102 CA        -11.8050   -0.5570   17.6620 C.3      10 GLP5        0.0000 
@<TRIPOS>BOND
@<TRIPOS>SUBSTRUCTURE
     1 ALC1       56 GROUP        1 X    ALC  0     ROOT ALC X 1
     2 SEC2        4 GROUP        1 X    SEC  0     **** SEC X 2
     3 LYC4        1 GROUP        1 X    LYC  0     **** LYC X 4
     4 ZIC7        7 GROUP        1 X    ZIC  0     **** ZIC X 5
     5 GLC5       50 GROUP        1 X    GLC  0     **** GLC X 6
     6 ALP1       58 GROUP        1 Y    ALP  0     ROOT ALP Y 8
     7 SEP2        6 GROUP        1 Y    SEP  0     **** SEP Y 9
     8 LYP4        3 GROUP        1 Y    LYP  0     **** LYP Y 11
     9 ZIP7        9 GROUP        1 Y    ZIP  0     **** ZIP Y 12
    10 GLP5       52 GROUP        1 Y    GLP  0     **** GLP Y 13
    11 ALL1       57 GROUP        1 Z    ALL  0     ROOT ALL Z 15
    12 SEL2        5 GROUP        1 Z    SEL  0     **** SEL Z 16
    13 LYL4        2 GROUP        1 Z    LYL  0     **** LYL Z 18
    14 ZIL7        8 GROUP        1 Z    ZIL  0     **** ZIL Z 19
    15 GLL5       51 GROUP        1 Z    GLL  0     **** GLL Z 20
@<TRIPOS>SET

