#    Name: 3mhy_ATP_2_ligand
#    Modification time : Mon Mar 24 23:14:50 2014

@<TRIPOS>MOLECULE
3mhy_ATP_2_ligand
   43    45     1     0     0
SMALL
NO_CHARGES


@<TRIPOS>ATOM
      1 PG        -19.4400   -3.3040   23.1750 P.3       1 ATP113      0.0000 
      2 O1G       -20.3170   -2.7770   24.2510 O.co2     1 ATP113      0.0000 
      3 O2G       -19.9420   -3.0450   21.7950 O.co2     1 ATP113      0.0000 
      4 O3G       -19.0650   -4.7310   23.3610 O.co2     1 ATP113      0.0000 
      5 PB        -17.0160   -2.0770   22.1770 P.3       1 ATP113      0.0000 
      6 O1B       -15.6610   -2.1170   22.7810 O.co2     1 ATP113      0.0000 
      7 O2B       -17.2530   -2.9060   20.9500 O.co2     1 ATP113      0.0000 
      8 O3B       -18.1000   -2.4290   23.3110 O.3       1 ATP113      0.0000 
      9 PA        -18.5420    0.0680   20.9690 P.3       1 ATP113      0.0000 
     10 O1A       -19.5760    0.6570   21.8540 O.co2     1 ATP113      0.0000 
     11 O2A       -18.9630   -0.9350   19.9530 O.co2     1 ATP113      0.0000 
     12 O3A       -17.3630   -0.5400   21.8720 O.3       1 ATP113      0.0000 
     13 O5'       -17.7370    1.2320   20.2090 O.3       1 ATP113      0.0000 
     14 C5'       -18.4640    2.3680   19.7480 C.3       1 ATP113      0.0000 
     15 C4'       -17.6190    3.2200   18.8040 C.3       1 ATP113      0.0000 
     16 O4'       -16.4660    3.6870   19.5050 O.3       1 ATP113      0.0000 
     17 C3'       -17.0050    2.4120   17.6660 C.3       1 ATP113      0.0000 
     18 O3'       -17.8940    2.1770   16.5760 O.3       1 ATP113      0.0000 
     19 C2'       -15.8140    3.2630   17.2690 C.3       1 ATP113      0.0000 
     20 O2'       -16.2800    4.3900   16.5260 O.3       1 ATP113      0.0000 
     21 C1'       -15.3560    3.7810   18.6170 C.3       1 ATP113      0.0000 
     22 N9        -14.2590    2.9800   19.2040 N.pl3     1 ATP113      0.0000 
     23 C8        -14.4140    1.8750   19.9810 C.2       1 ATP113      0.0000 
     24 N7        -13.2310    1.3720   20.3920 N.2       1 ATP113      0.0000 
     25 C5        -12.2970    2.2410   19.8350 C.ar      1 ATP113      0.0000 
     26 C6        -10.8780    2.2810   19.8930 C.ar      1 ATP113      0.0000 
     27 N6        -10.1080    1.3850   20.5650 N.pl3     1 ATP113      0.0000 
     28 N1        -10.2670    3.2830   19.2160 N.ar      1 ATP113      0.0000 
     29 C2        -11.0080    4.1860   18.5420 C.ar      1 ATP113      0.0000 
     30 N3        -12.3460    4.2440   18.4280 N.ar      1 ATP113      0.0000 
     31 C4        -12.9100    3.2250   19.1180 C.ar      1 ATP113      0.0000 
     32 H         -18.7830    3.0133   20.5835 H         1 ATP113      0.0000 
     33 H         -19.3768    2.0734   19.2037 H         1 ATP113      0.0000 
     34 H         -18.1774    4.0149   18.4066 H         1 ATP113      0.0000 
     35 H         -16.6118    1.5032   18.0987 H         1 ATP113      0.0000 
     36 H         -15.0907    2.7029   16.8339 H         1 ATP113      0.0000 
     37 H         -15.0498    4.8038   18.5116 H         1 ATP113      0.0000 
     38 H         -15.2929    1.4893   20.2145 H         1 ATP113      0.0000 
     39 H          -9.1193    1.5219   20.5045 H         1 ATP113      0.0000 
     40 H         -10.5982    0.6680   21.0606 H         1 ATP113      0.0000 
     41 H         -10.4450    4.9735   18.0204 H         1 ATP113      0.0000 
     42 H         -17.6551    2.8679   15.8938 H         1 ATP113      0.0000 
     43 H         -15.5134    5.0321   16.5219 H         1 ATP113      0.0000 
@<TRIPOS>BOND
     1    2    1 ar   
     2    3    1 ar   
     3    4    1 ar   
     4    8    1 1    
     5    6    5 ar   
     6    7    5 ar   
     7    8    5 1    
     8   12    5 1    
     9   10    9 ar   
    10   11    9 ar   
    11   12    9 1    
    12   13    9 1    
    13   14   13 1    
    14   15   14 1    
    15   32   14 1    
    16   33   14 1    
    17   16   15 1    
    18   17   15 1    
    19   34   15 1    
    20   21   16 1    
    21   18   17 1    
    22   19   17 1    
    23   35   17 1    
    24   42   18 1    
    25   20   19 1    
    26   21   19 1    
    27   36   19 1    
    28   43   20 1    
    29   22   21 1    
    30   37   21 1    
    31   23   22 1    
    32   31   22 1    
    33   24   23 2    
    34   38   23 1    
    35   25   24 1    
    36   26   25 ar   
    37   31   25 ar   
    38   27   26 1    
    39   28   26 ar   
    40   39   27 1    
    41   40   27 1    
    42   29   28 ar   
    43   30   29 ar   
    44   41   29 1    
    45   31   30 ar   
@<TRIPOS>SUBSTRUCTURE
     1 ATP113      1 GROUP   
@<TRIPOS>SET

