#    Name: 4boh_ALA_LYS_PRO_ARG_LEU_1_INTS_M
#    Modification time : Tue Mar 25 08:05:21 2014

@<TRIPOS>MOLECULE
4boh_ALA_LYS_PRO_ARG_LEU_1_INTS_M
   52     0     9     0     0
SMALL
NO_CHARGES


@<TRIPOS>ATOM
      1 CA         26.1770   12.3285   13.6440 C.3       3 GLC5        0.0000 
      2 CA         26.1240   10.6620   12.1880 C.3       9 GLL5        0.0000 
      3 CA         26.2300   13.9950   15.1000 C.3       6 GLP5        0.0000 
      4 CA         22.8905    9.2330   12.2285 C.3       3 GLC5        0.0000 
      5 CA         24.6340   10.3830   12.3970 C.3       9 GLL5        0.0000 
      6 CA         21.1470    8.0830   12.0600 C.3       6 GLP5        0.0000 
      7 CA         24.2035   10.2460   14.4750 C.3       3 GLC5        0.0000 
      8 CA         23.7730   10.1090   16.5530 C.3       6 GLP5        0.0000 
      9 CA         29.6925    8.0580   14.2215 C.3       3 GLC5        0.0000 
     10 CA         29.0700    7.6080   12.1340 C.3       9 GLL5        0.0000 
     11 CA         30.3150    8.5080   16.3090 C.3       6 GLP5        0.0000 
     12 CA         30.1500   10.2130   11.3510 C.3       3 GLC5        0.0000 
     13 CA         29.7720    8.3880   11.0310 C.3       9 GLL5        0.0000 
     14 CA         30.5280   12.0380   11.6710 C.3       6 GLP5        0.0000 
     15 CA         26.3040    6.2230   16.4595 C.3       3 GLC5        0.0000 
     16 CA         25.0750    5.1930   15.3410 C.3       9 GLL5        0.0000 
     17 CA         27.5330    7.2530   17.5780 C.3       6 GLP5        0.0000 
     18 CA         26.4750    1.7080   13.2600 C.3       3 GLC5        0.0000 
     19 CA         26.4030    1.6130   15.3240 C.3       9 GLL5        0.0000 
     20 CA         26.5470    1.8030   11.1960 C.3       6 GLP5        0.0000 
     21 N          26.0820    0.1995   12.8245 N.am      2 SEC2        0.0000 
     22 N          25.2700   -0.0520   14.0120 N.am      8 SEL2        0.0000 
     23 N          26.8940    0.4510   11.6370 N.am      5 SEP2        0.0000 
     24 CA         26.5390   -1.1105   16.9765 C.3       3 GLC5        0.0000 
     25 CA         27.1140    0.9100   16.4840 C.3       9 GLL5        0.0000 
     26 CA         25.9640   -3.1310   17.4690 C.3       6 GLP5        0.0000 
     27 CA         29.7965    3.1930   17.0165 C.3       3 GLC5        0.0000 
     28 CA         28.4490    1.5160   16.8870 C.3       9 GLL5        0.0000 
     29 CA         31.1440    4.8700   17.1460 C.3       6 GLP5        0.0000 
     30 CA         29.1440   -0.9655   18.7025 C.3       3 GLC5        0.0000 
     31 CA         29.0860    0.7030   18.0030 C.3       9 GLL5        0.0000 
     32 CA         29.2020   -2.6340   19.4020 C.3       6 GLP5        0.0000 
     33 CA         30.1190   -0.9005   17.3440 C.3       3 GLC5        0.0000 
     34 CA         31.1520   -2.5040   16.6850 C.3       6 GLP5        0.0000 
     35 O          31.2910    0.9015   17.2095 O.2       1 ALC1        0.0000 
     36 O          30.3650    1.2530   18.4420 O.2       7 ALL1        0.0000 
     37 O          32.2170    0.5500   15.9770 O.2       4 ALP1        0.0000 
     38 O          32.9890    1.6200   19.7150 O.2       1 ALC1        0.0000 
     39 O          31.6980    2.6050   19.7400 O.2       7 ALL1        0.0000 
     40 O          34.2800    0.6350   19.6900 O.2       4 ALP1        0.0000 
     41 CA         31.3910    7.3080   12.2967 C.3       3 GLC5        0.0000 
     42 CA         33.3610    6.6180   13.0110 C.3       6 GLP5        0.0000 
     43 CA         22.1457    5.1453   16.4450 C.3       3 GLC5        0.0000 
     44 CA         23.5800    5.2800   15.6560 C.3       9 GLL5        0.0000 
     45 CA         21.0170    4.7220   17.8480 C.3       6 GLP5        0.0000 
     46 CA         22.8272    4.1098   13.6610 C.3       3 GLC5        0.0000 
     47 CA         22.3800    2.6510   12.2800 C.3       6 GLP5        0.0000 
     48 CA         22.3125    7.2098   13.1062 C.3       3 GLC5        0.0000 
     49 CA         22.9690    5.8570   14.4280 C.3       9 GLL5        0.0000 
     50 CA         24.0684    7.2512   15.8802 C.3       3 GLC5        0.0000 
     51 CA         23.9870    6.8160   13.8770 C.3       9 GLL5        0.0000 
     52 CA         24.2340    8.7160   16.9350 C.3       6 GLP5        0.0000 
@<TRIPOS>BOND
@<TRIPOS>SUBSTRUCTURE
     1 ALC1       35 GROUP        1 X    ALC  0     ROOT ALC X 1
     2 SEC2       21 GROUP        1 X    SEC  0     **** SEC X 2
     3 GLC5        1 GROUP        1 X    GLC  0     **** GLC X 6
     4 ALP1       37 GROUP        1 Y    ALP  0     ROOT ALP Y 8
     5 SEP2       23 GROUP        1 Y    SEP  0     **** SEP Y 9
     6 GLP5        3 GROUP        1 Y    GLP  0     **** GLP Y 13
     7 ALL1       36 GROUP        1 Z    ALL  0     ROOT ALL Z 15
     8 SEL2       22 GROUP        1 Z    SEL  0     **** SEL Z 16
     9 GLL5        2 GROUP        1 Z    GLL  0     **** GLL Z 20
@<TRIPOS>SET

