#    Name: 4boh_ALA_LYS_PRO_ARG_LEU_1_ligand
#    Modification time : Tue Mar 25 08:05:21 2014

@<TRIPOS>MOLECULE
4boh_ALA_LYS_PRO_ARG_LEU_1_ligand
   75    75     5     0     0
SMALL
NO_CHARGES


@<TRIPOS>ATOM
      1 N          26.5660   10.0970   10.9160 N.4       1 ALA51       0.0000
      2 CA         26.1240   10.6620   12.1880 C.3       1 ALA51       0.0000
      3 C          26.9380   10.2010   13.4180 C.2       1 ALA51       0.0000
      4 O          27.4050   11.0670   14.1590 O.2       1 ALA51       0.0000
      5 CB         24.6340   10.3830   12.3970 C.3       1 ALA51       0.0000
      6 HA         26.2203   11.7712   12.1431 H         1 ALA51       0.0000
      7 H          27.5154   10.3368   10.7130 H         1 ALA51       0.0000
      8 H          26.5088    9.0986   10.9132 H         1 ALA51       0.0000
      9 H          26.0110   10.4245   10.1513 H         1 ALA51       0.0000
     10 HB1        24.4381    9.4025   12.4104 H         1 ALA51       0.0000
     11 HB2        24.3034   10.7598   13.2623 H         1 ALA51       0.0000
     12 HB3        24.0757   10.7836   11.6705 H         1 ALA51       0.0000
     13 N          27.1340    8.9000   13.6860 N.am      2 LYS52       0.0000
     14 CA         26.6480    7.7310   12.9450 C.3       2 LYS52       0.0000
     15 C          26.5020    6.5440   13.8980 C.2       2 LYS52       0.0000
     16 O          27.4940    5.8980   14.2370 O.2       2 LYS52       0.0000
     17 CB         27.6030    7.3700   11.8030 C.3       2 LYS52       0.0000
     18 CG         29.0700    7.6080   12.1340 C.3       2 LYS52       0.0000
     19 CD         29.7720    8.3880   11.0310 C.3       2 LYS52       0.0000
     20 CE         29.9630    7.5400    9.7850 C.3       2 LYS52       0.0000
     21 NZ         30.8450    6.3690   10.0460 N.4       2 LYS52       0.0000
     22 HNCA       27.7248    8.6313   14.5573 H         2 LYS52       0.0000
     23 HA         25.6744    7.9377   12.5190 H         2 LYS52       0.0000
     24 HB2        27.3327    7.9619   10.9145 H         2 LYS52       0.0000
     25 HB3        27.4591    6.3097   11.5424 H         2 LYS52       0.0000
     26 HG2        29.5695    6.6453   12.2681 H         2 LYS52       0.0000
     27 HG3        29.1417    8.1658   13.0710 H         2 LYS52       0.0000
     28 HD2        30.7473    8.7234   11.3930 H         2 LYS52       0.0000
     29 HD3        29.1771    9.2700   10.7803 H         2 LYS52       0.0000
     30 HE2        30.3963    8.1666    8.9947 H         2 LYS52       0.0000
     31 HE3        28.9797    7.1982    9.4367 H         2 LYS52       0.0000
     32 HZ1        31.7542    6.6500   10.3531 H         2 LYS52       0.0000
     33 HZ2        30.4685    5.7709   10.7535 H         2 LYS52       0.0000
     34 HZ3        30.9722    5.8099    9.2267 H         2 LYS52       0.0000
     35 N          25.2670    6.2460   14.3350 N.am      3 PRO53       0.0000
     36 CA         25.0750    5.1930   15.3410 C.3       3 PRO53       0.0000
     37 C          25.4410    3.8010   14.8260 C.2       3 PRO53       0.0000
     38 O          25.1940    3.5000   13.6590 O.2       3 PRO53       0.0000
     39 CB         23.5800    5.2800   15.6560 C.3       3 PRO53       0.0000
     40 CG         22.9690    5.8570   14.4280 C.3       3 PRO53       0.0000
     41 CD         23.9870    6.8160   13.8770 C.3       3 PRO53       0.0000
     42 HA         25.6120    5.4210   16.2280 H         3 PRO53       0.0000
     43 HB2        23.4366    5.9290   16.4920 H         3 PRO53       0.0000
     44 HB3        23.2044    4.2974   15.8409 H         3 PRO53       0.0000
     45 HG2        22.0671    6.3882   14.6742 H         3 PRO53       0.0000
     46 HG3        22.7748    5.0820   13.7083 H         3 PRO53       0.0000
     47 HD2        23.9339    6.8226   12.8115 H         3 PRO53       0.0000
     48 HD3        23.8311    7.7846   14.2961 H         3 PRO53       0.0000
     49 N          26.0250    2.9750   15.6910 N.am      4 ARG54       0.0000
     50 CA         26.4030    1.6130   15.3240 C.3       4 ARG54       0.0000
     51 C          25.1870    0.7970   14.9010 C.2       4 ARG54       0.0000
     52 O          25.2700   -0.0520   14.0120 O.2       4 ARG54       0.0000
     53 CB         27.1140    0.9100   16.4840 C.3       4 ARG54       0.0000
     54 CG         28.4490    1.5160   16.8870 C.3       4 ARG54       0.0000
     55 CD         29.0860    0.7030   18.0030 C.3       4 ARG54       0.0000
     56 NE         30.3650    1.2530   18.4420 N.pl3     4 ARG54       0.0000
     57 CZ         30.4960    2.1630   19.4020 C.cat     4 ARG54       0.0000
     58 NH1        29.4230    2.6340   20.0220 N.pl3     4 ARG54       0.0000
     59 NH2        31.6980    2.6050   19.7400 N.pl3     4 ARG54       0.0000
     60 HNCA       26.2419    3.2558   16.6706 H         4 ARG54       0.0000
     61 HA         27.0971    1.6325   14.4812 H         4 ARG54       0.0000
     62 HB2        27.2681   -0.1530   16.2112 H         4 ARG54       0.0000
     63 HB3        26.4387    0.9083   17.3627 H         4 ARG54       0.0000
     64 HG2        28.2931    2.5379   17.2287 H         4 ARG54       0.0000
     65 HG3        29.1142    1.5292   16.0253 H         4 ARG54       0.0000
     66 HD2        29.2129   -0.3346   17.6433 H         4 ARG54       0.0000
     67 HD3        28.3728    0.6587   18.8464 H         4 ARG54       0.0000
     68 HE         31.2091    0.8698   17.9320 H         4 ARG54       0.0000
     69 HH11       29.5858    3.3504   20.7004 H         4 ARG54       0.0000
     70 HH12       28.5479    2.2303   19.7551 H         4 ARG54       0.0000
     71 HH21       32.4685    2.2121   19.2380 H         4 ARG54       0.0000
     72 HH22       31.7261    3.2916   20.4665 H         4 ARG54       0.0000
     73 N          24.0940    0.9690   15.4410 N.am      5 LEU55       0.0000
     74 HNCA       23.3483    0.3845   15.1211 H         5 LEU55       0.0000
     75 H          24.0584    1.6764   16.1469 H         5 LEU55       0.0000
@<TRIPOS>BOND
     1    2    1 1
     2    7    1 1
     3    8    1 1
     4    9    1 1
     5    3    2 1
     6    5    2 1
     7    6    2 1
     8    4    3 2
     9   10    5 1
    10   11    5 1
    11   12    5 1
    12   14   13 1
    13   22   13 1
    14   15   14 1
    15   17   14 1
    16   23   14 1
    17   16   15 2
    18   18   17 1
    19   24   17 1
    20   25   17 1
    21   19   18 1
    22   26   18 1
    23   27   18 1
    24   20   19 1
    25   28   19 1
    26   29   19 1
    27   21   20 1
    28   30   20 1
    29   31   20 1
    30   32   21 1
    31   33   21 1
    32   34   21 1
    33   36   35 1
    34   41   35 1
    35   37   36 1
    36   39   36 1
    37   42   36 1
    38   38   37 2
    39   40   39 1
    40   43   39 1
    41   44   39 1
    42   41   40 1
    43   45   40 1
    44   46   40 1
    45   47   41 1
    46   48   41 1
    47   50   49 1
    48   60   49 1
    49   51   50 1
    50   53   50 1
    51   61   50 1
    52   52   51 2
    53   54   53 1
    54   62   53 1
    55   63   53 1
    56   55   54 1
    57   64   54 1
    58   65   54 1
    59   56   55 1
    60   66   55 1
    61   67   55 1
    62   57   56 ar
    63   68   56 1
    64   58   57 ar
    65   59   57 ar
    66   69   58 1
    67   70   58 1
    68   71   59 1
    69   72   59 1
    70   74   73 1
    71   75   73 1
    72   13    3 am
    73   35   15 am
    74   49   37 am
    75   73   51 am
@<TRIPOS>SUBSTRUCTURE
     1 ALA51       1 RESIDUE
     2 LYS52      13 RESIDUE
     3 PRO53      35 RESIDUE
     4 ARG54      49 RESIDUE
     5 LEU55      73 RESIDUE
@<TRIPOS>SET

