#    Name: 2zc9_22U_1_INTS_M
#    Modification time : Tue Mar 25 10:33:21 2014

@<TRIPOS>MOLECULE
2zc9_22U_1_INTS_M
   64     0     9     0     0
SMALL
NO_CHARGES


@<TRIPOS>ATOM
      1 O          15.2065  -15.0255   23.8705 O.2       1 ALC1        0.0000 
      2 O          16.3050  -15.7140   23.2320 O.2       7 ALL1        0.0000 
      3 O          14.1080  -14.3370   24.5090 O.2       4 ALP1        0.0000 
      4 N          15.5365  -12.3760   24.1345 N.am      2 SEC2        0.0000 
      5 N          16.4680  -12.9820   23.1440 N.am      8 SEL2        0.0000 
      6 N          14.6050  -11.7700   25.1250 N.am      5 SEP2        0.0000 
      7 CA         17.5785  -13.4770   26.2830 C.3       3 GLC5        0.0000 
      8 CA         18.1650  -14.9640   24.7310 C.3       9 GLL5        0.0000 
      9 CA         16.9920  -11.9900   27.8350 C.3       6 GLP5        0.0000 
     10 CA         20.7970  -11.1140   24.3225 C.3       3 GLC5        0.0000 
     11 CA         20.9960  -12.5890   25.7570 C.3       9 GLL5        0.0000 
     12 CA         20.5980   -9.6390   22.8880 C.3       6 GLP5        0.0000 
     13 CA         22.5680  -11.5930   23.8240 C.3       3 GLC5        0.0000 
     14 CA         22.0730  -13.0830   24.9910 C.3       9 GLL5        0.0000 
     15 CA         23.0630  -10.1030   22.6570 C.3       6 GLP5        0.0000 
     16 CA         17.6095  -11.1610   23.0100 C.3       3 GLC5        0.0000 
     17 CA         17.8360  -11.8460   21.1120 C.3       9 GLL5        0.0000 
     18 CA         17.3830  -10.4760   24.9080 C.3       6 GLP5        0.0000 
     19 O          16.3600   -9.5740   21.6610 O.2       1 ALC1        0.0000 
     20 O          15.7260  -10.6080   20.9320 O.2       7 ALL1        0.0000 
     21 O          16.9940   -8.5400   22.3900 O.2       4 ALP1        0.0000 
     22 CA         10.1960  -12.7765   21.8610 C.3       3 GLC5        0.0000 
     23 CA         11.5120  -11.3900   22.7010 C.3       9 GLL5        0.0000 
     24 CA          8.8800  -14.1630   21.0210 C.3       6 GLP5        0.0000 
     25 CA         10.7465   -7.6495   23.3315 C.3       3 GLC5        0.0000 
     26 CA         12.2410   -7.8830   24.5260 C.3       9 GLL5        0.0000 
     27 CA          9.2520   -7.4160   22.1370 C.3       6 GLP5        0.0000 
     28 CA         14.1330   -8.9245   24.4935 C.3       3 GLC5        0.0000 
     29 CA         16.0250   -9.9660   24.4610 C.3       6 GLP5        0.0000 
     30 CA         11.6690   -8.3895   26.2320 C.3       3 GLC5        0.0000 
     31 CA         11.0970   -8.8960   27.9380 C.3       6 GLP5        0.0000 
     32 CA         11.3000   -6.2245   25.3410 C.3       3 GLC5        0.0000 
     33 CA         10.3590   -4.5660   26.1560 C.3       6 GLP5        0.0000 
     34 CA         19.0123  -14.8510   26.8347 C.3       3 GLC5        0.0000 
     35 CA         19.1600  -15.0550   28.9000 C.3       6 GLP5        0.0000 
     36 CA         19.7650  -13.9697   27.2858 C.3       3 GLC5        0.0000 
     37 CA         19.7440  -13.1800   25.5860 C.3       9 GLL5        0.0000 
     38 CA         22.8197  -12.0930   26.5420 C.3       3 GLC5        0.0000 
     39 CA         24.1050  -11.3500   27.7100 C.3       6 GLP5        0.0000 
     40 CA         18.8540  -11.8240   25.1925 C.3       3 GLC5        0.0000 
     41 CA         18.7170  -10.2587   19.3757 C.3       3 GLC5        0.0000 
     42 CA         19.1040   -8.7060   18.2370 C.3       6 GLP5        0.0000 
     43 CA         21.4595  -13.6067   20.2883 C.3       3 GLC5        0.0000 
     44 CA         19.9730  -12.7300   20.3520 C.3       9 GLL5        0.0000 
     45 CA         23.3290  -13.8910   19.9100 C.3       6 GLP5        0.0000 
     46 CA         19.8747  -10.9549   21.6606 C.3       3 GLC5        0.0000 
     47 CA         18.8374  -14.0571   19.1159 C.3       3 GLC5        0.0000 
     48 CA         18.8240  -11.7770   19.9170 C.3       9 GLL5        0.0000 
     49 CA         18.3720  -15.0300   17.6740 C.3       6 GLP5        0.0000 
     50 CA         14.9400  -10.1840   22.7005 C.3       3 GLC5        0.0000 
     51 CA         14.3690  -10.4430   20.3670 C.3       9 GLL5        0.0000 
     52 CA         12.9243   -7.8805   21.6343 C.3       3 GLC5        0.0000 
     53 CA         13.2880   -9.2590   22.3860 C.3       9 GLL5        0.0000 
     54 CA         12.5340   -5.9510   21.3190 C.3       6 GLP5        0.0000 
     55 CA         10.4950  -11.2423   20.9982 C.3       3 GLC5        0.0000 
     56 CA         12.4440  -11.4030   21.6720 C.3       9 GLL5        0.0000 
     57 CA          9.0120  -11.0880   19.8100 C.3       6 GLP5        0.0000 
     58 CA         12.4110   -7.2547   22.6435 C.3       3 GLC5        0.0000 
     59 CA         12.3350   -9.2340   23.4100 C.3       9 GLL5        0.0000 
     60 CA         14.4183   -9.6062   23.6795 C.3       3 GLC5        0.0000 
     61 CA         12.7460  -11.2526   24.5847 C.3       3 GLC5        0.0000 
     62 CA         13.5870  -12.4670   25.8990 C.3       6 GLP5        0.0000 
     63 CA         10.9196   -8.4639   22.5364 C.3       3 GLC5        0.0000 
     64 CA         11.4380  -10.2950   23.5610 C.3       9 GLL5        0.0000 
@<TRIPOS>BOND
@<TRIPOS>SUBSTRUCTURE
     1 ALC1        1 GROUP        1 X    ALC  0     ROOT ALC X 1
     2 SEC2        4 GROUP        1 X    SEC  0     **** SEC X 2
     3 GLC5        7 GROUP        1 X    GLC  0     **** GLC X 6
     4 ALP1        3 GROUP        1 Y    ALP  0     ROOT ALP Y 8
     5 SEP2        6 GROUP        1 Y    SEP  0     **** SEP Y 9
     6 GLP5        9 GROUP        1 Y    GLP  0     **** GLP Y 13
     7 ALL1        2 GROUP        1 Z    ALL  0     ROOT ALL Z 15
     8 SEL2        5 GROUP        1 Z    SEL  0     **** SEL Z 16
     9 GLL5        8 GROUP        1 Z    GLL  0     **** GLL Z 20
@<TRIPOS>SET

