#    Name: 2zc9_22U_1_ligand
#    Modification time : Tue Mar 25 10:33:21 2014

@<TRIPOS>MOLECULE
2zc9_22U_1_ligand
   52    54     1     0     0
SMALL
NO_CHARGES


@<TRIPOS>ATOM
      1 N1         16.3050  -15.7140   23.2320 N.4       1 22U1501     0.0000 
      2 C2         17.6270  -15.0160   23.2870 C.3       1 22U1501     0.0000 
      3 C3         17.4490  -13.6090   22.7270 C.2       1 22U1501     0.0000 
      4 O1         16.4680  -12.9820   23.1440 O.2       1 22U1501     0.0000 
      5 C1         18.1650  -14.9640   24.7310 C.3       1 22U1501     0.0000 
      6 C16        19.5640  -14.3300   24.8080 C.ar      1 22U1501     0.0000 
      7 C17        20.6640  -14.8530   24.1100 C.ar      1 22U1501     0.0000 
      8 C21        19.7440  -13.1800   25.5860 C.ar      1 22U1501     0.0000 
      9 C18        21.9170  -14.2340   24.2320 C.ar      1 22U1501     0.0000 
     10 C20        20.9960  -12.5890   25.7570 C.ar      1 22U1501     0.0000 
     11 C19        22.0730  -13.0830   24.9910 C.ar      1 22U1501     0.0000 
     12 N2         18.1330  -13.1630   21.6570 N.am      1 22U1501     0.0000 
     13 C7         17.8360  -11.8460   21.1120 C.3       1 22U1501     0.0000 
     14 C8         16.4020  -11.7500   20.6340 C.2       1 22U1501     0.0000 
     15 O2         15.8850  -12.6720   20.0140 O.2       1 22U1501     0.0000 
     16 C6         18.8240  -11.7770   19.9170 C.3       1 22U1501     0.0000 
     17 C5         19.9730  -12.7300   20.3520 C.3       1 22U1501     0.0000 
     18 C4         19.2070  -13.9150   20.9810 C.3       1 22U1501     0.0000 
     19 N3         15.7260  -10.6080   20.9320 N.am      1 22U1501     0.0000 
     20 C9         14.3690  -10.4430   20.3670 C.3       1 22U1501     0.0000 
     21 C10        13.3410  -10.3610   21.5130 C.ar      1 22U1501     0.0000 
     22 C15        12.4440  -11.4030   21.6720 C.ar      1 22U1501     0.0000 
     23 C14        11.5120  -11.3900   22.7010 C.ar      1 22U1501     0.0000 
     24 C13        11.4380  -10.2950   23.5610 C.ar      1 22U1501     0.0000 
     25 C12        12.3350   -9.2340   23.4100 C.ar      1 22U1501     0.0000 
     26 C11        13.2880   -9.2590   22.3860 C.ar      1 22U1501     0.0000 
     27 CL1        12.2410   -7.8830   24.5260 Cl        1 22U1501     0.0000 
     28 H          18.3371  -15.5416   22.6721 H         1 22U1501     0.0000 
     29 H          18.2106  -15.9799   25.1293 H         1 22U1501     0.0000 
     30 H          17.4747  -14.3825   25.3459 H         1 22U1501     0.0000 
     31 H          20.5526  -15.6770   23.5186 H         1 22U1501     0.0000 
     32 H          18.9158  -12.7540   26.0508 H         1 22U1501     0.0000 
     33 H          22.7311  -14.6462   23.7472 H         1 22U1501     0.0000 
     34 H          21.1351  -11.8291   26.4083 H         1 22U1501     0.0000 
     35 H          22.9689  -12.5827   25.0022 H         1 22U1501     0.0000 
     36 H          18.0835  -11.0862   21.7856 H         1 22U1501     0.0000 
     37 H          19.1965  -10.7976   19.8223 H         1 22U1501     0.0000 
     38 H          18.3603  -12.1571   19.0525 H         1 22U1501     0.0000 
     39 H          20.5614  -12.2574   21.0829 H         1 22U1501     0.0000 
     40 H          20.4980  -13.0555   19.5021 H         1 22U1501     0.0000 
     41 H          18.8313  -14.5193   20.2128 H         1 22U1501     0.0000 
     42 H          19.8344  -14.3951   21.6683 H         1 22U1501     0.0000 
     43 H          16.0867   -9.8700   21.5097 H         1 22U1501     0.0000 
     44 H          14.1085  -11.2887   19.7352 H         1 22U1501     0.0000 
     45 H          14.3026   -9.5280   19.7833 H         1 22U1501     0.0000 
     46 H          12.4668  -12.2040   21.0156 H         1 22U1501     0.0000 
     47 H          10.8752  -12.1865   22.8311 H         1 22U1501     0.0000 
     48 H          10.7298  -10.2669   24.3007 H         1 22U1501     0.0000 
     49 H          13.9427   -8.4838   22.2700 H         1 22U1501     0.0000 
     50 H          16.1772  -16.1997   22.3673 H         1 22U1501     0.0000 
     51 H          16.2106  -16.3888   23.9639 H         1 22U1501     0.0000 
     52 H          15.5427  -15.0734   23.3238 H         1 22U1501     0.0000 
@<TRIPOS>BOND
     1    2    1 1    
     2   50    1 1    
     3   51    1 1    
     4   52    1 1    
     5    3    2 1    
     6    5    2 1    
     7   28    2 1    
     8    4    3 2    
     9   12    3 am   
    10    6    5 1    
    11   29    5 1    
    12   30    5 1    
    13    7    6 ar   
    14    8    6 ar   
    15    9    7 ar   
    16   31    7 1    
    17   10    8 ar   
    18   32    8 1    
    19   11    9 ar   
    20   33    9 1    
    21   11   10 ar   
    22   34   10 1    
    23   35   11 1    
    24   13   12 1    
    25   18   12 1    
    26   14   13 1    
    27   16   13 1    
    28   36   13 1    
    29   15   14 2    
    30   19   14 am   
    31   17   16 1    
    32   37   16 1    
    33   38   16 1    
    34   18   17 1    
    35   39   17 1    
    36   40   17 1    
    37   41   18 1    
    38   42   18 1    
    39   20   19 1    
    40   43   19 1    
    41   21   20 1    
    42   44   20 1    
    43   45   20 1    
    44   22   21 ar   
    45   26   21 ar   
    46   23   22 ar   
    47   46   22 1    
    48   24   23 ar   
    49   47   23 1    
    50   25   24 ar   
    51   48   24 1    
    52   26   25 ar   
    53   27   25 1    
    54   49   26 1    
@<TRIPOS>SUBSTRUCTURE
     1 22U1501     1 GROUP   
@<TRIPOS>SET

