#    Name: 3a1n_NAD_1_INTS_M
#    Modification time : Tue Mar 25 11:28:50 2014

@<TRIPOS>MOLECULE
3a1n_NAD_1_INTS_M
  100     0     9     0     0
SMALL
NO_CHARGES


@<TRIPOS>ATOM
      1 N          29.0595  -15.2370  -13.4490 N.am      2 SEC2        0.0000 
      2 N          27.9890  -15.1230  -12.8800 N.am      8 SEL2        0.0000 
      3 N          30.1300  -15.3510  -14.0180 N.am      5 SEP2        0.0000 
      4 CA         24.0335  -14.8700  -13.6700 C.3       3 GLC5        0.0000 
      5 CA         24.9970  -13.3120  -14.5000 C.3       9 GLL5        0.0000 
      6 CA         23.0700  -16.4280  -12.8400 C.3       6 GLP5        0.0000 
      7 CA         25.3665  -11.0035  -16.7320 C.3       3 GLC5        0.0000 
      8 CA         25.0810  -11.8200  -14.9010 C.3       9 GLL5        0.0000 
      9 CA         25.6520  -10.1870  -18.5630 C.3       6 GLP5        0.0000 
     10 N          22.4585  -11.9505  -15.9030 N.am      2 SEC2        0.0000 
     11 N          23.7520  -11.3370  -15.1430 N.am      8 SEL2        0.0000 
     12 N          21.1650  -12.5640  -16.6630 N.am      5 SEP2        0.0000 
     13 O          26.3635   -8.7215  -14.6785 O.2       1 ALC1        0.0000 
     14 O          26.8700  -10.3060  -14.1900 O.2       7 ALL1        0.0000 
     15 O          25.8570   -7.1370  -15.1670 O.2       4 ALP1        0.0000 
     16 O          26.9600   -9.4675  -15.2160 O.2       1 ALC1        0.0000 
     17 O          27.0500   -8.6290  -16.2420 O.2       4 ALP1        0.0000 
     18 O          25.3905   -7.9290  -14.0630 O.2       1 ALC1        0.0000 
     19 O          24.9240   -8.7210  -12.9590 O.2       7 ALL1        0.0000 
     20 CA         24.7425  -10.0750  -16.6695 C.3       3 GLC5        0.0000 
     21 CA         23.8330   -9.9630  -14.7760 C.3       9 GLL5        0.0000 
     22 CA         23.0965  -10.8280  -16.6780 C.3       3 GLC5        0.0000 
     23 CA         22.3600  -11.6930  -18.5800 C.3       6 GLP5        0.0000 
     24 CA         21.3165   -6.8590  -14.1950 C.3       3 GLC5        0.0000 
     25 CA         20.7800   -8.0320  -15.4290 C.3       9 GLL5        0.0000 
     26 CA         21.8530   -5.6860  -12.9610 C.3       6 GLP5        0.0000 
     27 CA         21.0120   -5.5355  -15.8945 C.3       3 GLC5        0.0000 
     28 CA         20.1430   -7.1060  -16.2660 C.3       9 GLL5        0.0000 
     29 CA         21.8810   -3.9650  -15.5230 C.3       6 GLP5        0.0000 
     30 CA         20.0570   -5.2740  -17.4025 C.3       3 GLC5        0.0000 
     31 CA         19.9710   -3.4420  -18.5390 C.3       6 GLP5        0.0000 
     32 O          18.3900   -5.5240  -16.5360 O.2       1 ALC1        0.0000 
     33 O          18.9050   -6.6960  -16.0120 O.2       7 ALL1        0.0000 
     34 O          17.8750   -4.3520  -17.0600 O.2       4 ALP1        0.0000 
     35 N          19.9765   -5.9955  -18.5465 N.am      2 SEC2        0.0000 
     36 N          20.8210   -6.6070  -17.3810 N.am      8 SEL2        0.0000 
     37 N          19.1320   -5.3840  -19.7120 N.am      5 SEP2        0.0000 
     38 CA         24.1310   -6.3530  -17.7370 C.3       3 GLC5        0.0000 
     39 CA         22.1240   -7.0250  -17.6610 C.3       9 GLL5        0.0000 
     40 CA         26.1380   -5.6810  -17.8130 C.3       6 GLP5        0.0000 
     41 CA         22.0025   -5.4950  -16.5920 C.3       3 GLC5        0.0000 
     42 CA         21.0475   -5.2335  -18.1000 C.3       3 GLC5        0.0000 
     43 CA         21.1705   -7.3780  -19.4330 C.3       3 GLC5        0.0000 
     44 CA         20.2170   -7.7310  -21.2050 C.3       6 GLP5        0.0000 
     45 CA         21.9870   -8.6730  -18.3345 C.3       3 GLC5        0.0000 
     46 CA         21.8500  -10.3210  -19.0080 C.3       6 GLP5        0.0000 
     47 CA         22.5905   -6.8805  -14.7575 C.3       3 GLC5        0.0000 
     48 CA         22.0960   -8.4250  -15.7510 C.3       9 GLL5        0.0000 
     49 CA         23.0850   -5.3360  -13.7640 C.3       6 GLP5        0.0000 
     50 N          29.2650  -16.4400  -16.1060 N.am      2 SEC2        0.0000 
     51 N          27.9970  -15.9540  -15.8040 N.am      8 SEL2        0.0000 
     52 N          30.5330  -16.9260  -16.4080 N.am      5 SEP2        0.0000 
     53 CA         25.4570  -15.2700  -18.7005 C.3       3 GLC5        0.0000 
     54 CA         25.2010  -16.3130  -16.9520 C.3       9 GLL5        0.0000 
     55 CA         25.7130  -14.2270  -20.4490 C.3       6 GLP5        0.0000 
     56 CA         24.2000  -15.6195  -19.2920 C.3       3 GLC5        0.0000 
     57 CA         24.1970  -16.9790  -17.8740 C.3       9 GLL5        0.0000 
     58 CA         24.2030  -14.2600  -20.7100 C.3       6 GLP5        0.0000 
     59 CA         24.1230  -17.6665  -19.7490 C.3       3 GLC5        0.0000 
     60 CA         24.0490  -18.3540  -21.6240 C.3       6 GLP5        0.0000 
     61 N          20.7805  -17.3390  -18.9350 N.am      2 SEC2        0.0000 
     62 N          21.8390  -16.6540  -18.2780 N.am      8 SEL2        0.0000 
     63 N          19.7220  -18.0240  -19.5920 N.am      5 SEP2        0.0000 
     64 CA         20.9875  -18.9990  -15.7090 C.3       3 GLC5        0.0000 
     65 CA         22.6150  -18.4330  -16.8120 C.3       9 GLL5        0.0000 
     66 CA         19.3600  -19.5650  -14.6060 C.3       6 GLP5        0.0000 
     67 N          21.2115  -19.9135  -16.1175 N.am      2 SEC2        0.0000 
     68 N          21.2870  -18.8690  -16.8620 N.am      8 SEL2        0.0000 
     69 N          21.1360  -20.9580  -15.3730 N.am      5 SEP2        0.0000 
     70 CA         25.6205  -19.3600  -18.0285 C.3       3 GLC5        0.0000 
     71 CA         23.5640  -19.2160  -17.7010 C.3       9 GLL5        0.0000 
     72 CA         27.6770  -19.5040  -18.3560 C.3       6 GLP5        0.0000 
     73 CA         23.8065  -18.7850  -19.6625 C.3       3 GLC5        0.0000 
     74 O          26.8020  -20.0725  -11.8190 O.2       1 ALC1        0.0000 
     75 O          26.6210  -20.1260  -13.4850 O.2       7 ALL1        0.0000 
     76 O          26.9830  -20.0190  -10.1530 O.2       4 ALP1        0.0000 
     77 CA         27.4220  -23.2905  -16.1030 C.3       3 GLC5        0.0000 
     78 CA         25.2760  -22.6960  -15.8630 C.3       9 GLL5        0.0000 
     79 CA         29.5680  -23.8850  -16.3430 C.3       6 GLP5        0.0000 
     80 CA         25.7975  -20.5870  -17.9890 C.3       3 GLC5        0.0000 
     81 CA         23.9180  -21.6700  -17.6220 C.3       9 GLL5        0.0000 
     82 CA         27.2660  -12.4612  -14.3594 C.3       3 GLC5        0.0000 
     83 CA         29.1790  -13.1660  -14.4800 C.3       6 GLP5        0.0000 
     84 CA         21.6440   -9.2748  -17.2990 C.3       3 GLC5        0.0000 
     85 CA         18.4922   -8.2085  -15.0672 C.3       3 GLC5        0.0000 
     86 CA         16.5230   -8.8480  -14.2870 C.3       6 GLP5        0.0000 
     87 CA         26.1880  -18.0750  -17.8845 C.3       3 GLC5        0.0000 
     88 CA         20.8543  -18.1865  -17.7477 C.3       3 GLC5        0.0000 
     89 CA         19.0070  -18.6460  -18.4410 C.3       6 GLP5        0.0000 
     90 CA         23.0364  -18.6608  -15.3824 C.3       3 GLC5        0.0000 
     91 CA         22.7880  -17.0210  -17.2970 C.3       9 GLL5        0.0000 
     92 CA         22.9400  -18.8500  -13.3870 C.3       6 GLP5        0.0000 
     93 CA         26.4565  -20.1820  -16.9815 C.3       3 GLC5        0.0000 
     94 CA         24.9530  -20.2910  -15.9130 C.3       9 GLL5        0.0000 
     95 CA         24.0880  -19.8550  -14.4970 C.3       3 GLC5        0.0000 
     96 CA         22.4672  -23.1128  -17.0665 C.3       3 GLC5        0.0000 
     97 CA         24.4830  -22.8330  -17.0120 C.3       9 GLL5        0.0000 
     98 CA         20.7340  -23.9740  -16.8160 C.3       6 GLP5        0.0000 
     99 CA         25.2639  -23.4661  -17.9579 C.3       3 GLC5        0.0000 
    100 CA         26.1290  -24.7150  -18.8860 C.3       6 GLP5        0.0000 
@<TRIPOS>BOND
@<TRIPOS>SUBSTRUCTURE
     1 ALC1       13 GROUP        1 X    ALC  0     ROOT ALC X 1
     2 SEC2        1 GROUP        1 X    SEC  0     **** SEC X 2
     3 GLC5        4 GROUP        1 X    GLC  0     **** GLC X 6
     4 ALP1       15 GROUP        1 Y    ALP  0     ROOT ALP Y 8
     5 SEP2        3 GROUP        1 Y    SEP  0     **** SEP Y 9
     6 GLP5        6 GROUP        1 Y    GLP  0     **** GLP Y 13
     7 ALL1       14 GROUP        1 Z    ALL  0     ROOT ALL Z 15
     8 SEL2        2 GROUP        1 Z    SEL  0     **** SEL Z 16
     9 GLL5        5 GROUP        1 Z    GLL  0     **** GLL Z 20
@<TRIPOS>SET

