#    Name: 3a1n_NAD_1_ligand
#    Modification time : Tue Mar 25 11:28:50 2014

@<TRIPOS>MOLECULE
3a1n_NAD_1_ligand
   70    74     1     0     0
SMALL
NO_CHARGES


@<TRIPOS>ATOM
      1 PA         26.5550  -14.9980  -13.1420 P.3       1 NAD3001     0.0000 
      2 O1A        27.9890  -15.1230  -12.8800 O.co2     1 NAD3001     0.0000 
      3 O2A        25.6230  -14.9220  -11.9200 O.co2     1 NAD3001     0.0000 
      4 O5B        26.3170  -13.7320  -14.1360 O.3       1 NAD3001     0.0000 
      5 C5B        24.9970  -13.3120  -14.5000 C.3       1 NAD3001     0.0000 
      6 C4B        25.0810  -11.8200  -14.9010 C.3       1 NAD3001     0.0000 
      7 O4B        23.7520  -11.3370  -15.1430 O.3       1 NAD3001     0.0000 
      8 C3B        25.6670  -10.9470  -13.7770 C.3       1 NAD3001     0.0000 
      9 O3B        26.8700  -10.3060  -14.1900 O.3       1 NAD3001     0.0000 
     10 C2B        24.5370   -9.9880  -13.4490 C.3       1 NAD3001     0.0000 
     11 O2B        24.9240   -8.7210  -12.9590 O.3       1 NAD3001     0.0000 
     12 C1B        23.8330   -9.9630  -14.7760 C.3       1 NAD3001     0.0000 
     13 N9A        22.4910   -9.3150  -14.8030 N.pl3     1 NAD3001     0.0000 
     14 C8A        21.4420   -9.4670  -13.9120 C.2       1 NAD3001     0.0000 
     15 N7A        20.4190   -8.6910  -14.3010 N.2       1 NAD3001     0.0000 
     16 C5A        20.7800   -8.0320  -15.4290 C.ar      1 NAD3001     0.0000 
     17 C6A        20.1430   -7.1060  -16.2660 C.ar      1 NAD3001     0.0000 
     18 N6A        18.9050   -6.6960  -16.0120 N.pl3     1 NAD3001     0.0000 
     19 N1A        20.8210   -6.6070  -17.3810 N.ar      1 NAD3001     0.0000 
     20 C2A        22.1240   -7.0250  -17.6610 C.ar      1 NAD3001     0.0000 
     21 N3A        22.7630   -7.9360  -16.8440 N.ar      1 NAD3001     0.0000 
     22 C4A        22.0960   -8.4250  -15.7510 C.ar      1 NAD3001     0.0000 
     23 O3         26.1370  -16.2450  -14.0690 O.3       1 NAD3001     0.0000 
     24 PN         27.0430  -16.9210  -15.2310 P.3       1 NAD3001     0.0000 
     25 O1N        27.9970  -15.9540  -15.8040 O.co2     1 NAD3001     0.0000 
     26 O2N        27.6300  -18.1680  -14.6730 O.co2     1 NAD3001     0.0000 
     27 O5D        25.9150  -17.3110  -16.2690 O.3       1 NAD3001     0.0000 
     28 C5D        25.2010  -16.3130  -16.9520 C.3       1 NAD3001     0.0000 
     29 C4D        24.1970  -16.9790  -17.8740 C.3       1 NAD3001     0.0000 
     30 O4D        24.5960  -18.3340  -18.0910 O.3       1 NAD3001     0.0000 
     31 C3D        22.7880  -17.0210  -17.2970 C.3       1 NAD3001     0.0000 
     32 O3D        21.8390  -16.6540  -18.2780 O.3       1 NAD3001     0.0000 
     33 C2D        22.6150  -18.4330  -16.8120 C.3       1 NAD3001     0.0000 
     34 O2D        21.2870  -18.8690  -16.8620 O.3       1 NAD3001     0.0000 
     35 C1D        23.5640  -19.2160  -17.7010 C.3       1 NAD3001     0.0000 
     36 N1N        24.1660  -20.4330  -17.0650 N.pl3     1 NAD3001     0.0000 
     37 C2N        24.9530  -20.2910  -15.9130 C.ar      1 NAD3001     0.0000 
     38 C3N        25.5190  -21.4290  -15.3010 C.ar      1 NAD3001     0.0000 
     39 C7N        26.3630  -21.2830  -14.0610 C.2       1 NAD3001     0.0000 
     40 O7N        26.8940  -22.4300  -13.4990 O.2       1 NAD3001     0.0000 
     41 N7N        26.6210  -20.1260  -13.4850 N.am      1 NAD3001     0.0000 
     42 C4N        25.2760  -22.6960  -15.8630 C.ar      1 NAD3001     0.0000 
     43 C5N        24.4830  -22.8330  -17.0120 C.ar      1 NAD3001     0.0000 
     44 C6N        23.9180  -21.6700  -17.6220 C.ar      1 NAD3001     0.0000 
     45 H          24.2993  -13.3900  -13.6739 H         1 NAD3001     0.0000 
     46 H          24.6132  -13.8591  -15.3536 H         1 NAD3001     0.0000 
     47 H          25.6910  -11.7237  -15.7669 H         1 NAD3001     0.0000 
     48 H          25.8032  -11.5968  -12.9257 H         1 NAD3001     0.0000 
     49 H          23.8735  -10.5333  -12.7677 H         1 NAD3001     0.0000 
     50 H          24.4999   -9.4564  -15.4878 H         1 NAD3001     0.0000 
     51 H          21.4670  -10.0460  -13.1403 H         1 NAD3001     0.0000 
     52 H          18.6673   -5.7829  -16.3430 H         1 NAD3001     0.0000 
     53 H          18.3227   -7.3376  -15.5127 H         1 NAD3001     0.0000 
     54 H          22.6090   -6.6439  -18.4907 H         1 NAD3001     0.0000 
     55 H          25.8527  -15.6828  -17.5677 H         1 NAD3001     0.0000 
     56 H          24.6456  -15.6587  -16.2706 H         1 NAD3001     0.0000 
     57 H          24.1666  -16.4448  -18.8094 H         1 NAD3001     0.0000 
     58 H          22.7792  -16.3669  -16.4397 H         1 NAD3001     0.0000 
     59 H          23.0386  -18.4681  -15.8044 H         1 NAD3001     0.0000 
     60 H          23.0011  -19.5281  -18.5891 H         1 NAD3001     0.0000 
     61 H          25.1188  -19.3640  -15.5137 H         1 NAD3001     0.0000 
     62 H          26.2038  -19.3214  -13.9075 H         1 NAD3001     0.0000 
     63 H          27.2105  -20.1581  -12.6778 H         1 NAD3001     0.0000 
     64 H          25.6863  -23.5319  -15.4239 H         1 NAD3001     0.0000 
     65 H          24.3041  -23.7480  -17.4175 H         1 NAD3001     0.0000 
     66 H          23.3439  -21.7777  -18.4552 H         1 NAD3001     0.0000 
     67 H          26.6147   -9.7709  -14.9953 H         1 NAD3001     0.0000 
     68 H          25.2171   -8.2097  -13.7669 H         1 NAD3001     0.0000 
     69 H          21.1179  -16.1778  -17.7749 H         1 NAD3001     0.0000 
     70 H          20.9466  -18.5602  -17.7501 H         1 NAD3001     0.0000 
@<TRIPOS>BOND
     1    2    1 ar   
     2    3    1 ar   
     3    4    1 1    
     4   23    1 1    
     5    5    4 1    
     6    6    5 1    
     7   45    5 1    
     8   46    5 1    
     9    7    6 1    
    10    8    6 1    
    11   47    6 1    
    12   12    7 1    
    13    9    8 1    
    14   10    8 1    
    15   48    8 1    
    16   67    9 1    
    17   11   10 1    
    18   12   10 1    
    19   49   10 1    
    20   68   11 1    
    21   13   12 1    
    22   50   12 1    
    23   14   13 1    
    24   22   13 1    
    25   15   14 2    
    26   51   14 1    
    27   16   15 1    
    28   17   16 ar   
    29   22   16 ar   
    30   18   17 1    
    31   19   17 ar   
    32   52   18 1    
    33   53   18 1    
    34   20   19 ar   
    35   21   20 ar   
    36   54   20 1    
    37   22   21 ar   
    38   24   23 1    
    39   25   24 ar   
    40   26   24 ar   
    41   27   24 1    
    42   28   27 1    
    43   29   28 1    
    44   55   28 1    
    45   56   28 1    
    46   30   29 1    
    47   31   29 1    
    48   57   29 1    
    49   35   30 1    
    50   32   31 1    
    51   33   31 1    
    52   58   31 1    
    53   69   32 1    
    54   34   33 1    
    55   35   33 1    
    56   59   33 1    
    57   70   34 1    
    58   36   35 1    
    59   60   35 1    
    60   37   36 ar   
    61   44   36 ar   
    62   38   37 ar   
    63   61   37 1    
    64   39   38 1    
    65   42   38 ar   
    66   40   39 2    
    67   41   39 am   
    68   62   41 1    
    69   63   41 1    
    70   43   42 ar   
    71   64   42 1    
    72   44   43 ar   
    73   65   43 1    
    74   66   44 1    
@<TRIPOS>SUBSTRUCTURE
     1 NAD3001     1 GROUP   
@<TRIPOS>SET

