#    Name: 1i7g_AZ2_1_INTS_M
#    Modification time : Tue Mar 25 06:45:18 2014

@<TRIPOS>MOLECULE
1i7g_AZ2_1_INTS_M
   89     0     6     0     0
SMALL
NO_CHARGES


@<TRIPOS>ATOM
      1 CA         38.1940   29.3010   37.6410 C.3       2 GLC5        0.0000 
      2 CA         39.5130   30.7880   36.6050 C.3       6 GLL5        0.0000 
      3 CA         36.8750   27.8140   38.6770 C.3       4 GLP5        0.0000 
      4 CA         39.7810   28.7735   36.0145 C.3       2 GLC5        0.0000 
      5 CA         40.0490   26.7590   35.4240 C.3       4 GLP5        0.0000 
      6 CA         39.8955   30.7640   34.6260 C.3       2 GLC5        0.0000 
      7 CA         40.2780   30.7400   32.6470 C.3       4 GLP5        0.0000 
      8 CA         41.3775   30.3975   35.4600 C.3       2 GLC5        0.0000 
      9 CA         43.2420   30.0070   34.3150 C.3       4 GLP5        0.0000 
     10 CA         39.5005   32.3720   39.0120 C.3       2 GLC5        0.0000 
     11 CA         40.3300   30.6260   37.9090 C.3       6 GLL5        0.0000 
     12 CA         38.6710   34.1180   40.1150 C.3       4 GLP5        0.0000 
     13 N          42.0420   31.2070   36.6770 N.am      1 SEC2        0.0000 
     14 N          41.2860   31.7030   37.9490 N.am      5 SEL2        0.0000 
     15 N          42.7980   30.7110   35.4050 N.am      3 SEP2        0.0000 
     16 CA         43.5115   32.5500   40.2240 C.3       2 GLC5        0.0000 
     17 CA         41.6910   32.1050   39.2530 C.3       6 GLL5        0.0000 
     18 CA         45.3320   32.9950   41.1950 C.3       4 GLP5        0.0000 
     19 CA         41.2495   31.0170   40.8780 C.3       2 GLC5        0.0000 
     20 CA         40.8080   29.9290   42.5030 C.3       4 GLP5        0.0000 
     21 CA         43.5620   31.2395   38.3755 C.3       2 GLC5        0.0000 
     22 CA         45.4330   30.3740   37.4980 C.3       4 GLP5        0.0000 
     23 CA         43.4565   33.7770   40.4340 C.3       2 GLC5        0.0000 
     24 CA         42.2940   33.4880   39.1140 C.3       6 GLL5        0.0000 
     25 CA         44.6190   34.0660   41.7540 C.3       4 GLP5        0.0000 
     26 CA         42.6380   34.7430   37.7760 C.3       2 GLC5        0.0000 
     27 CA         42.9820   35.9980   36.4380 C.3       4 GLP5        0.0000 
     28 N          38.7940   28.6010   38.1805 N.am      1 SEC2        0.0000 
     29 N          40.0910   28.2780   38.2830 N.am      5 SEL2        0.0000 
     30 N          37.4970   28.9240   38.0780 N.am      3 SEP2        0.0000 
     31 N          40.4260   27.0835   37.9090 N.am      1 SEC2        0.0000 
     32 N          40.7610   25.8890   37.5350 N.am      3 SEP2        0.0000 
     33 N          42.4560   29.8335   36.5160 N.am      1 SEC2        0.0000 
     34 N          42.1140   28.9560   37.6270 N.am      5 SEL2        0.0000 
     35 N          42.7170   28.1620   36.9160 N.am      1 SEC2        0.0000 
     36 N          43.3200   27.3680   36.2050 N.am      3 SEP2        0.0000 
     37 CA         38.4080   35.1525   38.1155 C.3       2 GLC5        0.0000 
     38 CA         38.2100   34.4030   36.4970 C.3       6 GLL5        0.0000 
     39 CA         38.6060   35.9020   39.7340 C.3       4 GLP5        0.0000 
     40 CA         34.5160   32.3670   37.6825 C.3       2 GLC5        0.0000 
     41 CA         36.3250   32.8990   36.9670 C.3       6 GLL5        0.0000 
     42 CA         32.7070   31.8350   38.3980 C.3       4 GLP5        0.0000 
     43 CA         34.9730   33.5035   35.3335 C.3       2 GLC5        0.0000 
     44 CA         33.6210   34.1080   33.7000 C.3       4 GLP5        0.0000 
     45 CA         37.0300   29.8020   37.7930 C.3       2 GLC5        0.0000 
     46 CA         37.1850   31.7900   36.9090 C.3       6 GLL5        0.0000 
     47 CA         36.7390   35.6575   38.6045 C.3       2 GLC5        0.0000 
     48 CA         34.8720   35.4130   37.4750 C.3       6 GLL5        0.0000 
     49 CA         33.7895   33.6240   37.9365 C.3       2 GLC5        0.0000 
     50 CA         34.2465   34.7605   35.5875 C.3       2 GLC5        0.0000 
     51 CA         35.2050   40.3755   38.6395 C.3       2 GLC5        0.0000 
     52 CA         35.7260   38.4610   39.3000 C.3       6 GLL5        0.0000 
     53 CA         34.6840   42.2900   37.9790 C.3       4 GLP5        0.0000 
     54 CA         36.1595   40.9105   40.6110 C.3       2 GLC5        0.0000 
     55 CA         36.0290   38.8900   40.6080 C.3       6 GLL5        0.0000 
     56 CA         36.2900   42.9310   40.6140 C.3       4 GLP5        0.0000 
     57 CA         36.1735   41.6800   45.4600 C.3       2 GLC5        0.0000 
     58 CA         35.7830   39.9980   45.1580 C.3       6 GLL5        0.0000 
     59 CA         36.5640   43.3620   45.7620 C.3       4 GLP5        0.0000 
     60 CA         35.3400   40.8035   47.1405 C.3       2 GLC5        0.0000 
     61 CA         34.8970   41.6090   49.1230 C.3       4 GLP5        0.0000 
     62 CA         37.6210   40.3280   44.5800 C.3       2 GLC5        0.0000 
     63 CA         39.4590   40.6580   44.0020 C.3       4 GLP5        0.0000 
     64 CA         35.8410   38.1460   45.7610 C.3       2 GLC5        0.0000 
     65 CA         35.8990   36.2940   46.3640 C.3       4 GLP5        0.0000 
     66 CA         40.3317   33.4573   39.6492 C.3       2 GLC5        0.0000 
     67 CA         36.7010   34.5027   34.7140 C.3       2 GLC5        0.0000 
     68 CA         35.8820   34.6920   32.7970 C.3       4 GLP5        0.0000 
     69 CA         38.1815   35.9372   35.7660 C.3       2 GLC5        0.0000 
     70 CA         36.8300   34.2240   36.7650 C.3       6 GLL5        0.0000 
     71 CA         38.8430   37.5610   34.9010 C.3       4 GLP5        0.0000 
     72 CA         34.5255   37.0095   35.9810 C.3       2 GLC5        0.0000 
     73 CA         34.3430   37.8710   34.3700 C.3       4 GLP5        0.0000 
     74 CA         36.9552   36.8997   39.4665 C.3       2 GLC5        0.0000 
     75 CA         34.8830   37.3340   39.0980 C.3       6 GLL5        0.0000 
     76 CA         34.1298   39.2243   39.6905 C.3       2 GLC5        0.0000 
     77 CA         32.3820   39.7730   39.4270 C.3       4 GLP5        0.0000 
     78 CA         37.7975   38.8462   41.5850 C.3       2 GLC5        0.0000 
     79 CA         39.8340   39.1500   41.9990 C.3       4 GLP5        0.0000 
     80 CA         37.1835   37.2223   40.4525 C.3       2 GLC5        0.0000 
     81 CA         35.5760   36.6805   43.1425 C.3       2 GLC5        0.0000 
     82 CA         35.4930   38.1950   41.7340 C.3       6 GLL5        0.0000 
     83 CA         36.0740   35.7250   44.6490 C.3       4 GLP5        0.0000 
     84 CA         33.7300   38.7045   40.5315 C.3       2 GLC5        0.0000 
     85 CA         34.6630   37.0770   41.5380 C.3       6 GLL5        0.0000 
     86 CA         36.5577   36.3812   40.3090 C.3       2 GLC5        0.0000 
     87 CA         33.4584   38.3246   39.3719 C.3       2 GLC5        0.0000 
     88 CA         34.3560   36.6440   40.2300 C.3       6 GLL5        0.0000 
     89 CA         37.9811   33.5022   38.4554 C.3       2 GLC5        0.0000 
@<TRIPOS>BOND
@<TRIPOS>SUBSTRUCTURE
     1 SEC2       13 GROUP        1 X    SEC  0     ROOT SEC X 2
     2 GLC5        1 GROUP        1 X    GLC  0     **** GLC X 6
     3 SEP2       15 GROUP        1 Y    SEP  0     ROOT SEP Y 9
     4 GLP5        3 GROUP        1 Y    GLP  0     **** GLP Y 13
     5 SEL2       14 GROUP        1 Z    SEL  0     ROOT SEL Z 16
     6 GLL5        2 GROUP        1 Z    GLL  0     **** GLL Z 20
@<TRIPOS>SET

