#    Name: 1i7g_AZ2_1_ligand
#    Modification time : Tue Mar 25 06:45:18 2014

@<TRIPOS>MOLECULE
1i7g_AZ2_1_ligand
   51    52     1     0     0
SMALL
NO_CHARGES


@<TRIPOS>ATOM
      1 C1         38.5740   31.9690   36.6470 C.ar      1 AZ2469      0.0000 
      2 C2         39.5130   30.7880   36.6050 C.3       1 AZ2469      0.0000 
      3 C5         40.3300   30.6260   37.9090 C.3       1 AZ2469      0.0000 
      4 O7         41.2860   31.7030   37.9490 O.3       1 AZ2469      0.0000 
      5 C8         41.6910   32.1050   39.2530 C.3       1 AZ2469      0.0000 
      6 C11        42.2940   33.4880   39.1140 C.3       1 AZ2469      0.0000 
      7 C15        40.9620   29.2420   37.9120 C.2       1 AZ2469      0.0000 
      8 O16        40.0910   28.2780   38.2830 O.co2     1 AZ2469      0.0000 
      9 O18        42.1140   28.9560   37.6270 O.co2     1 AZ2469      0.0000 
     10 C19        39.0760   33.2960   36.4380 C.ar      1 AZ2469      0.0000 
     11 C21        38.2100   34.4030   36.4970 C.ar      1 AZ2469      0.0000 
     12 C23        36.8300   34.2240   36.7650 C.ar      1 AZ2469      0.0000 
     13 C24        36.3250   32.8990   36.9670 C.ar      1 AZ2469      0.0000 
     14 C26        37.1850   31.7900   36.9090 C.ar      1 AZ2469      0.0000 
     15 O28        36.1240   35.3940   36.7930 O.3       1 AZ2469      0.0000 
     16 C29        34.8720   35.4130   37.4750 C.3       1 AZ2469      0.0000 
     17 C32        34.5440   36.8830   37.7090 C.3       1 AZ2469      0.0000 
     18 C35        34.8830   37.3340   39.0980 C.ar      1 AZ2469      0.0000 
     19 C36        35.7260   38.4610   39.3000 C.ar      1 AZ2469      0.0000 
     20 C38        36.0290   38.8900   40.6080 C.ar      1 AZ2469      0.0000 
     21 C40        35.4930   38.1950   41.7340 C.ar      1 AZ2469      0.0000 
     22 C41        34.6630   37.0770   41.5380 C.ar      1 AZ2469      0.0000 
     23 C43        34.3560   36.6440   40.2300 C.ar      1 AZ2469      0.0000 
     24 O45        35.8350   38.7070   42.9490 O.3       1 AZ2469      0.0000 
     25 S46        34.8030   39.7180   43.7040 S.o2      1 AZ2469      0.0000 
     26 C47        35.7830   39.9980   45.1580 C.3       1 AZ2469      0.0000 
     27 O51        34.7270   40.9530   42.9560 O.2       1 AZ2469      0.0000 
     28 O52        33.6190   38.9790   44.0960 O.2       1 AZ2469      0.0000 
     29 H          40.2156   30.9013   35.7701 H         1 AZ2469      0.0000 
     30 H          38.9429   29.8655   36.4389 H         1 AZ2469      0.0000 
     31 H          39.6258   30.6942   38.7237 H         1 AZ2469      0.0000 
     32 H          42.4466   31.4441   39.6664 H         1 AZ2469      0.0000 
     33 H          40.8518   32.1669   39.9389 H         1 AZ2469      0.0000 
     34 H          40.0709   33.4257   36.2458 H         1 AZ2469      0.0000 
     35 H          38.5756   35.3485   36.3456 H         1 AZ2469      0.0000 
     36 H          35.3272   32.7719   37.1544 H         1 AZ2469      0.0000 
     37 H          36.8208   30.8454   37.0544 H         1 AZ2469      0.0000 
     38 H          34.9240   34.9221   38.4374 H         1 AZ2469      0.0000 
     39 H          34.0775   34.9809   36.8818 H         1 AZ2469      0.0000 
     40 H          33.4720   37.0396   37.5198 H         1 AZ2469      0.0000 
     41 H          35.0980   37.4888   36.9771 H         1 AZ2469      0.0000 
     42 H          36.1091   38.9557   38.4942 H         1 AZ2469      0.0000 
     43 H          36.6325   39.6988   40.7590 H         1 AZ2469      0.0000 
     44 H          34.2799   36.5751   42.3428 H         1 AZ2469      0.0000 
     45 H          33.7529   35.8317   40.0861 H         1 AZ2469      0.0000 
     46 H          42.6110   33.8450   39.9927 H         1 AZ2469      0.0000 
     47 H          43.0802   33.4900   38.4960 H         1 AZ2469      0.0000 
     48 H          41.6342   34.1461   38.7511 H         1 AZ2469      0.0000 
     49 H          36.1113   39.1410   45.5553 H         1 AZ2469      0.0000 
     50 H          36.5883   40.5573   44.9611 H         1 AZ2469      0.0000 
     51 H          35.2643   40.4714   45.8700 H         1 AZ2469      0.0000 
@<TRIPOS>BOND
     1    2    1 1    
     2   10    1 ar   
     3   14    1 ar   
     4    3    2 1    
     5   29    2 1    
     6   30    2 1    
     7    4    3 1    
     8    7    3 1    
     9   31    3 1    
    10    5    4 1    
    11    6    5 1    
    12   32    5 1    
    13   33    5 1    
    14   46    6 1    
    15   47    6 1    
    16   48    6 1    
    17    8    7 ar   
    18    9    7 ar   
    19   11   10 ar   
    20   34   10 1    
    21   12   11 ar   
    22   35   11 1    
    23   13   12 ar   
    24   15   12 1    
    25   14   13 ar   
    26   36   13 1    
    27   37   14 1    
    28   16   15 1    
    29   17   16 1    
    30   38   16 1    
    31   39   16 1    
    32   18   17 1    
    33   40   17 1    
    34   41   17 1    
    35   19   18 ar   
    36   23   18 ar   
    37   20   19 ar   
    38   42   19 1    
    39   21   20 ar   
    40   43   20 1    
    41   22   21 ar   
    42   24   21 1    
    43   23   22 ar   
    44   44   22 1    
    45   45   23 1    
    46   25   24 1    
    47   26   25 1    
    48   27   25 2    
    49   28   25 2    
    50   49   26 1    
    51   50   26 1    
    52   51   26 1    
@<TRIPOS>SUBSTRUCTURE
     1 AZ2469      1 GROUP   
@<TRIPOS>SET

