#    Name: 1zq5_E04_1_INTS_M
#    Modification time : Mon Mar 24 17:47:10 2014

@<TRIPOS>MOLECULE
1zq5_E04_1_INTS_M
   80     0     9     0     0
SMALL
NO_CHARGES


@<TRIPOS>ATOM
      1 N          29.5945   21.7685   18.4880 N.am      2 SEC2        0.0000 
      2 N          29.8520   21.2490   17.2310 N.am      8 SEL2        0.0000 
      3 N          29.3370   22.2880   19.7450 N.am      5 SEP2        0.0000 
      4 CA         28.5485   20.2415   15.5505 C.3       3 GLC5        0.0000 
      5 CA         30.3160   19.9010   14.7030 C.3       9 GLL5        0.0000 
      6 CA         26.7810   20.5820   16.3980 C.3       6 GLP5        0.0000 
      7 CA         30.0170   18.3730   15.8100 C.3       3 GLC5        0.0000 
      8 CA         29.7180   16.8450   16.9170 C.3       6 GLP5        0.0000 
      9 CA         30.3455   18.5755   13.4585 C.3       3 GLC5        0.0000 
     10 CA         30.3750   17.2500   12.2140 C.3       6 GLP5        0.0000 
     11 CA         34.2015   20.5405   16.0990 C.3       3 GLC5        0.0000 
     12 CA         32.3510   20.1080   16.1090 C.3       9 GLL5        0.0000 
     13 CA         36.0520   20.9730   16.0890 C.3       6 GLP5        0.0000 
     14 CA         33.4770   18.7200   16.6500 C.3       3 GLC5        0.0000 
     15 CA         34.6030   17.3320   17.1910 C.3       6 GLP5        0.0000 
     16 CA         31.6120   18.5720   16.9935 C.3       3 GLC5        0.0000 
     17 CA         30.8730   17.0360   17.8780 C.3       6 GLP5        0.0000 
     18 CA         33.9435   21.4655   14.4855 C.3       3 GLC5        0.0000 
     19 CA         31.9680   21.7170   14.2570 C.3       9 GLL5        0.0000 
     20 CA         35.9190   21.2140   14.7140 C.3       6 GLP5        0.0000 
     21 CA         32.6730   22.4920   16.9130 C.3       3 GLC5        0.0000 
     22 CA         32.4510   23.0740   14.7600 C.3       9 GLL5        0.0000 
     23 CA         32.8950   21.9100   19.0660 C.3       6 GLP5        0.0000 
     24 CA         34.2200   22.7950   14.4880 C.3       3 GLC5        0.0000 
     25 CA         35.9890   22.5160   14.2160 C.3       6 GLP5        0.0000 
     26 CA         30.0560   26.9570   18.2570 C.3       3 GLC5        0.0000 
     27 CA         30.4780   25.7410   16.7540 C.3       9 GLL5        0.0000 
     28 CA         29.6340   28.1730   19.7600 C.3       6 GLP5        0.0000 
     29 CA         28.4305   26.3855   16.9260 C.3       3 GLC5        0.0000 
     30 CA         26.3830   27.0300   17.0980 C.3       6 GLP5        0.0000 
     31 CA         29.4210   24.5370   18.2285 C.3       3 GLC5        0.0000 
     32 CA         28.3640   23.3330   19.7030 C.3       6 GLP5        0.0000 
     33 CA         32.6515   25.6255   12.8800 C.3       3 GLC5        0.0000 
     34 CA         31.9620   26.1060   14.7040 C.3       9 GLL5        0.0000 
     35 CA         33.3410   25.1450   11.0560 C.3       6 GLP5        0.0000 
     36 CA         31.7665   26.1025   12.2295 C.3       3 GLC5        0.0000 
     37 CA         30.7630   25.8490   13.7900 C.3       9 GLL5        0.0000 
     38 CA         32.7700   26.3560   10.6690 C.3       6 GLP5        0.0000 
     39 CA         28.9040   23.6250   12.6750 C.3       3 GLC5        0.0000 
     40 CA         30.3930   24.3810   14.0690 C.3       9 GLL5        0.0000 
     41 CA         27.4150   22.8690   11.2810 C.3       6 GLP5        0.0000 
     42 CA         31.8670   24.7630   12.5625 C.3       3 GLC5        0.0000 
     43 CA         31.1475   29.0035   15.9505 C.3       3 GLC5        0.0000 
     44 CA         32.3670   27.5440   15.0720 C.3       9 GLL5        0.0000 
     45 CA         29.9280   30.4630   16.8290 C.3       6 GLP5        0.0000 
     46 CA         35.2560   28.5075   15.4785 C.3       3 GLC5        0.0000 
     47 CA         33.5500   27.5120   16.0550 C.3       9 GLL5        0.0000 
     48 CA         36.9620   29.5030   14.9020 C.3       6 GLP5        0.0000 
     49 CA         32.1700   27.3650   18.5980 C.3       3 GLC5        0.0000 
     50 CA         33.3160   26.5850   17.2570 C.3       9 GLL5        0.0000 
     51 CA         31.0240   28.1450   19.9390 C.3       6 GLP5        0.0000 
     52 CA         32.9040   23.5395   17.9415 C.3       3 GLC5        0.0000 
     53 CA         32.9130   25.1690   16.8170 C.3       9 GLL5        0.0000 
     54 CA         34.6245   24.2470   16.6475 C.3       3 GLC5        0.0000 
     55 CA         36.3360   23.3250   16.4780 C.3       6 GLP5        0.0000 
     56 CA         36.2770   30.5565   19.8985 C.3       3 GLC5        0.0000 
     57 CA         35.0300   30.3590   18.0700 C.3       9 GLL5        0.0000 
     58 CA         37.5240   30.7540   21.7270 C.3       6 GLP5        0.0000 
     59 N          35.8495   33.6735   15.3230 N.am      2 SEC2        0.0000 
     60 N          34.9600   33.8490   16.7910 N.am      8 SEL2        0.0000 
     61 N          36.7390   33.4980   13.8550 N.am      5 SEP2        0.0000 
     62 O          36.2230   32.0095   19.6785 O.2       1 ALC1        0.0000 
     63 O          35.7770   33.0640   18.7350 O.2       7 ALL1        0.0000 
     64 O          36.6690   30.9550   20.6220 O.2       4 ALP1        0.0000 
     65 CA         32.7880   27.3750   12.2745 C.3       3 GLC5        0.0000 
     66 CA         32.8060   28.3940   13.8800 C.3       9 GLL5        0.0000 
     67 CA         32.3563   21.2025   17.3967 C.3       3 GLC5        0.0000 
     68 CA         31.2840   20.8820   15.3460 C.3       9 GLL5        0.0000 
     69 CA         32.8413   22.5153   12.7342 C.3       3 GLC5        0.0000 
     70 CA         33.4730   22.6350   10.9600 C.3       6 GLP5        0.0000 
     71 CA         29.0715   25.6835   12.7677 C.3       3 GLC5        0.0000 
     72 CA         27.5650   26.2520   11.6060 C.3       6 GLP5        0.0000 
     73 CA         32.7822   31.4910   17.6985 C.3       3 GLC5        0.0000 
     74 CA         34.7680   31.4530   17.2460 C.3       9 GLL5        0.0000 
     75 CA         31.0640   31.9020   18.5500 C.3       6 GLP5        0.0000 
     76 CA         31.6654   30.0531   16.0054 C.3       3 GLC5        0.0000 
     77 CA         33.9540   28.8880   16.4730 C.3       9 GLL5        0.0000 
     78 CA         34.7867   29.0213   13.8758 C.3       3 GLC5        0.0000 
     79 CA         32.9810   29.8530   14.3050 C.3       9 GLL5        0.0000 
     80 CA         36.6800   28.9190   13.6590 C.3       6 GLP5        0.0000 
@<TRIPOS>BOND
@<TRIPOS>SUBSTRUCTURE
     1 ALC1       62 GROUP        1 X    ALC  0     ROOT ALC X 1
     2 SEC2        1 GROUP        1 X    SEC  0     **** SEC X 2
     3 GLC5        4 GROUP        1 X    GLC  0     **** GLC X 6
     4 ALP1       64 GROUP        1 Y    ALP  0     ROOT ALP Y 8
     5 SEP2        3 GROUP        1 Y    SEP  0     **** SEP Y 9
     6 GLP5        6 GROUP        1 Y    GLP  0     **** GLP Y 13
     7 ALL1       63 GROUP        1 Z    ALL  0     ROOT ALL Z 15
     8 SEL2        2 GROUP        1 Z    SEL  0     **** SEL Z 16
     9 GLL5        5 GROUP        1 Z    GLL  0     **** GLL Z 20
@<TRIPOS>SET

