#    Name: 1zq5_E04_1_ligand
#    Modification time : Mon Mar 24 17:47:10 2014

@<TRIPOS>MOLECULE
1zq5_E04_1_ligand
   62    66     1     0     0
SMALL
NO_CHARGES


@<TRIPOS>ATOM
      1 O26        29.8520   21.2490   17.2310 O.2       1 E04400      0.0000 
      2 C20        30.5050   21.7390   16.3230 C.2       1 E04400      0.0000 
      3 C21        31.2840   20.8820   15.3460 C.3       1 E04400      0.0000 
      4 C25        30.3160   19.9010   14.7030 C.3       1 E04400      0.0000 
      5 C24        32.3510   20.1080   16.1090 C.3       1 E04400      0.0000 
      6 C22        31.9680   21.7170   14.2570 C.3       1 E04400      0.0000 
      7 C23        32.4510   23.0740   14.7600 C.3       1 E04400      0.0000 
      8 C17        31.2660   23.9160   15.2520 C.3       1 E04400      0.0000 
      9 O19        30.5100   23.1720   16.2280 O.3       1 E04400      0.0000 
     10 C13        31.6720   25.2290   15.9230 C.3       1 E04400      0.0000 
     11 C18        30.4780   25.7410   16.7540 C.3       1 E04400      0.0000 
     12 C14        31.9620   26.1060   14.7040 C.3       1 E04400      0.0000 
     13 C15        30.7630   25.8490   13.7900 C.3       1 E04400      0.0000 
     14 C16        30.3930   24.3810   14.0690 C.3       1 E04400      0.0000 
     15 C8         32.3670   27.5440   15.0720 C.3       1 E04400      0.0000 
     16 C9         33.5500   27.5120   16.0550 C.3       1 E04400      0.0000 
     17 C11        33.3160   26.5850   17.2570 C.3       1 E04400      0.0000 
     18 C12        32.9130   25.1690   16.8170 C.3       1 E04400      0.0000 
     19 C10        33.9540   28.8880   16.4730 C.ar      1 E04400      0.0000 
     20 C1         34.6260   29.0750   17.6860 C.ar      1 E04400      0.0000 
     21 C2         35.0300   30.3590   18.0700 C.ar      1 E04400      0.0000 
     22 C3         34.7680   31.4530   17.2460 C.ar      1 E04400      0.0000 
     23 C27        35.1930   32.8450   17.6330 C.2       1 E04400      0.0000 
     24 O29        34.9600   33.8490   16.7910 O.2       1 E04400      0.0000 
     25 N28        35.7770   33.0640   18.7350 N.am      1 E04400      0.0000 
     26 C4         34.1020   31.2540   16.0360 C.ar      1 E04400      0.0000 
     27 C5         33.6950   29.9790   15.6440 C.ar      1 E04400      0.0000 
     28 C6         32.9810   29.8530   14.3050 C.3       1 E04400      0.0000 
     29 C7         32.8060   28.3940   13.8800 C.3       1 E04400      0.0000 
     30 H          31.2616   21.8696   13.4305 H         1 E04400      0.0000 
     31 H          32.8237   21.1534   13.8625 H         1 E04400      0.0000 
     32 H          32.9516   23.6020   13.9530 H         1 E04400      0.0000 
     33 H          33.1488   22.9287   15.5802 H         1 E04400      0.0000 
     34 H          32.8400   25.6063   14.2085 H         1 E04400      0.0000 
     35 H          31.0520   25.9549   12.7765 H         1 E04400      0.0000 
     36 H          29.9561   26.4765   14.0675 H         1 E04400      0.0000 
     37 H          29.3608   24.3179   14.3420 H         1 E04400      0.0000 
     38 H          30.6144   23.7864   13.2080 H         1 E04400      0.0000 
     39 H          31.5463   28.0332   15.5691 H         1 E04400      0.0000 
     40 H          34.4146   27.0751   15.4849 H         1 E04400      0.0000 
     41 H          32.5250   27.0030   17.8819 H         1 E04400      0.0000 
     42 H          34.2318   26.5279   17.8477 H         1 E04400      0.0000 
     43 H          33.7325   24.7206   16.2662 H         1 E04400      0.0000 
     44 H          32.6956   24.5715   17.6955 H         1 E04400      0.0000 
     45 H          34.8223   28.2728   18.2928 H         1 E04400      0.0000 
     46 H          35.5212   30.4934   18.9626 H         1 E04400      0.0000 
     47 H          35.9535   32.2625   19.3064 H         1 E04400      0.0000 
     48 H          36.0064   34.0177   18.9295 H         1 E04400      0.0000 
     49 H          33.9080   32.0623   15.4226 H         1 E04400      0.0000 
     50 H          33.5560   30.3812   13.5377 H         1 E04400      0.0000 
     51 H          31.9955   30.3244   14.3752 H         1 E04400      0.0000 
     52 H          32.0526   28.3356   13.0998 H         1 E04400      0.0000 
     53 H          33.7497   28.0163   13.4972 H         1 E04400      0.0000 
     54 H          30.7751   19.3028   14.0462 H         1 E04400      0.0000 
     55 H          29.8798   19.3106   15.3821 H         1 E04400      0.0000 
     56 H          29.5840   20.3709   14.2097 H         1 E04400      0.0000 
     57 H          32.8934   19.5268   15.5023 H         1 E04400      0.0000 
     58 H          32.9892   20.7189   16.5775 H         1 E04400      0.0000 
     59 H          31.9509   19.5121   16.8053 H         1 E04400      0.0000 
     60 H          30.2081   25.0855   17.4593 H         1 E04400      0.0000 
     61 H          30.6903   26.6007   17.2187 H         1 E04400      0.0000 
     62 H          29.6730   25.9068   16.1844 H         1 E04400      0.0000 
@<TRIPOS>BOND
     1    2    1 2    
     2    3    2 1    
     3    9    2 1    
     4    4    3 1    
     5    5    3 1    
     6    6    3 1    
     7   54    4 1    
     8   55    4 1    
     9   56    4 1    
    10   57    5 1    
    11   58    5 1    
    12   59    5 1    
    13    7    6 1    
    14   30    6 1    
    15   31    6 1    
    16    8    7 1    
    17   32    7 1    
    18   33    7 1    
    19    9    8 1    
    20   10    8 1    
    21   14    8 1    
    22   11   10 1    
    23   12   10 1    
    24   18   10 1    
    25   60   11 1    
    26   61   11 1    
    27   62   11 1    
    28   13   12 1    
    29   15   12 1    
    30   34   12 1    
    31   14   13 1    
    32   35   13 1    
    33   36   13 1    
    34   37   14 1    
    35   38   14 1    
    36   16   15 1    
    37   29   15 1    
    38   39   15 1    
    39   17   16 1    
    40   19   16 1    
    41   40   16 1    
    42   18   17 1    
    43   41   17 1    
    44   42   17 1    
    45   43   18 1    
    46   44   18 1    
    47   20   19 ar   
    48   27   19 ar   
    49   21   20 ar   
    50   45   20 1    
    51   22   21 ar   
    52   46   21 1    
    53   23   22 1    
    54   26   22 ar   
    55   24   23 2    
    56   25   23 am   
    57   47   25 1    
    58   48   25 1    
    59   27   26 ar   
    60   49   26 1    
    61   28   27 1    
    62   29   28 1    
    63   50   28 1    
    64   51   28 1    
    65   52   29 1    
    66   53   29 1    
@<TRIPOS>SUBSTRUCTURE
     1 E04400      1 GROUP   
@<TRIPOS>SET

