#    Name: 1n5l_TYD_2_INTS_M
#    Modification time : Tue Mar 25 12:25:19 2014

@<TRIPOS>MOLECULE
1n5l_TYD_2_INTS_M
   65     0    12     0     0
SMALL
NO_CHARGES


@<TRIPOS>ATOM
      1 N          37.4940   33.7360   56.7425 N.am      2 SEC2        0.0000 
      2 N          38.7290   33.0760   57.1090 N.am     10 SEL2        0.0000 
      3 N          36.2590   34.3960   56.3760 N.am      6 SEP2        0.0000 
      4 Zn         37.3950   30.6470   55.1220 Zn        3 ZIC7        0.0000 
      5 Zn         37.4220   31.2170   55.9200 Zn       11 ZIL7        0.0000 
      6 Zn         37.3680   30.0770   54.3240 Zn        7 ZIP7        0.0000 
      7 N          36.8405   32.8065   56.1480 N.am      2 SEC2        0.0000 
      8 N          37.4220   31.2170   55.9200 N.am     10 SEL2        0.0000 
      9 N          39.7530   29.9315   58.6075 N.am      2 SEC2        0.0000 
     10 N          39.4110   30.6300   57.2440 N.am     10 SEL2        0.0000 
     11 N          40.0950   29.2330   59.9710 N.am      6 SEP2        0.0000 
     12 Zn         38.3790   29.7490   54.6695 Zn        3 ZIC7        0.0000 
     13 Zn         39.3900   29.4210   55.0150 Zn       11 ZIL7        0.0000 
     14 N          40.2490   28.8315   58.5285 N.am      2 SEC2        0.0000 
     15 N          40.4030   28.4300   57.0860 N.am     10 SEL2        0.0000 
     16 CA         38.2460   31.5385   59.6875 C.3       4 GLC5        0.0000 
     17 CA         36.9240   30.0980   58.7840 C.3      12 GLL5        0.0000 
     18 CA         39.5680   32.9790   60.5910 C.3       8 GLP5        0.0000 
     19 N          34.9810   28.7340   56.4095 N.am      2 SEC2        0.0000 
     20 N          33.8760   29.3910   57.0070 N.am     10 SEL2        0.0000 
     21 N          36.0860   28.0770   55.8120 N.am      6 SEP2        0.0000 
     22 O          34.4820   29.9245   55.5910 O.2       1 ALC1        0.0000 
     23 O          33.8760   29.3910   57.0070 O.2       9 ALL1        0.0000 
     24 O          35.0880   30.4580   54.1750 O.2       5 ALP1        0.0000 
     25 O          33.4520   29.5585   55.5800 O.2       1 ALC1        0.0000 
     26 O          33.0280   29.7260   54.1530 O.2       5 ALP1        0.0000 
     27 CA         34.6225   30.7765   61.3675 C.3       4 GLC5        0.0000 
     28 CA         33.7960   31.3240   59.4920 C.3      12 GLL5        0.0000 
     29 CA         35.4490   30.2290   63.2430 C.3       8 GLP5        0.0000 
     30 CA         31.8530   31.9065   58.9350 C.3       4 GLC5        0.0000 
     31 CA         29.9100   32.4890   58.3780 C.3       8 GLP5        0.0000 
     32 O          32.3940   34.1920   63.3745 O.2       1 ALC1        0.0000 
     33 O          33.1380   33.9410   62.1440 O.2       9 ALL1        0.0000 
     34 O          31.6500   34.4430   64.6050 O.2       5 ALP1        0.0000 
     35 N          35.3395   36.5995   63.4740 N.am      2 SEC2        0.0000 
     36 N          34.3410   35.6890   62.9350 N.am     10 SEL2        0.0000 
     37 N          36.3380   37.5100   64.0130 N.am      6 SEP2        0.0000 
     38 N          34.3120   36.5705   63.9845 N.am      2 SEC2        0.0000 
     39 N          34.2830   37.4520   65.0340 N.am      6 SEP2        0.0000 
     40 CA         35.2765   33.4555   63.0080 C.3       4 GLC5        0.0000 
     41 CA         35.3320   34.3510   61.2080 C.3      12 GLL5        0.0000 
     42 CA         35.2210   32.5600   64.8080 C.3       8 GLP5        0.0000 
     43 CA         38.2230   36.2690   61.4665 C.3       4 GLC5        0.0000 
     44 CA         36.6390   35.1330   61.1180 C.3      12 GLL5        0.0000 
     45 CA         39.8070   37.4050   61.8150 C.3       8 GLP5        0.0000 
     46 CA         38.1035   34.0560   60.8545 C.3       4 GLC5        0.0000 
     47 CA         36.5540   33.6245   62.7470 C.3       4 GLC5        0.0000 
     48 CA         36.4690   32.1160   64.3760 C.3       8 GLP5        0.0000 
     49 CA         35.3055   31.7545   61.8150 C.3       4 GLC5        0.0000 
     50 CA         35.1620   33.2800   60.3870 C.3      12 GLL5        0.0000 
     51 CA         35.8555   28.3545   59.6540 C.3       4 GLC5        0.0000 
     52 CA         35.4400   29.8280   58.6420 C.3      12 GLL5        0.0000 
     53 CA         35.5290   26.7460   60.5950 C.3       8 GLP5        0.0000 
     54 CA         32.8215   31.7372   56.8347 C.3       4 GLC5        0.0000 
     55 CA         34.7070   30.4630   57.4390 C.3      12 GLL5        0.0000 
     56 CA         31.3040   32.4160   55.9530 C.3       8 GLP5        0.0000 
     57 CA         37.1530   33.1198   61.3438 C.3       4 GLC5        0.0000 
     58 CA         39.0590   32.4240   61.8900 C.3       8 GLP5        0.0000 
     59 CA         36.1644   34.6725   59.0795 C.3       4 GLC5        0.0000 
     60 CA         36.7550   35.3340   57.3840 C.3       8 GLP5        0.0000 
     61 CA         34.3999   35.5025   60.1405 C.3       4 GLC5        0.0000 
     62 CA         33.2260   36.9940   59.5060 C.3       8 GLP5        0.0000 
     63 CA         33.0772   29.5741   58.7819 C.3       4 GLC5        0.0000 
     64 CA         33.9710   31.6540   57.9940 C.3      12 GLL5        0.0000 
     65 CA         31.6760   28.3310   59.1720 C.3       8 GLP5        0.0000 
@<TRIPOS>BOND
@<TRIPOS>SUBSTRUCTURE
     1 ALC1       22 GROUP        1 X    ALC  0     ROOT ALC X 1
     2 SEC2        1 GROUP        1 X    SEC  0     **** SEC X 2
     3 ZIC7        4 GROUP        1 X    ZIC  0     **** ZIC X 5
     4 GLC5       16 GROUP        1 X    GLC  0     **** GLC X 6
     5 ALP1       24 GROUP        1 Y    ALP  0     ROOT ALP Y 8
     6 SEP2        3 GROUP        1 Y    SEP  0     **** SEP Y 9
     7 ZIP7        6 GROUP        1 Y    ZIP  0     **** ZIP Y 12
     8 GLP5       18 GROUP        1 Y    GLP  0     **** GLP Y 13
     9 ALL1       23 GROUP        1 Z    ALL  0     ROOT ALL Z 15
    10 SEL2        2 GROUP        1 Z    SEL  0     **** SEL Z 16
    11 ZIL7        5 GROUP        1 Z    ZIL  0     **** ZIL Z 19
    12 GLL5       17 GROUP        1 Z    GLL  0     **** GLL Z 20
@<TRIPOS>SET

