#    Name: 1n5l_TYD_2_ligand
#    Modification time : Tue Mar 25 12:25:20 2014

@<TRIPOS>MOLECULE
1n5l_TYD_2_ligand
   38    39     1     0     0
SMALL
NO_CHARGES


@<TRIPOS>ATOM
      1 PA         38.1910   31.6600   57.0680 P.3       1 TYD216      0.0000 
      2 O1A        38.7290   33.0760   57.1090 O.co2     1 TYD216      0.0000 
      3 O2A        37.4220   31.2170   55.9200 O.co2     1 TYD216      0.0000 
      4 O3A        39.4110   30.6300   57.2440 O.3       1 TYD216      0.0000 
      5 PB         40.2220   29.6210   56.2620 P.3       1 TYD216      0.0000 
      6 O1B        41.4540   30.3700   55.9670 O.co2     1 TYD216      0.0000 
      7 O2B        39.3900   29.4210   55.0150 O.co2     1 TYD216      0.0000 
      8 O3B        40.4030   28.4300   57.0860 O.co2     1 TYD216      0.0000 
      9 O5'        37.2940   31.4340   58.3900 O.3       1 TYD216      0.0000 
     10 C5'        36.9240   30.0980   58.7840 C.3       1 TYD216      0.0000 
     11 C4'        35.4400   29.8280   58.6420 C.3       1 TYD216      0.0000 
     12 O4'        34.7360   30.2690   59.7890 O.3       1 TYD216      0.0000 
     13 C3'        34.7070   30.4630   57.4390 C.3       1 TYD216      0.0000 
     14 O3'        33.8760   29.3910   57.0070 O.3       1 TYD216      0.0000 
     15 C2'        33.9710   31.6540   57.9940 C.3       1 TYD216      0.0000 
     16 C1'        33.7960   31.3240   59.4920 C.3       1 TYD216      0.0000 
     17 N1         33.9860   32.5040   60.4070 N.am      1 TYD216      0.0000 
     18 C2         32.9370   32.8220   61.3020 C.2       1 TYD216      0.0000 
     19 O2         31.8950   32.1630   61.3520 O.2       1 TYD216      0.0000 
     20 N3         33.1380   33.9410   62.1440 N.am      1 TYD216      0.0000 
     21 C4         34.2880   34.7440   62.1580 C.2       1 TYD216      0.0000 
     22 O4         34.3410   35.6890   62.9350 O.2       1 TYD216      0.0000 
     23 C5         35.3320   34.3510   61.2080 C.2       1 TYD216      0.0000 
     24 C5M        36.6390   35.1330   61.1180 C.3       1 TYD216      0.0000 
     25 C6         35.1620   33.2800   60.3870 C.2       1 TYD216      0.0000 
     26 H          37.2065   29.9050   59.8395 H         1 TYD216      0.0000 
     27 H          37.4676   29.3431   58.1793 H         1 TYD216      0.0000 
     28 H          35.2917   28.7316   58.5482 H         1 TYD216      0.0000 
     29 H          35.4347   30.7400   56.7454 H         1 TYD216      0.0000 
     30 H          33.0127   31.7438   57.5445 H         1 TYD216      0.0000 
     31 H          34.5586   32.5339   57.8992 H         1 TYD216      0.0000 
     32 H          32.7787   30.9372   59.6110 H         1 TYD216      0.0000 
     33 H          32.3563   34.1878   62.8145 H         1 TYD216      0.0000 
     34 H          35.9130   33.0078   59.7145 H         1 TYD216      0.0000 
     35 H          37.1348   35.1289   61.9864 H         1 TYD216      0.0000 
     36 H          37.2536   34.7510   60.4278 H         1 TYD216      0.0000 
     37 H          36.4831   36.0902   60.8741 H         1 TYD216      0.0000 
     38 H          33.5917   29.6409   56.0813 H         1 TYD216      0.0000 
@<TRIPOS>BOND
     1    2    1 ar   
     2    3    1 ar   
     3    4    1 1    
     4    9    1 1    
     5    5    4 1    
     6    6    5 ar   
     7    7    5 ar   
     8    8    5 ar   
     9   10    9 1    
    10   11   10 1    
    11   26   10 1    
    12   27   10 1    
    13   12   11 1    
    14   13   11 1    
    15   28   11 1    
    16   16   12 1    
    17   14   13 1    
    18   15   13 1    
    19   29   13 1    
    20   38   14 1    
    21   16   15 1    
    22   30   15 1    
    23   31   15 1    
    24   17   16 1    
    25   32   16 1    
    26   18   17 1    
    27   25   17 1    
    28   19   18 2    
    29   20   18 1    
    30   21   20 1    
    31   33   20 1    
    32   22   21 2    
    33   23   21 1    
    34   24   23 1    
    35   25   23 2    
    36   35   24 1    
    37   36   24 1    
    38   37   24 1    
    39   34   25 1    
@<TRIPOS>SUBSTRUCTURE
     1 TYD216      1 GROUP   
@<TRIPOS>SET

