#    Name: 4BCW_1_CAVITY_N1_ALL.mol2
#    Modification time : Tue Mar 11 19:33:49 2014

@<TRIPOS>MOLECULE
4BCW_1_CAVITY_N1_ALL.mol2
   90     0     6     0     0
SMALL
NO_CHARGES


@<TRIPOS>ATOM
      1 CA         -0.8482   10.4284   15.1570 C.3       5 GLY6        0.0000 
      2 CA         -2.0655   11.3047   15.1370 C.3       5 GLY6        0.0000 
      3 CA         -1.5937    9.4321   16.8750 C.3       5 GLY6        0.0000 
      4 CA         -0.4989    8.3519   15.4139 C.3       5 GLY6        0.0000 
      5 CA         -1.7161    9.2282   15.3940 C.3       5 GLY6        0.0000 
      6 CZ         -2.9334   10.1045   15.3740 C.ar      4 PHE5        0.0000 
      7 CZ         -1.8386    9.0243   13.9129 C.ar      4 PHE5        0.0000 
      8 CA         -1.3668    7.1517   15.6509 C.3       5 GLY6        0.0000 
      9 CA         -2.5840    8.0280   15.6310 C.3       5 GLY6        0.0000 
     10 CA         -1.4892    6.9478   14.1699 C.3       5 GLY6        0.0000 
     11 CZ         -2.7065    7.8241   14.1499 C.ar      4 PHE5        0.0000 
     12 DU         -1.6117    6.7439   12.6889 H         6 CUB7        0.0000 
     13 CZ         -2.8289    7.6202   12.6689 C.ar      4 PHE5        0.0000 
     14 DU         -2.9514    7.4163   11.1879 H         6 CUB7        0.0000 
     15 DU          0.5779    4.5836    9.7668 H         6 CUB7        0.0000 
     16 CA         -3.4519    6.8277   15.8680 C.3       5 GLY6        0.0000 
     17 N          -1.1399    4.8713   14.4269 N.2       2 ALA2        0.0000 
     18 CA         -2.3571    5.7476   14.4069 C.3       5 GLY6        0.0000 
     19 CZ         -3.5744    6.6238   14.3869 C.ar      4 PHE5        0.0000 
     20 N          -1.2623    4.6674   12.9459 N.2       2 ALA2        0.0000 
     21 DU         -2.4796    5.5437   12.9259 H         6 CUB7        0.0000 
     22 CZ         -3.6969    6.4199   12.9059 C.ar      4 PHE5        0.0000 
     23 CZ         -4.9141    7.2962   12.8859 C.ar      4 PHE5        0.0000 
     24 N          -0.1675    3.5872   11.4848 N.2       2 ALA2        0.0000 
     25 N          -1.3848    4.4635   11.4649 N.2       2 ALA2        0.0000 
     26 DU         -2.6020    5.3398   11.4449 H         6 CUB7        0.0000 
     27 DU         -3.8193    6.2160   11.4249 H         6 CUB7        0.0000 
     28 CZ         -5.0366    7.0923   11.4049 C.ar      4 PHE5        0.0000 
     29 CZ         -6.2539    7.9686   11.3849 C.ar      4 PHE5        0.0000 
     30 CA         -7.4711    8.8449   11.3649 C.3       5 GLY6        0.0000 
     31 N          -1.5072    4.2596    9.9838 N.2       2 ALA2        0.0000 
     32 DU         -2.7245    5.1359    9.9638 H         6 CUB7        0.0000 
     33 N          -3.9418    6.0122    9.9439 N.2       2 ALA2        0.0000 
     34 DU         -5.1590    6.8884    9.9239 H         6 CUB7        0.0000 
     35 DU         -6.3763    7.7647    9.9039 H         6 CUB7        0.0000 
     36 O          -5.2815    6.6845    8.4428 O.2       2 ALA2        0.0000 
     37 OG         -3.2250    4.5473   14.6439 O.2       1 SER1        0.0000 
     38 CZ         -4.4423    5.4236   14.6239 C.ar      4 PHE5        0.0000 
     39 CZ         -5.6596    6.2999   14.6039 C.ar      4 PHE5        0.0000 
     40 OG         -2.1302    3.4671   13.1829 O.2       1 SER1        0.0000 
     41 OG         -3.3475    4.3434   13.1629 O.2       1 SER1        0.0000 
     42 DU         -4.5648    5.2197   13.1429 H         6 CUB7        0.0000 
     43 CZ         -5.7820    6.0960   13.1229 C.ar      4 PHE5        0.0000 
     44 CZ         -6.9993    6.9723   13.1029 C.ar      4 PHE5        0.0000 
     45 N          -2.2527    3.2633   11.7019 N.2       2 ALA2        0.0000 
     46 DU         -3.4700    4.1395   11.6819 H         6 CUB7        0.0000 
     47 O          -4.6872    5.0158   11.6619 O.2       2 ALA2        0.0000 
     48 O          -5.9045    5.8921   11.6419 O.2       2 ALA2        0.0000 
     49 CA         -7.1218    6.7684   11.6219 C.3       5 GLY6        0.0000 
     50 CA         -8.3390    7.6446   11.6019 C.3       5 GLY6        0.0000 
     51 N          -3.5924    3.9356   10.2008 N.2       2 ALA2        0.0000 
     52 O          -4.8097    4.8119   10.1809 O.2       2 ALA2        0.0000 
     53 O          -6.0269    5.6882   10.1609 O.2       2 ALA2        0.0000 
     54 CA         -8.4615    7.4407   10.1209 C.3       5 GLY6        0.0000 
     55 N          -3.7149    3.7317    8.7198 N.2       2 ALA2        0.0000 
     56 CA         -3.9705    3.5510   16.3619 C.3       5 GLY6        0.0000 
     57 CA         -5.1878    4.4272   16.3420 C.3       5 GLY6        0.0000 
     58 CA         -6.4050    5.3035   16.3220 C.3       5 GLY6        0.0000 
     59 OG         -4.0929    3.3471   14.8809 O.2       1 SER1        0.0000 
     60 DU         -5.3102    4.2234   14.8609 H         6 CUB7        0.0000 
     61 CA         -6.5275    5.0996   14.8409 C.3       5 GLY6        0.0000 
     62 OG         -4.2154    3.1432   13.3999 O.2       1 SER1        0.0000 
     63 O          -5.4327    4.0195   13.3799 O.2       2 ALA2        0.0000 
     64 O          -6.6499    4.8957   13.3599 O.2       2 ALA2        0.0000 
     65 CA         -7.8672    5.7720   13.3399 C.3       5 GLY6        0.0000 
     66 N          -3.1206    2.0630   11.9389 N.2       2 ALA2        0.0000 
     67 O          -4.3379    2.9393   11.9189 O.2       2 ALA2        0.0000 
     68 O          -5.5551    3.8156   11.8989 O.2       2 ALA2        0.0000 
     69 N          -4.4603    2.7354   10.4378 N.2       2 ALA2        0.0000 
     70 CA         -5.9332    3.4309   18.0600 C.3       5 GLY6        0.0000 
     71 O          -3.6211    1.4745   16.6189 O.2       2 ALA2        0.0000 
     72 CA         -4.8384    2.3507   16.5989 C.3       5 GLY6        0.0000 
     73 CA         -6.0557    3.2270   16.5790 C.3       5 GLY6        0.0000 
     74 CA         -7.2729    4.1033   16.5590 C.3       5 GLY6        0.0000 
     75 OG         -3.7436    1.2706   15.1379 O.2       1 SER1        0.0000 
     76 N          -4.9609    2.1468   15.1179 N.2       2 ALA2        0.0000 
     77 CA         -6.1781    3.0231   15.0979 C.3       5 GLY6        0.0000 
     78 OG         -3.8660    1.0667   13.6569 O.2       1 SER1        0.0000 
     79 N          -5.0833    1.9430   13.6369 N.2       2 ALA2        0.0000 
     80 O          -6.3006    2.8192   13.6169 O.2       2 ALA2        0.0000 
     81 CA         -2.7712   -0.0135   12.1958 C.3       5 GLY6        0.0000 
     82 N          -3.9885    0.8628   12.1759 N.2       2 ALA2        0.0000 
     83 O          -5.2058    1.7391   12.1559 O.2       2 ALA2        0.0000 
     84 N          -4.1110    0.6589   10.6948 N.2       2 ALA2        0.0000 
     85 O          -5.3282    1.5352   10.6748 O.2       2 ALA2        0.0000 
     86 O          -5.5838    1.3544   18.3170 O.2       2 ALA2        0.0000 
     87 OD1        -5.7063    1.1505   16.8359 O.3       3 ASP3        0.0000 
     88 CA         -6.9236    2.0268   16.8160 C.3       5 GLY6        0.0000 
     89 CA         -3.6391   -1.2137   12.4328 C.3       5 GLY6        0.0000 
     90 CA         -4.8564   -0.3375   12.4129 C.3       5 GLY6        0.0000 
@<TRIPOS>BOND
@<TRIPOS>SUBSTRUCTURE
     1 SER1       37 GROUP   
     2 ALA2       17 GROUP   
     3 ASP3       87 GROUP   
     4 PHE5        6 GROUP   
     5 GLY6        1 GROUP   
     6 CUB7       12 GROUP   
@<TRIPOS>SET

