#    Name: 4bcw_TU0_1_INTS_M
#    Modification time : Tue Mar 25 07:33:23 2014

@<TRIPOS>MOLECULE
4bcw_TU0_1_INTS_M
   24     0     6     0     0
SMALL
NO_CHARGES


@<TRIPOS>ATOM
      1 CA         -9.2285    7.8355   12.7735 C.3       2 GLC5        0.0000 
      2 CA         -7.4380    7.1050   12.1310 C.3       6 GLL5        0.0000 
      3 CA        -11.0190    8.5660   13.4160 C.3       4 GLP5        0.0000 
      4 CA         -8.4935    6.4830   14.0100 C.3       2 GLC5        0.0000 
      5 CA         -9.5490    5.8610   15.8890 C.3       4 GLP5        0.0000 
      6 CA         -6.7040    8.0735   13.4865 C.3       2 GLC5        0.0000 
      7 CA         -5.9700    9.0420   14.8420 C.3       4 GLP5        0.0000 
      8 CA         -7.8775    5.2345   12.4575 C.3       2 GLC5        0.0000 
      9 CA         -6.0960    5.2280   13.8060 C.3       6 GLL5        0.0000 
     10 CA         -9.6590    5.2410   11.1090 C.3       4 GLP5        0.0000 
     11 CA         -7.8225    5.5445   14.8475 C.3       2 GLC5        0.0000 
     12 CA         -2.7080    5.4860   15.8825 C.3       2 GLC5        0.0000 
     13 CA         -3.6500    5.0750   13.9210 C.3       6 GLL5        0.0000 
     14 CA         -1.7660    5.8970   17.8440 C.3       4 GLP5        0.0000 
     15 CA         -7.9150    3.3550   15.6465 C.3       2 GLC5        0.0000 
     16 CA         -6.0920    3.2360   16.1850 C.3       6 GLL5        0.0000 
     17 CA         -9.7380    3.4740   15.1080 C.3       4 GLP5        0.0000 
     18 N          -3.6645    0.9470   18.1695 N.am      1 SEC2        0.0000 
     19 N          -4.7010    1.4410   17.2720 N.am      5 SEL2        0.0000 
     20 N          -2.6280    0.4530   19.0670 N.am      3 SEP2        0.0000 
     21 CA         -8.1690    5.9600   11.8050 C.3       2 GLC5        0.0000 
     22 CA         -5.9200    6.2530   12.8710 C.3       6 GLL5        0.0000 
     23 CA         -4.8403    4.5088   17.0375 C.3       2 GLC5        0.0000 
     24 CA         -4.1180    5.3770   18.5540 C.3       4 GLP5        0.0000 
@<TRIPOS>BOND
@<TRIPOS>SUBSTRUCTURE
     1 SEC2       18 GROUP        1 X    SEC  0     ROOT SEC X 2
     2 GLC5        1 GROUP        1 X    GLC  0     **** GLC X 6
     3 SEP2       20 GROUP        1 Y    SEP  0     ROOT SEP Y 9
     4 GLP5        3 GROUP        1 Y    GLP  0     **** GLP Y 13
     5 SEL2       19 GROUP        1 Z    SEL  0     ROOT SEL Z 16
     6 GLL5        2 GROUP        1 Z    GLL  0     **** GLL Z 20
@<TRIPOS>SET

