#    Name: 4bcw_TU0_1_ligand
#    Modification time : Tue Mar 25 07:33:23 2014

@<TRIPOS>MOLECULE
4bcw_TU0_1_ligand
   20    20     1     0     0
SMALL
NO_CHARGES


@<TRIPOS>ATOM
      1 BR         -7.4380    7.1050   12.1310 Br        1 TU0302      0.0000 
      2 C4         -5.9200    6.2530   12.8710 C.ar      1 TU0302      0.0000 
      3 C3         -4.6620    6.6880   12.4580 C.ar      1 TU0302      0.0000 
      4 C2         -3.5150    6.0950   12.9780 C.ar      1 TU0302      0.0000 
      5 C5         -6.0960    5.2280   13.8060 C.ar      1 TU0302      0.0000 
      6 C6         -4.9850    4.6090   14.3670 C.ar      1 TU0302      0.0000 
      7 C1         -3.6500    5.0750   13.9210 C.ar      1 TU0302      0.0000 
      8 O13        -2.5330    4.5170   14.4180 O.3       1 TU0302      0.0000 
      9 C7         -5.0810    3.4810   15.3470 C.2       1 TU0302      0.0000 
     10 C8         -6.0920    3.2360   16.1850 C.2       1 TU0302      0.0000 
     11 S9         -6.0840    1.9800   17.1730 S.o2      1 TU0302      0.0000 
     12 O10        -7.0460    0.9840   16.6210 O.co2     1 TU0302      0.0000 
     13 O11        -6.5400    2.4350   18.5050 O.co2     1 TU0302      0.0000 
     14 O12        -4.7010    1.4410   17.2720 O.co2     1 TU0302      0.0000 
     15 H          -4.5820    7.4466   11.7695 H         1 TU0302      0.0000 
     16 H          -2.5899    6.3998   12.6758 H         1 TU0302      0.0000 
     17 H          -7.0417    4.9372   14.0739 H         1 TU0302      0.0000 
     18 H          -4.2236    2.8407   15.3276 H         1 TU0302      0.0000 
     19 H          -6.9407    3.7997   16.2801 H         1 TU0302      0.0000 
     20 H          -1.7872    5.0999   14.0957 H         1 TU0302      0.0000 
@<TRIPOS>BOND
     1    2    1 1    
     2    3    2 ar   
     3    5    2 ar   
     4    4    3 ar   
     5   15    3 1    
     6    7    4 ar   
     7   16    4 1    
     8    6    5 ar   
     9   17    5 1    
    10    7    6 ar   
    11    9    6 1    
    12    8    7 1    
    13   20    8 1    
    14   10    9 2    
    15   18    9 1    
    16   11   10 1    
    17   19   10 1    
    18   12   11 ar   
    19   13   11 ar   
    20   14   11 ar   
@<TRIPOS>SUBSTRUCTURE
     1 TU0302      1 GROUP   
@<TRIPOS>SET

