#    Name: 2zi2_24U_1_INTS_M
#    Modification time : Tue Mar 25 10:46:13 2014

@<TRIPOS>MOLECULE
2zi2_24U_1_INTS_M
   57     0    12     0     0
SMALL
NO_CHARGES


@<TRIPOS>ATOM
      1 CA         16.4090  -15.7790   26.3530 C.3       4 GLC5        0.0000 
      2 CA         17.6290  -15.1390   24.7300 C.3      12 GLL5        0.0000 
      3 CA         15.1890  -16.4190   27.9760 C.3       8 GLP5        0.0000 
      4 N          15.6140  -12.4690   23.9860 N.am      2 SEC2        0.0000 
      5 N          16.5880  -13.0890   23.0250 N.am     10 SEL2        0.0000 
      6 N          14.6400  -11.8490   24.9470 N.am      6 SEP2        0.0000 
      7 CA         17.8555  -11.2990   22.9125 C.3       4 GLC5        0.0000 
      8 CA         18.3870  -11.9570   21.1740 C.3      12 GLL5        0.0000 
      9 CA         17.3240  -10.6410   24.6510 C.3       8 GLP5        0.0000 
     10 CA         19.2590  -13.3480   18.4055 C.3       4 GLC5        0.0000 
     11 CA         19.5020  -12.0240   20.0870 C.3      12 GLL5        0.0000 
     12 CA         19.0160  -14.6720   16.7240 C.3       8 GLP5        0.0000 
     13 O          16.6660   -9.7755   21.3770 O.2       1 ALC1        0.0000 
     14 O          16.2850  -10.8670   20.5190 O.2       9 ALL1        0.0000 
     15 O          17.0470   -8.6840   22.2350 O.2       5 ALP1        0.0000 
     16 CA         10.5640  -13.1165   21.7880 C.3       4 GLC5        0.0000 
     17 CA         12.4200  -12.0950   22.4250 C.3      12 GLL5        0.0000 
     18 CA          8.7080  -14.1380   21.1510 C.3       8 GLP5        0.0000 
     19 OD1         9.1270  -10.7690   24.9530 O.co2     3 ASC3        0.0000 
     20 OD1        10.7820  -10.8610   24.0070 O.co2    11 ASL3        0.0000 
     21 OD1         8.0870   -9.5590   25.6530 O.co2     7 ASP3        0.0000 
     22 OD1         7.7880  -11.6970   25.7340 O.co2     7 ASP3        0.0000 
     23 O           9.1270  -10.7690   24.9530 O.2       1 ALC1        0.0000 
     24 O          10.1670  -11.9790   24.2530 O.2       9 ALL1        0.0000 
     25 O           8.0870   -9.5590   25.6530 O.2       5 ALP1        0.0000 
     26 O           8.9775  -11.8380   24.9935 O.2       1 ALC1        0.0000 
     27 O           7.7880  -11.6970   25.7340 O.2       5 ALP1        0.0000 
     28 O          10.2760  -13.3885   24.1190 O.2       1 ALC1        0.0000 
     29 O          10.3850  -14.7980   23.9850 O.2       5 ALP1        0.0000 
     30 O           9.3030   -9.6520   25.1425 O.2       1 ALC1        0.0000 
     31 O          10.5190   -9.7450   24.6320 O.2       9 ALL1        0.0000 
     32 CA         10.6925   -8.5035   22.2870 C.3       4 GLC5        0.0000 
     33 CA         12.4040   -9.6810   22.3460 C.3      12 GLL5        0.0000 
     34 CA          8.9810   -7.3260   22.2280 C.3       8 GLP5        0.0000 
     35 CA         17.5995  -13.5210   26.2512 C.3       4 GLC5        0.0000 
     36 CA         16.9570  -12.3060   27.5160 C.3       8 GLP5        0.0000 
     37 CA         19.0317  -10.4648   19.4133 C.3       4 GLC5        0.0000 
     38 CA         19.1190   -8.9390   18.1960 C.3       8 GLP5        0.0000 
     39 CA         21.8137  -13.8205   20.4213 C.3       4 GLC5        0.0000 
     40 CA         20.5190  -13.0100   20.7200 C.3      12 GLL5        0.0000 
     41 CA         23.5760  -14.0790   19.8480 C.3       8 GLP5        0.0000 
     42 CA         19.3777  -14.5765   19.3627 C.3       4 GLC5        0.0000 
     43 CA         18.7040  -15.5910   17.7310 C.3       8 GLP5        0.0000 
     44 CA         14.8093  -10.7977   22.7015 C.3       4 GLC5        0.0000 
     45 CA         13.8940  -10.9370   20.9120 C.3      12 GLL5        0.0000 
     46 CA         15.9700  -10.0580   24.2230 C.3       8 GLP5        0.0000 
     47 CA         14.0708  -10.7707   23.4355 C.3       4 GLC5        0.0000 
     48 CA         11.9230  -10.8720   22.8710 C.3      12 GLL5        0.0000 
     49 CA         13.0256  -12.0121   24.0724 C.3       4 GLC5        0.0000 
     50 CA         13.6340  -12.5300   25.7410 C.3       8 GLP5        0.0000 
     51 CA         10.6164  -10.7996   21.1995 C.3       4 GLC5        0.0000 
     52 CA          8.9450  -11.0170   19.9020 C.3       8 GLP5        0.0000 
     53 CA         12.6817   -7.8807   21.6142 C.3       4 GLC5        0.0000 
     54 CA         12.4660   -6.0620   21.3730 C.3       8 GLP5        0.0000 
     55 CA         14.4337   -9.8788   23.0392 C.3       4 GLC5        0.0000 
     56 CA         20.1340  -11.6741   22.1262 C.3       4 GLC5        0.0000 
     57 CA         20.7700  -10.5720   23.4400 C.3       8 GLP5        0.0000 
@<TRIPOS>BOND
@<TRIPOS>SUBSTRUCTURE
     1 ALC1       13 GROUP        1 X    ALC  0     ROOT ALC X 1
     2 SEC2        4 GROUP        1 X    SEC  0     **** SEC X 2
     3 ASC3       19 GROUP        1 X    ASC  0     **** ASC X 3
     4 GLC5        1 GROUP        1 X    GLC  0     **** GLC X 6
     5 ALP1       15 GROUP        1 Y    ALP  0     ROOT ALP Y 8
     6 SEP2        6 GROUP        1 Y    SEP  0     **** SEP Y 9
     7 ASP3       21 GROUP        1 Y    ASP  0     **** ASP Y 10
     8 GLP5        3 GROUP        1 Y    GLP  0     **** GLP Y 13
     9 ALL1       14 GROUP        1 Z    ALL  0     ROOT ALL Z 15
    10 SEL2        5 GROUP        1 Z    SEL  0     **** SEL Z 16
    11 ASL3       20 GROUP        1 Z    ASL  0     **** ASL Z 17
    12 GLL5        2 GROUP        1 Z    GLL  0     **** GLL Z 20
@<TRIPOS>SET

