#    Name: 2zi2_24U_1_ligand
#    Modification time : Tue Mar 25 10:46:13 2014

@<TRIPOS>MOLECULE
2zi2_24U_1_ligand
   48    49     1     0     0
SMALL
NO_CHARGES


@<TRIPOS>ATOM
      1 C17        18.8550  -14.3330   25.2430 C.3       1 24U801      0.0000 
      2 C33        17.6290  -15.1390   24.7300 C.3       1 24U801      0.0000 
      3 C15        17.6220  -15.1620   23.1700 C.3       1 24U801      0.0000 
      4 C14        17.5710  -13.7290   22.6540 C.2       1 24U801      0.0000 
      5 O32        16.5880  -13.0890   23.0250 O.2       1 24U801      0.0000 
      6 N1         18.5500  -13.2430   21.8500 N.am      1 24U801      0.0000 
      7 C1         18.3870  -11.9570   21.1740 C.3       1 24U801      0.0000 
      8 C7         17.0310  -11.9970   20.5010 C.2       1 24U801      0.0000 
      9 O22        16.6600  -13.0480   19.9910 O.2       1 24U801      0.0000 
     10 C2         19.5020  -12.0240   20.0870 C.3       1 24U801      0.0000 
     11 C3         20.5190  -13.0100   20.7200 C.3       1 24U801      0.0000 
     12 C4         19.5840  -14.1140   21.2690 C.3       1 24U801      0.0000 
     13 N23        16.2850  -10.8670   20.5190 N.am      1 24U801      0.0000 
     14 C24        14.9820  -10.9860   19.8310 C.3       1 24U801      0.0000 
     15 C25        13.8940  -10.9370   20.9120 C.ar      1 24U801      0.0000 
     16 C26        13.4030  -12.1380   21.4480 C.ar      1 24U801      0.0000 
     17 C27        12.4200  -12.0950   22.4250 C.ar      1 24U801      0.0000 
     18 C28        11.9230  -10.8720   22.8710 C.ar      1 24U801      0.0000 
     19 C21        10.7820  -10.8610   24.0070 C.cat     1 24U801      0.0000 
     20 N47        10.1670  -11.9790   24.2530 N.pl3     1 24U801      0.0000 
     21 N46        10.5190   -9.7450   24.6320 N.pl3     1 24U801      0.0000 
     22 C29        12.4040   -9.6810   22.3460 C.ar      1 24U801      0.0000 
     23 C30        13.3910   -9.7180   21.3650 C.ar      1 24U801      0.0000 
     24 H          16.7234  -14.6678   25.0781 H         1 24U801      0.0000 
     25 H          17.6916  -16.1518   25.0956 H         1 24U801      0.0000 
     26 H          16.7522  -15.7053   22.8383 H         1 24U801      0.0000 
     27 H          18.5232  -15.6454   22.8295 H         1 24U801      0.0000 
     28 H          18.5208  -11.1643   21.7786 H         1 24U801      0.0000 
     29 H          19.9436  -11.0793   19.9811 H         1 24U801      0.0000 
     30 H          19.1082  -12.4373   19.2079 H         1 24U801      0.0000 
     31 H          21.0165  -12.5405   21.5131 H         1 24U801      0.0000 
     32 H          21.1352  -13.4073   19.9721 H         1 24U801      0.0000 
     33 H          19.2161  -14.6708   20.4656 H         1 24U801      0.0000 
     34 H          20.0964  -14.6515   22.0034 H         1 24U801      0.0000 
     35 H          16.5316  -10.0128   20.9351 H         1 24U801      0.0000 
     36 H          14.9068  -11.9265   19.3086 H         1 24U801      0.0000 
     37 H          14.8292  -10.1633   19.1506 H         1 24U801      0.0000 
     38 H          13.7717  -13.0318   21.1160 H         1 24U801      0.0000 
     39 H          12.0528  -12.9712   22.8256 H         1 24U801      0.0000 
     40 H           9.5066  -11.9620   25.0037 H         1 24U801      0.0000 
     41 H          10.4109  -12.7531   23.6689 H         1 24U801      0.0000 
     42 H           9.8098   -9.7912   25.3355 H         1 24U801      0.0000 
     43 H          11.0510   -8.9467   24.3497 H         1 24U801      0.0000 
     44 H          12.0382   -8.7834   22.6753 H         1 24U801      0.0000 
     45 H          13.7536   -8.8375   20.9696 H         1 24U801      0.0000 
     46 H          19.7180  -14.7330   24.9343 H         1 24U801      0.0000 
     47 H          18.8386  -13.3866   24.9204 H         1 24U801      0.0000 
     48 H          18.8872  -14.3017   26.2420 H         1 24U801      0.0000 
@<TRIPOS>BOND
     1    2    1 1    
     2   46    1 1    
     3   47    1 1    
     4   48    1 1    
     5    3    2 1    
     6   24    2 1    
     7   25    2 1    
     8    4    3 1    
     9   26    3 1    
    10   27    3 1    
    11    5    4 2    
    12    6    4 am   
    13    7    6 1    
    14   12    6 1    
    15    8    7 1    
    16   10    7 1    
    17   28    7 1    
    18    9    8 2    
    19   13    8 am   
    20   11   10 1    
    21   29   10 1    
    22   30   10 1    
    23   12   11 1    
    24   31   11 1    
    25   32   11 1    
    26   33   12 1    
    27   34   12 1    
    28   14   13 1    
    29   35   13 1    
    30   15   14 1    
    31   36   14 1    
    32   37   14 1    
    33   16   15 ar   
    34   23   15 ar   
    35   17   16 ar   
    36   38   16 1    
    37   18   17 ar   
    38   39   17 1    
    39   19   18 1    
    40   22   18 ar   
    41   20   19 ar   
    42   21   19 ar   
    43   40   20 1    
    44   41   20 1    
    45   42   21 1    
    46   43   21 1    
    47   23   22 ar   
    48   44   22 1    
    49   45   23 1    
@<TRIPOS>SUBSTRUCTURE
     1 24U801      1 GROUP   
@<TRIPOS>SET

