#    Name: 2zjw_REF_1_INTS_M
#    Modification time : Tue Mar 25 10:47:45 2014

@<TRIPOS>MOLECULE
2zjw_REF_1_INTS_M
   32     0     6     0     0
SMALL
NO_CHARGES


@<TRIPOS>ATOM
      1 CA         34.0705   -3.5520   11.8040 C.3       2 GLC5        0.0000 
      2 CA         36.0200   -2.9650   12.0640 C.3       6 GLL5        0.0000 
      3 CA         32.1210   -4.1390   11.5440 C.3       4 GLP5        0.0000 
      4 CA         37.7705   -0.4365   11.2995 C.3       2 GLC5        0.0000 
      5 CA         36.6900   -1.6180   10.1560 C.3       6 GLL5        0.0000 
      6 CA         38.8510    0.7450   12.4430 C.3       4 GLP5        0.0000 
      7 CA         34.8785   -0.7115   10.2975 C.3       2 GLC5        0.0000 
      8 CA         33.0670    0.1950   10.4390 C.3       4 GLP5        0.0000 
      9 N          36.7615    0.3105   12.5570 N.am      1 SEC2        0.0000 
     10 N          35.9810   -0.5860   12.1650 N.am      5 SEL2        0.0000 
     11 N          37.5420    1.2070   12.9490 N.am      3 SEP2        0.0000 
     12 CA         38.7995   -3.7505    9.4945 C.3       2 GLC5        0.0000 
     13 CA         36.7620   -3.9980   10.0510 C.3       6 GLL5        0.0000 
     14 CA         40.7000   -2.9240    9.2770 C.3       4 GLP5        0.0000 
     15 CA         35.0465   -5.1062    9.4475 C.3       2 GLC5        0.0000 
     16 CA         37.0360   -5.1560    9.3730 C.3       6 GLL5        0.0000 
     17 CA         33.1480   -4.4390    9.2150 C.3       4 GLP5        0.0000 
     18 CA         39.1232   -8.5035    8.1295 C.3       2 GLC5        0.0000 
     19 CA         37.6380   -7.4090    7.9360 C.3       6 GLL5        0.0000 
     20 CA         40.8410   -9.5440    7.6740 C.3       4 GLP5        0.0000 
     21 CA         39.3746   -5.6709    7.7767 C.3       2 GLC5        0.0000 
     22 CA         41.1060   -4.8380    7.7310 C.3       4 GLP5        0.0000 
     23 CA         38.7229   -7.3953   10.1741 C.3       2 GLC5        0.0000 
     24 CA         40.1200   -7.6090   11.5750 C.3       4 GLP5        0.0000 
     25 CA         38.7618   -2.5577    9.5347 C.3       2 GLC5        0.0000 
     26 CA         36.9570   -2.7650    9.4290 C.3       6 GLL5        0.0000 
     27 CA         34.9459   -3.9256    9.6394 C.3       2 GLC5        0.0000 
     28 CA         37.6665   -1.4662   12.4047 C.3       2 GLC5        0.0000 
     29 CA         39.2100   -0.5870   13.0460 C.3       4 GLP5        0.0000 
     30 CA         34.4980   -1.2167   11.8487 C.3       2 GLC5        0.0000 
     31 CA         36.2260   -1.7260   11.4630 C.3       6 GLL5        0.0000 
     32 CA         32.8730   -0.0880   11.9340 C.3       4 GLP5        0.0000 
@<TRIPOS>BOND
@<TRIPOS>SUBSTRUCTURE
     1 SEC2        9 GROUP        1 X    SEC  0     ROOT SEC X 2
     2 GLC5        1 GROUP        1 X    GLC  0     **** GLC X 6
     3 SEP2       11 GROUP        1 Y    SEP  0     ROOT SEP Y 9
     4 GLP5        3 GROUP        1 Y    GLP  0     **** GLP Y 13
     5 SEL2       10 GROUP        1 Z    SEL  0     ROOT SEL Z 16
     6 GLL5        2 GROUP        1 Z    GLL  0     **** GLL Z 20
@<TRIPOS>SET

