#    Name: 2zjw_REF_1_ligand
#    Modification time : Tue Mar 25 10:47:45 2014

@<TRIPOS>MOLECULE
2zjw_REF_1_ligand
   28    31     1     0     0
SMALL
NO_CHARGES


@<TRIPOS>ATOM
      1 C1         36.2990   -4.1210   11.3460 C.ar      1 REF336      0.0000 
      2 C2         36.7620   -3.9980   10.0510 C.ar      1 REF336      0.0000 
      3 C3         37.0360   -5.1560    9.3730 C.ar      1 REF336      0.0000 
      4 C4         36.8540   -6.3910    9.9870 C.ar      1 REF336      0.0000 
      5 O5         36.4080   -6.4780   11.2130 O.3       1 REF336      0.0000 
      6 C6         36.1270   -5.3960   11.8930 C.2       1 REF336      0.0000 
      7 C7         37.4950   -5.0300    8.0770 C.ar      1 REF336      0.0000 
      8 C8         37.8020   -6.1670    7.3410 C.ar      1 REF336      0.0000 
      9 C9         37.6380   -7.4090    7.9360 C.ar      1 REF336      0.0000 
     10 C10        37.1730   -7.5170    9.2340 C.ar      1 REF336      0.0000 
     11 C11        36.9570   -2.7650    9.4290 C.ar      1 REF336      0.0000 
     12 O12        37.3840   -2.6760    8.2030 O.3       1 REF336      0.0000 
     13 C13        37.6500   -3.7590    7.5280 C.2       1 REF336      0.0000 
     14 C14        36.0200   -2.9650   12.0640 C.ar      1 REF336      0.0000 
     15 C15        36.2260   -1.7260   11.4630 C.ar      1 REF336      0.0000 
     16 C16        36.6900   -1.6180   10.1560 C.ar      1 REF336      0.0000 
     17 O19        37.0570   -8.7500    9.7080 O.3       1 REF336      0.0000 
     18 O20        37.9390   -8.5720    7.2540 O.3       1 REF336      0.0000 
     19 O21        38.0940   -3.6720    6.2710 O.2       1 REF336      0.0000 
     20 O22        36.8970   -0.3670    9.5960 O.3       1 REF336      0.0000 
     21 O23        35.9810   -0.5860   12.1650 O.3       1 REF336      0.0000 
     22 O24        35.6540   -5.5010   13.1600 O.2       1 REF336      0.0000 
     23 H          38.1412   -6.0893    6.3823 H         1 REF336      0.0000 
     24 H          35.6676   -3.0217   13.0222 H         1 REF336      0.0000 
     25 H          37.4862   -8.7216   10.6108 H         1 REF336      0.0000 
     26 H          37.6806   -9.3110    7.8762 H         1 REF336      0.0000 
     27 H          37.3390   -0.5469    8.7173 H         1 REF336      0.0000 
     28 H          34.9863   -0.4840   12.1538 H         1 REF336      0.0000 
@<TRIPOS>BOND
     1    2    1 ar   
     2    6    1 1    
     3   14    1 ar   
     4    3    2 1    
     5   11    2 ar   
     6    4    3 ar   
     7    7    3 ar   
     8    5    4 1    
     9   10    4 ar   
    10    6    5 1    
    11   22    6 2    
    12    8    7 ar   
    13   13    7 1    
    14    9    8 ar   
    15   23    8 1    
    16   10    9 ar   
    17   18    9 1    
    18   17   10 1    
    19   12   11 1    
    20   16   11 ar   
    21   13   12 1    
    22   19   13 2    
    23   15   14 ar   
    24   24   14 1    
    25   16   15 ar   
    26   21   15 1    
    27   20   16 1    
    28   25   17 1    
    29   26   18 1    
    30   27   20 1    
    31   28   21 1    
@<TRIPOS>SUBSTRUCTURE
     1 REF336      1 GROUP   
@<TRIPOS>SET

