#    Name: 2xbj_XBJ_1_INTS_M
#    Modification time : Tue Mar 25 05:47:58 2014

@<TRIPOS>MOLECULE
2xbj_XBJ_1_INTS_M
   72     0     6     0     0
SMALL
NO_CHARGES


@<TRIPOS>ATOM
      1 CA         -8.6980   49.9810    5.4095 C.3       2 GLC5        0.0000 
      2 CA         -7.8380   48.6950    6.8440 C.3       6 GLL5        0.0000 
      3 CA         -9.5580   51.2670    3.9750 C.3       4 GLP5        0.0000 
      4 CA         -6.6305   46.9705    7.3915 C.3       2 GLC5        0.0000 
      5 CA         -5.4230   45.2460    7.9390 C.3       4 GLP5        0.0000 
      6 CA         -8.5095   49.3075    4.2070 C.3       2 GLC5        0.0000 
      7 CA         -7.4610   47.3480    4.4390 C.3       6 GLL5        0.0000 
      8 CA         -5.6820   43.9505    3.5605 C.3       2 GLC5        0.0000 
      9 CA         -6.7070   45.6410    2.9860 C.3       6 GLL5        0.0000 
     10 CA         -4.6570   42.2600    4.1350 C.3       4 GLP5        0.0000 
     11 CA         -6.8380   45.6785    6.3165 C.3       2 GLC5        0.0000 
     12 CA         -8.2530   46.1110    4.6940 C.3       6 GLL5        0.0000 
     13 CA         -8.8640   45.3400    6.4190 C.3       2 GLC5        0.0000 
     14 CA         -9.4750   44.5690    8.1440 C.3       4 GLP5        0.0000 
     15 CA         -4.3475   49.3180    0.2785 C.3       2 GLC5        0.0000 
     16 CA         -5.1380   47.7370    1.4370 C.3       6 GLL5        0.0000 
     17 CA         -3.5570   50.8990   -0.8800 C.3       4 GLP5        0.0000 
     18 CA         -8.5440   49.7885    2.8705 C.3       2 GLC5        0.0000 
     19 CA         -7.5300   48.3100    1.7660 C.3       6 GLL5        0.0000 
     20 CA         -9.4975   48.7665    0.7880 C.3       2 GLC5        0.0000 
     21 CA        -11.4650   49.2230   -0.1900 C.3       4 GLP5        0.0000 
     22 CA        -12.3325   48.3200   10.3160 C.3       2 GLC5        0.0000 
     23 CA        -12.4270   49.2830    8.6090 C.3       6 GLL5        0.0000 
     24 CA        -12.2380   47.3570   12.0230 C.3       4 GLP5        0.0000 
     25 CA        -15.0765   47.7450    8.6215 C.3       2 GLC5        0.0000 
     26 CA        -13.8760   49.0610    8.4030 C.3       6 GLL5        0.0000 
     27 CA        -16.2770   46.4290    8.8400 C.3       4 GLP5        0.0000 
     28 CA        -15.6860   49.8195    7.4600 C.3       2 GLC5        0.0000 
     29 CA        -17.4960   50.5780    6.5170 C.3       4 GLP5        0.0000 
     30 CA        -14.2705   50.2775   10.2295 C.3       2 GLC5        0.0000 
     31 CA        -14.6650   51.4940   12.0560 C.3       4 GLP5        0.0000 
     32 CA        -13.6785   47.8890    9.9140 C.3       2 GLC5        0.0000 
     33 CA        -13.4810   46.7170   11.4250 C.3       4 GLP5        0.0000 
     34 CA        -10.7840   49.9095    5.0745 C.3       2 GLC5        0.0000 
     35 CA        -12.0100   48.5520    6.1740 C.3       6 GLL5        0.0000 
     36 N         -12.5235   49.6810   11.0660 N.am      1 SEC2        0.0000 
     37 N         -11.9090   49.7200    9.8140 N.am      5 SEL2        0.0000 
     38 N         -13.1380   49.6420   12.3180 N.am      3 SEP2        0.0000 
     39 CA         -8.3395   50.3150   14.2770 C.3       2 GLC5        0.0000 
     40 CA         -6.5600   50.6360   13.0110 C.3       6 GLL5        0.0000 
     41 CA        -10.1190   49.9940   15.5430 C.3       4 GLP5        0.0000 
     42 CA         -6.6795   48.7325   12.6460 C.3       2 GLC5        0.0000 
     43 CA         -6.7990   46.8290   12.2810 C.3       4 GLP5        0.0000 
     44 CA         -5.9262   47.2135    8.0700 C.3       2 GLC5        0.0000 
     45 CA         -5.6570   49.1970    8.3030 C.3       6 GLL5        0.0000 
     46 CA         -6.1910   51.7595    9.4480 C.3       2 GLC5        0.0000 
     47 CA         -5.0930   49.7040    9.6490 C.3       6 GLL5        0.0000 
     48 CA         -6.8160   53.5850    8.7020 C.3       4 GLP5        0.0000 
     49 CA         -6.1825   48.3815   11.2375 C.3       2 GLC5        0.0000 
     50 CA         -6.0390   50.1640   10.7390 C.3       6 GLL5        0.0000 
     51 CA         -7.3070   48.3495   11.0645 C.3       2 GLC5        0.0000 
     52 CA         -7.5380   50.1220   10.5200 C.3       6 GLL5        0.0000 
     53 CA        -10.4372   50.8400    6.8608 C.3       2 GLC5        0.0000 
     54 CA        -10.0780   49.1710    7.7670 C.3       6 GLL5        0.0000 
     55 CA        -10.0670   52.5680    6.0680 C.3       4 GLP5        0.0000 
     56 CA         -7.1623   51.5512    8.8377 C.3       2 GLC5        0.0000 
     57 CA         -7.2020   49.1650    8.0990 C.3       6 GLL5        0.0000 
     58 CA        -12.3227   47.5830    8.3950 C.3       2 GLC5        0.0000 
     59 CA        -11.4940   45.9940    8.2840 C.3       4 GLP5        0.0000 
     60 CA        -13.2145   50.9962    8.3119 C.3       2 GLC5        0.0000 
     61 CA        -11.5370   49.0530    7.5400 C.3       6 GLL5        0.0000 
     62 CA        -13.5000   52.8780    8.3850 C.3       4 GLP5        0.0000 
     63 CA        -12.6715   47.2360    7.4168 C.3       2 GLC5        0.0000 
     64 CA        -14.3410   48.6080    7.1160 C.3       6 GLL5        0.0000 
     65 CA        -11.4514   47.4130    7.5989 C.3       2 GLC5        0.0000 
     66 CA        -15.3130   47.2762    6.5484 C.3       2 GLC5        0.0000 
     67 CA        -16.8130   46.3470    7.4210 C.3       4 GLP5        0.0000 
     68 CA        -14.9455   49.4183    5.0784 C.3       2 GLC5        0.0000 
     69 CA        -16.0780   50.6310    4.4810 C.3       4 GLP5        0.0000 
     70 CA        -13.7705   46.2967    6.0229 C.3       2 GLC5        0.0000 
     71 CA        -13.7770   47.9330    4.8020 C.3       6 GLL5        0.0000 
     72 CA        -13.7280   44.3880    6.3700 C.3       4 GLP5        0.0000 
@<TRIPOS>BOND
@<TRIPOS>SUBSTRUCTURE
     1 SEC2       36 GROUP        1 X    SEC  0     ROOT SEC X 2
     2 GLC5        1 GROUP        1 X    GLC  0     **** GLC X 6
     3 SEP2       38 GROUP        1 Y    SEP  0     ROOT SEP Y 9
     4 GLP5        3 GROUP        1 Y    GLP  0     **** GLP Y 13
     5 SEL2       37 GROUP        1 Z    SEL  0     ROOT SEL Z 16
     6 GLL5        2 GROUP        1 Z    GLL  0     **** GLL Z 20
@<TRIPOS>SET

