#    Name: 2xbj_XBJ_1_ligand
#    Modification time : Tue Mar 25 05:47:58 2014

@<TRIPOS>MOLECULE
2xbj_XBJ_1_ligand
   58    61     1     0     0
SMALL
NO_CHARGES


@<TRIPOS>ATOM
      1 C01        -5.6570   49.1970    8.3030 C.ar      1 XBJ1513     0.0000 
      2 C02        -5.0930   49.7040    9.6490 C.ar      1 XBJ1513     0.0000 
      3 C03        -6.0390   50.1640   10.7390 C.ar      1 XBJ1513     0.0000 
      4 C04        -7.5380   50.1220   10.5200 C.ar      1 XBJ1513     0.0000 
      5 C05        -8.0920   49.6180    9.1760 C.ar      1 XBJ1513     0.0000 
      6 N06        -9.5140   49.5970    9.0270 N.ar      1 XBJ1513     0.0000 
      7 C07       -10.0780   49.1710    7.7670 C.ar      1 XBJ1513     0.0000 
      8 N08        -9.2180   48.6660    6.7030 N.ar      1 XBJ1513     0.0000 
      9 C09        -7.8380   48.6950    6.8440 C.ar      1 XBJ1513     0.0000 
     10 C10        -7.2020   49.1650    8.0990 C.ar      1 XBJ1513     0.0000 
     11 N11        -7.2250   48.1390    5.6580 N.pl3     1 XBJ1513     0.0000 
     12 C12        -7.4610   47.3480    4.4390 C.3       1 XBJ1513     0.0000 
     13 C13        -6.3830   47.0240    3.4740 C.3       1 XBJ1513     0.0000 
     14 C14        -6.7070   45.6410    2.9860 C.3       1 XBJ1513     0.0000 
     15 N15        -8.1030   45.3460    3.4240 N.4       1 XBJ1513     0.0000 
     16 C16        -8.2530   46.1110    4.6940 C.3       1 XBJ1513     0.0000 
     17 C17        -6.2000   48.1170    2.4490 C.3       1 XBJ1513     0.0000 
     18 C18        -5.1380   47.7370    1.4370 C.3       1 XBJ1513     0.0000 
     19 C19        -7.5300   48.3100    1.7660 C.3       1 XBJ1513     0.0000 
     20 O20        -5.8590   49.2890    3.0840 O.3       1 XBJ1513     0.0000 
     21 C21       -11.5370   49.0530    7.5400 C.ar      1 XBJ1513     0.0000 
     22 C22       -12.4270   49.2830    8.6090 C.ar      1 XBJ1513     0.0000 
     23 C23       -13.8760   49.0610    8.4030 C.ar      1 XBJ1513     0.0000 
     24 C24       -14.3410   48.6080    7.1160 C.ar      1 XBJ1513     0.0000 
     25 C25       -13.3570   48.3480    5.9830 C.ar      1 XBJ1513     0.0000 
     26 C26       -12.0100   48.5520    6.1740 C.ar      1 XBJ1513     0.0000 
     27 F27       -13.7770   47.9330    4.8020 F         1 XBJ1513     0.0000 
     28 O28       -11.9090   49.7200    9.8140 O.3       1 XBJ1513     0.0000 
     29 O29        -5.6130   50.6330   11.9800 O.3       1 XBJ1513     0.0000 
     30 C30        -6.5600   50.6360   13.0110 C.3       1 XBJ1513     0.0000 
     31 O31        -3.7240   49.7410    9.8470 O.3       1 XBJ1513     0.0000 
     32 C32        -2.8890   49.3220    8.8110 C.3       1 XBJ1513     0.0000 
     33 H          -5.0677   48.9037    7.5965 H         1 XBJ1513     0.0000 
     34 H          -8.1566   50.4107   11.2210 H         1 XBJ1513     0.0000 
     35 H          -6.0647   48.4375    5.6652 H         1 XBJ1513     0.0000 
     36 H          -8.2286   47.9895    3.7983 H         1 XBJ1513     0.0000 
     37 H          -5.4484   46.9439    4.0774 H         1 XBJ1513     0.0000 
     38 H          -6.0232   44.9310    3.4245 H         1 XBJ1513     0.0000 
     39 H          -6.6422   45.6106    1.9095 H         1 XBJ1513     0.0000 
     40 H          -9.2775   46.3566    4.8580 H         1 XBJ1513     0.0000 
     41 H          -7.8311   45.5641    5.5062 H         1 XBJ1513     0.0000 
     42 H         -14.5094   49.2279    9.1570 H         1 XBJ1513     0.0000 
     43 H         -15.3142   48.4522    6.9299 H         1 XBJ1513     0.0000 
     44 H         -11.3044   48.3981    5.4851 H         1 XBJ1513     0.0000 
     45 H          -4.2510   47.5793    1.8709 H         1 XBJ1513     0.0000 
     46 H          -5.3765   46.8998    0.9449 H         1 XBJ1513     0.0000 
     47 H          -5.0057   48.4525    0.7511 H         1 XBJ1513     0.0000 
     48 H          -7.4875   49.0214    1.0645 H         1 XBJ1513     0.0000 
     49 H          -7.8414   47.4730    1.3161 H         1 XBJ1513     0.0000 
     50 H          -8.2441   48.5783    2.4126 H         1 XBJ1513     0.0000 
     51 H          -6.1760   50.9822   13.8670 H         1 XBJ1513     0.0000 
     52 H          -7.3481   51.2105   12.7898 H         1 XBJ1513     0.0000 
     53 H          -6.9096   49.7177   13.1968 H         1 XBJ1513     0.0000 
     54 H          -1.9232   49.3936    9.0603 H         1 XBJ1513     0.0000 
     55 H          -3.0572   48.3685    8.5609 H         1 XBJ1513     0.0000 
     56 H          -3.0196   49.8693    7.9843 H         1 XBJ1513     0.0000 
     57 H          -4.8932   49.1834    3.3207 H         1 XBJ1513     0.0000 
     58 H         -11.0499   50.1735    9.5770 H         1 XBJ1513     0.0000 
@<TRIPOS>BOND
     1    2    1 ar   
     2   10    1 ar   
     3   33    1 1    
     4    3    2 ar   
     5   31    2 1    
     6    4    3 ar   
     7   29    3 1    
     8    5    4 ar   
     9   34    4 1    
    10    6    5 ar   
    11   10    5 ar   
    12    7    6 ar   
    13    8    7 ar   
    14   21    7 1    
    15    9    8 ar   
    16   10    9 ar   
    17   11    9 1    
    18   12   11 1    
    19   35   11 1    
    20   13   12 1    
    21   16   12 1    
    22   36   12 1    
    23   14   13 1    
    24   17   13 1    
    25   37   13 1    
    26   15   14 1    
    27   38   14 1    
    28   39   14 1    
    29   16   15 1    
    30   40   16 1    
    31   41   16 1    
    32   18   17 1    
    33   19   17 1    
    34   20   17 1    
    35   45   18 1    
    36   46   18 1    
    37   47   18 1    
    38   48   19 1    
    39   49   19 1    
    40   50   19 1    
    41   57   20 1    
    42   22   21 ar   
    43   26   21 ar   
    44   23   22 ar   
    45   28   22 1    
    46   24   23 ar   
    47   42   23 1    
    48   25   24 ar   
    49   43   24 1    
    50   26   25 ar   
    51   27   25 1    
    52   44   26 1    
    53   58   28 1    
    54   30   29 1    
    55   51   30 1    
    56   52   30 1    
    57   53   30 1    
    58   32   31 1    
    59   54   32 1    
    60   55   32 1    
    61   56   32 1    
@<TRIPOS>SUBSTRUCTURE
     1 XBJ1513     1 GROUP   
@<TRIPOS>SET

