#    Name: 1ihy_APR_1_INTS_M
#    Modification time : Tue Mar 25 07:03:13 2014

@<TRIPOS>MOLECULE
1ihy_APR_1_INTS_M
   57     0     9     0     0
SMALL
NO_CHARGES


@<TRIPOS>ATOM
      1 CA         51.4335   17.0780   43.8475 C.3       3 GLC5        0.0000 
      2 CA         51.3360   15.9790   45.7620 C.3       9 GLL5        0.0000 
      3 CA         51.5310   18.1770   41.9330 C.3       6 GLP5        0.0000 
      4 CA         52.2905   16.0675   44.4290 C.3       3 GLC5        0.0000 
      5 CA         53.2450   16.1560   43.0960 C.3       6 GLP5        0.0000 
      6 CA         49.7670   15.8135   46.7670 C.3       3 GLC5        0.0000 
      7 CA         48.1980   15.6480   47.7720 C.3       6 GLP5        0.0000 
      8 CA         51.8570   15.1095   44.0545 C.3       3 GLC5        0.0000 
      9 CA         50.4690   14.0630   45.0130 C.3       9 GLL5        0.0000 
     10 O          54.3025   14.0345   47.8285 O.2       1 ALC1        0.0000 
     11 O          53.0040   13.3320   47.5240 O.2       7 ALL1        0.0000 
     12 O          55.6010   14.7370   48.1330 O.2       4 ALP1        0.0000 
     13 CA         47.8735   15.5330   43.7600 C.3       3 GLC5        0.0000 
     14 CA         48.6960   13.6340   43.2760 C.3       9 GLL5        0.0000 
     15 CA         47.0510   17.4320   44.2440 C.3       6 GLP5        0.0000 
     16 CA         50.8155   12.4985   41.9020 C.3       3 GLC5        0.0000 
     17 CA         48.7470   12.8060   42.0060 C.3       9 GLL5        0.0000 
     18 CA         52.8840   12.1910   41.7980 C.3       6 GLP5        0.0000 
     19 O          50.2715   14.5335   40.7800 O.2       1 ALC1        0.0000 
     20 O          49.7280   13.3210   41.0920 O.2       7 ALL1        0.0000 
     21 O          50.8150   15.7460   40.4680 O.2       4 ALP1        0.0000 
     22 O          49.2495   14.7630   41.0935 O.2       1 ALC1        0.0000 
     23 O          48.7710   16.2050   41.0950 O.2       4 ALP1        0.0000 
     24 O          47.9210   14.9985   40.7415 O.2       1 ALC1        0.0000 
     25 O          47.0710   13.7920   40.3880 O.2       7 ALL1        0.0000 
     26 N          40.4985   14.6390   43.0965 N.am      2 SEC2        0.0000 
     27 N          41.7460   13.7870   43.5970 N.am      8 SEL2        0.0000 
     28 N          39.2510   15.4910   42.5960 N.am      5 SEP2        0.0000 
     29 N          37.5495    7.9465   41.0125 N.am      2 SEC2        0.0000 
     30 N          37.3610    9.6090   41.0550 N.am      8 SEL2        0.0000 
     31 N          37.7380    6.2840   40.9700 N.am      5 SEP2        0.0000 
     32 CA         37.7810   11.0360   41.0480 C.3       3 GLC5        0.0000 
     33 CA         36.9010    9.9800   42.4090 C.3       9 GLL5        0.0000 
     34 CA         38.6610   12.0920   39.6870 C.3       6 GLP5        0.0000 
     35 N          36.9630    7.0780   42.2375 N.am      2 SEC2        0.0000 
     36 N          36.1880    7.8720   43.5050 N.am      8 SEL2        0.0000 
     37 CA         36.4550    7.0850   43.2470 C.3       3 GLC5        0.0000 
     38 CA         37.1920    8.8990   43.4350 C.3       9 GLL5        0.0000 
     39 CA         35.7180    5.2710   43.0590 C.3       6 GLP5        0.0000 
     40 CA         52.9913   14.3197   44.7085 C.3       3 GLC5        0.0000 
     41 CA         51.2630   13.2610   45.8330 C.3       9 GLL5        0.0000 
     42 CA         54.2620   15.0330   43.1560 C.3       6 GLP5        0.0000 
     43 CA         53.5802   12.6567   46.1915 C.3       3 GLC5        0.0000 
     44 CA         52.1780   13.9520   46.6890 C.3       9 GLL5        0.0000 
     45 CA         55.4400   11.7070   46.1220 C.3       6 GLP5        0.0000 
     46 CA         49.8600   14.7275   46.9140 C.3       3 GLC5        0.0000 
     47 CA         44.6142   13.5702   41.8948 C.3       3 GLC5        0.0000 
     48 CA         46.4780   13.1110   42.6900 C.3       9 GLL5        0.0000 
     49 CA         43.1550   14.6240   40.8470 C.3       6 GLP5        0.0000 
     50 CA         38.5748   12.0945   42.5332 C.3       3 GLC5        0.0000 
     51 CA         39.3580   10.9990   44.4750 C.3       9 GLL5        0.0000 
     52 CA         38.5200   13.2130   40.6850 C.3       6 GLP5        0.0000 
     53 CA         38.3208   12.9925   44.8508 C.3       3 GLC5        0.0000 
     54 CA         37.9010   10.9530   44.2880 C.3       9 GLL5        0.0000 
     55 CA         38.0120   15.0090   45.3200 C.3       6 GLP5        0.0000 
     56 CA         38.4093    8.4892   41.6995 C.3       3 GLC5        0.0000 
     57 CA         39.7720    7.5390   40.4770 C.3       6 GLP5        0.0000 
@<TRIPOS>BOND
@<TRIPOS>SUBSTRUCTURE
     1 ALC1       10 GROUP        1 X    ALC  0     ROOT ALC X 1
     2 SEC2       26 GROUP        1 X    SEC  0     **** SEC X 2
     3 GLC5        1 GROUP        1 X    GLC  0     **** GLC X 6
     4 ALP1       12 GROUP        1 Y    ALP  0     ROOT ALP Y 8
     5 SEP2       28 GROUP        1 Y    SEP  0     **** SEP Y 9
     6 GLP5        3 GROUP        1 Y    GLP  0     **** GLP Y 13
     7 ALL1       11 GROUP        1 Z    ALL  0     ROOT ALL Z 15
     8 SEL2       27 GROUP        1 Z    SEL  0     **** SEL Z 16
     9 GLL5        2 GROUP        1 Z    GLL  0     **** GLL Z 20
@<TRIPOS>SET

