#    Name: 1ihy_APR_1_ligand
#    Modification time : Tue Mar 25 07:03:13 2014

@<TRIPOS>MOLECULE
1ihy_APR_1_ligand
   57    60     1     0     0
SMALL
NO_CHARGES


@<TRIPOS>ATOM
      1 N1         52.1960   15.3350   46.6300 N.ar      1 APR335      0.0000 
      2 C2         51.3360   15.9790   45.7620 C.ar      1 APR335      0.0000 
      3 N3         50.4660   15.4320   44.9390 N.ar      1 APR335      0.0000 
      4 C4         50.4690   14.0630   45.0130 C.ar      1 APR335      0.0000 
      5 C5         51.2630   13.2610   45.8330 C.ar      1 APR335      0.0000 
      6 C6         52.1780   13.9520   46.6890 C.ar      1 APR335      0.0000 
      7 N6         53.0040   13.3320   47.5240 N.pl3     1 APR335      0.0000 
      8 N7         50.9810   11.9180   45.6340 N.2       1 APR335      0.0000 
      9 C8         50.0230   11.9210   44.6930 C.2       1 APR335      0.0000 
     10 N9         49.6800   13.1850   44.2870 N.pl3     1 APR335      0.0000 
     11 C1'        48.6960   13.6340   43.2760 C.3       1 APR335      0.0000 
     12 C2'        48.7470   12.8060   42.0060 C.3       1 APR335      0.0000 
     13 O2'        49.7280   13.3210   41.0920 O.3       1 APR335      0.0000 
     14 C3'        47.3280   12.8520   41.4500 C.3       1 APR335      0.0000 
     15 O3'        47.0710   13.7920   40.3880 O.3       1 APR335      0.0000 
     16 O4'        47.3810   13.5480   43.7470 O.3       1 APR335      0.0000 
     17 C4'        46.4780   13.1110   42.6900 C.3       1 APR335      0.0000 
     18 C5'        45.6690   11.9220   43.1950 C.3       1 APR335      0.0000 
     19 O5'        44.2450   12.1730   42.9670 O.3       1 APR335      0.0000 
     20 PA         43.2760   11.0420   42.3000 P.3       1 APR335      0.0000 
     21 O1A        43.8770    9.6920   42.4680 O.co2     1 APR335      0.0000 
     22 O2A        43.0720   11.3190   40.8590 O.co2     1 APR335      0.0000 
     23 O3A        41.9440   11.2310   43.1240 O.3       1 APR335      0.0000 
     24 PB         41.3540   12.4480   44.1200 P.3       1 APR335      0.0000 
     25 O1B        41.8420   12.2620   45.5160 O.co2     1 APR335      0.0000 
     26 O2B        41.7460   13.7870   43.5970 O.co2     1 APR335      0.0000 
     27 O5D        39.8310   12.2230   44.0040 O.3       1 APR335      0.0000 
     28 C5D        39.3580   10.9990   44.4750 C.3       1 APR335      0.0000 
     29 O4D        37.6230   11.0880   42.8680 O.3       1 APR335      0.0000 
     30 O1D        37.3610    9.6090   41.0550 O.3       1 APR335      0.0000 
     31 C1D        36.9010    9.9800   42.4090 C.3       1 APR335      0.0000 
     32 O2D        36.1880    7.8720   43.5050 O.3       1 APR335      0.0000 
     33 C2D        37.1920    8.8990   43.4350 C.3       1 APR335      0.0000 
     34 O3D        36.0450    9.7770   45.4870 O.3       1 APR335      0.0000 
     35 C3D        37.3040    9.6620   44.7670 C.3       1 APR335      0.0000 
     36 C4D        37.9010   10.9530   44.2880 C.3       1 APR335      0.0000 
     37 H          51.4041   17.0721   45.7782 H         1 APR335      0.0000 
     38 H          53.8899   13.7710   47.6734 H         1 APR335      0.0000 
     39 H          52.6654   12.4822   47.9279 H         1 APR335      0.0000 
     40 H          49.5996   11.1050   44.3218 H         1 APR335      0.0000 
     41 H          48.9240   14.6663   42.9855 H         1 APR335      0.0000 
     42 H          48.9520   11.7857   42.2949 H         1 APR335      0.0000 
     43 H          47.0842   11.8179   41.1437 H         1 APR335      0.0000 
     44 H          45.7908   13.9291   42.4653 H         1 APR335      0.0000 
     45 H          45.8755   11.7900   44.2574 H         1 APR335      0.0000 
     46 H          45.9970   11.0295   42.6615 H         1 APR335      0.0000 
     47 H          39.5819   10.8581   45.5449 H         1 APR335      0.0000 
     48 H          39.8107   10.1507   43.9364 H         1 APR335      0.0000 
     49 H          35.8500   10.1717   42.4173 H         1 APR335      0.0000 
     50 H          38.1761    8.5016   43.2257 H         1 APR335      0.0000 
     51 H          38.0692    9.1451   45.3390 H         1 APR335      0.0000 
     52 H          37.4376   11.7712   44.8210 H         1 APR335      0.0000 
     53 H          49.4466   14.2640   40.9147 H         1 APR335      0.0000 
     54 H          47.6372   14.5875   40.6040 H         1 APR335      0.0000 
     55 H          36.6776    9.9944   40.4350 H         1 APR335      0.0000 
     56 H          35.7684    7.9814   44.4061 H         1 APR335      0.0000 
     57 H          36.2876    9.6693   46.4511 H         1 APR335      0.0000 
@<TRIPOS>BOND
     1    2    1 ar   
     2    6    1 ar   
     3    3    2 ar   
     4   37    2 1    
     5    4    3 ar   
     6    5    4 ar   
     7   10    4 1    
     8    6    5 ar   
     9    8    5 1    
    10    7    6 1    
    11   38    7 1    
    12   39    7 1    
    13    9    8 2    
    14   10    9 1    
    15   40    9 1    
    16   11   10 1    
    17   12   11 1    
    18   16   11 1    
    19   41   11 1    
    20   13   12 1    
    21   14   12 1    
    22   42   12 1    
    23   53   13 1    
    24   15   14 1    
    25   17   14 1    
    26   43   14 1    
    27   54   15 1    
    28   17   16 1    
    29   18   17 1    
    30   44   17 1    
    31   19   18 1    
    32   45   18 1    
    33   46   18 1    
    34   20   19 1    
    35   21   20 ar   
    36   22   20 ar   
    37   23   20 1    
    38   24   23 1    
    39   25   24 ar   
    40   26   24 ar   
    41   27   24 1    
    42   28   27 1    
    43   36   28 1    
    44   47   28 1    
    45   48   28 1    
    46   31   29 1    
    47   36   29 1    
    48   31   30 1    
    49   55   30 1    
    50   33   31 1    
    51   49   31 1    
    52   33   32 1    
    53   56   32 1    
    54   35   33 1    
    55   50   33 1    
    56   35   34 1    
    57   57   34 1    
    58   36   35 1    
    59   51   35 1    
    60   52   36 1    
@<TRIPOS>SUBSTRUCTURE
     1 APR335      1 GROUP   
@<TRIPOS>SET

