#    Name: 3klj_FAD_1_INTS_M
#    Modification time : Mon Mar 24 19:46:50 2014

@<TRIPOS>MOLECULE
3klj_FAD_1_INTS_M
  119     0    12     0     0
SMALL
NO_CHARGES


@<TRIPOS>ATOM
      1 NZ        -19.4075  -32.6095  -11.9935 N.4       3 LYC4        0.0000 
      2 NZ        -17.5260  -32.4730  -11.3990 N.4      11 LYL4        0.0000 
      3 NZ        -21.2890  -32.7460  -12.5880 N.4       7 LYP4        0.0000 
      4 NZ        -19.9955  -31.3205  -12.0705 N.4       3 LYC4        0.0000 
      5 NZ        -19.2310  -30.7650  -10.7030 N.4      11 LYL4        0.0000 
      6 N         -20.1460  -31.6945  -10.9905 N.am      2 SEC2        0.0000 
      7 N         -19.2310  -30.7650  -10.7030 N.am     10 SEL2        0.0000 
      8 N         -21.0610  -32.6240  -11.2780 N.am      6 SEP2        0.0000 
      9 N         -19.9955  -31.3205  -12.0705 N.am      2 SEC2        0.0000 
     10 N         -20.7600  -31.8760  -13.4380 N.am      6 SEP2        0.0000 
     11 CA        -14.3830  -30.5030  -13.5985 C.3       4 GLC5        0.0000 
     12 CA        -16.4500  -30.4440  -13.3760 C.3      12 GLL5        0.0000 
     13 CA        -12.3160  -30.5620  -13.8210 C.3       8 GLP5        0.0000 
     14 CA        -15.2665  -31.2450  -12.0750 C.3       4 GLC5        0.0000 
     15 CA        -14.0830  -32.0460  -10.7740 C.3       8 GLP5        0.0000 
     16 CA        -15.5470  -29.0440  -15.7840 C.3       4 GLC5        0.0000 
     17 CA        -16.7990  -30.3780  -14.8630 C.3      12 GLL5        0.0000 
     18 CA        -14.2950  -27.7100  -16.7050 C.3       8 GLP5        0.0000 
     19 N         -18.3810  -30.0985  -17.0500 N.am      2 SEC2        0.0000 
     20 N         -18.8010  -31.0860  -15.9810 N.am     10 SEL2        0.0000 
     21 N         -17.9610  -29.1110  -18.1190 N.am      6 SEP2        0.0000 
     22 O         -19.8765  -31.9585  -16.0985 O.2       1 ALC1        0.0000 
     23 O         -18.8010  -31.0860  -15.9810 O.2       9 ALL1        0.0000 
     24 O         -20.9520  -32.8310  -16.2160 O.2       5 ALP1        0.0000 
     25 O         -17.0890  -33.1490  -18.3835 O.2       1 ALC1        0.0000 
     26 O         -17.4860  -32.9900  -17.2480 O.2       9 ALL1        0.0000 
     27 O         -16.6920  -33.3080  -19.5190 O.2       5 ALP1        0.0000 
     28 CA        -15.0340  -29.5460  -16.6990 C.3       4 GLC5        0.0000 
     29 CA        -15.7730  -31.3820  -16.6930 C.3      12 GLL5        0.0000 
     30 CA        -15.9240  -32.2550  -18.7400 C.3       4 GLC5        0.0000 
     31 CA        -16.0750  -33.1280  -20.7870 C.3       8 GLP5        0.0000 
     32 CA        -12.0075  -32.1785  -21.3340 C.3       4 GLC5        0.0000 
     33 CA        -11.6000  -32.0970  -19.1600 C.3      12 GLL5        0.0000 
     34 CA        -12.4150  -32.2600  -23.5080 C.3       8 GLP5        0.0000 
     35 CA        -10.0790  -31.0660  -20.3530 C.3       4 GLC5        0.0000 
     36 CA         -8.5580  -30.0350  -21.5460 C.3       8 GLP5        0.0000 
     37 O          -9.6190  -33.0785  -20.4120 O.2       1 ALC1        0.0000 
     38 O         -10.6710  -33.0220  -19.4070 O.2       9 ALL1        0.0000 
     39 O          -8.5670  -33.1350  -21.4170 O.2       5 ALP1        0.0000 
     40 N         -11.0620  -31.1935  -21.3410 N.am      2 SEC2        0.0000 
     41 N         -11.7830  -31.0580  -20.0560 N.am     10 SEL2        0.0000 
     42 N         -10.3410  -31.3290  -22.6260 N.am      6 SEP2        0.0000 
     43 CA        -11.4160  -29.7185  -18.9895 C.3       4 GLC5        0.0000 
     44 CA        -12.9080  -30.2570  -19.9900 C.3      12 GLL5        0.0000 
     45 CA         -9.9240  -29.1800  -17.9890 C.3       8 GLP5        0.0000 
     46 CA        -13.6015  -28.9835  -18.3475 C.3       4 GLC5        0.0000 
     47 CA        -12.8860  -28.9150  -21.3000 C.3       4 GLC5        0.0000 
     48 CA        -12.8640  -27.5730  -22.6100 C.3       8 GLP5        0.0000 
     49 CA        -14.8415  -29.3030  -20.3735 C.3       4 GLC5        0.0000 
     50 CA        -16.7750  -28.3490  -20.7570 C.3       8 GLP5        0.0000 
     51 CA        -14.4915  -31.6925  -20.3885 C.3       4 GLC5        0.0000 
     52 CA        -12.6615  -31.2585  -21.7490 C.3       4 GLC5        0.0000 
     53 N         -15.2805  -30.6260  -19.9915 N.am      2 SEC2        0.0000 
     54 N         -13.8710  -30.4970  -19.0280 N.am     10 SEL2        0.0000 
     55 N         -16.6900  -30.7550  -20.9550 N.am      6 SEP2        0.0000 
     56 CA        -13.9990  -29.6125  -17.4190 C.3       4 GLC5        0.0000 
     57 CA        -13.7030  -31.5150  -18.1330 C.3      12 GLL5        0.0000 
     58 N         -20.7625  -29.9890   -1.5960 N.am      2 SEC2        0.0000 
     59 N         -21.6150  -30.7890   -0.7460 N.am     10 SEL2        0.0000 
     60 N         -19.9100  -29.1890   -2.4460 N.am      6 SEP2        0.0000 
     61 N         -26.8045  -32.5915   -1.0400 N.am      2 SEC2        0.0000 
     62 N         -25.3250  -33.3050   -0.9230 N.am     10 SEL2        0.0000 
     63 N         -28.2840  -31.8780   -1.1570 N.am      6 SEP2        0.0000 
     64 CA        -25.1875  -38.1135   -5.1490 C.3       4 GLC5        0.0000 
     65 CA        -24.8730  -35.9630   -5.1890 C.3      12 GLL5        0.0000 
     66 CA        -25.5020  -40.2640   -5.1090 C.3       8 GLP5        0.0000 
     67 CA        -26.6065  -36.6280   -8.6490 C.3       4 GLC5        0.0000 
     68 CA        -25.2210  -37.5190   -7.1330 C.3      12 GLL5        0.0000 
     69 CA        -27.9920  -35.7370  -10.1650 C.3       8 GLP5        0.0000 
     70 CA        -26.3565  -38.8115   -7.9305 C.3       4 GLC5        0.0000 
     71 CA        -27.4920  -40.1040   -8.7280 C.3       8 GLP5        0.0000 
     72 CA        -25.3615  -38.8915   -6.1210 C.3       4 GLC5        0.0000 
     73 CA        -22.4120  -37.6130   -9.9245 C.3       4 GLC5        0.0000 
     74 CA        -22.6520  -36.6330   -8.2230 C.3      12 GLL5        0.0000 
     75 CA        -22.1720  -38.5930  -11.6260 C.3       8 GLP5        0.0000 
     76 CA        -23.7270  -32.7500   -5.0690 C.3       4 GLC5        0.0000 
     77 CA        -22.8850  -34.5880   -5.0390 C.3      12 GLL5        0.0000 
     78 CA        -24.5690  -30.9120   -5.0990 C.3       8 GLP5        0.0000 
     79 CA        -21.2970  -30.0405   -4.8060 C.3       4 GLC5        0.0000 
     80 CA        -20.8850  -31.8960   -5.6740 C.3      12 GLL5        0.0000 
     81 CA        -21.7090  -28.1850   -3.9380 C.3       8 GLP5        0.0000 
     82 CA        -19.8670  -29.8005   -4.7045 C.3       4 GLC5        0.0000 
     83 CA        -19.4710  -31.5240   -6.0730 C.3      12 GLL5        0.0000 
     84 CA        -20.2630  -28.0770   -3.3360 C.3       8 GLP5        0.0000 
     85 O         -17.3435  -31.4395   -5.1465 O.2       1 ALC1        0.0000 
     86 O         -18.7160  -31.2230   -4.9140 O.2       9 ALL1        0.0000 
     87 O         -15.9710  -31.6560   -5.3790 O.2       5 ALP1        0.0000 
     88 CA        -20.3365  -28.8065   -8.1975 C.3       4 GLC5        0.0000 
     89 CA        -19.4070  -30.3290   -7.0090 C.3      12 GLL5        0.0000 
     90 CA        -21.2660  -27.2840   -9.3860 C.3       8 GLP5        0.0000 
     91 CA        -20.6240  -28.7865   -6.0790 C.3       4 GLC5        0.0000 
     92 CA        -21.8410  -27.2440   -5.1490 C.3       8 GLP5        0.0000 
     93 CA        -16.2085  -31.1255   -7.2955 C.3       4 GLC5        0.0000 
     94 CA        -17.9570  -30.1270   -7.4300 C.3      12 GLL5        0.0000 
     95 CA        -14.4600  -32.1240   -7.1610 C.3       8 GLP5        0.0000 
     96 N         -17.2480  -26.5890  -10.0490 N.am      2 SEC2        0.0000 
     97 N         -16.9310  -27.8820  -10.3720 N.am     10 SEL2        0.0000 
     98 N         -17.5650  -25.2960   -9.7260 N.am      6 SEP2        0.0000 
     99 N         -14.4820  -29.4480   -7.6450 N.am      2 SEC2        0.0000 
    100 N         -15.4040  -29.0040   -8.6740 N.am     10 SEL2        0.0000 
    101 N         -13.5600  -29.8920   -6.6160 N.am      6 SEP2        0.0000 
    102 CA        -17.9387  -28.9090  -13.6608 C.3       4 GLC5        0.0000 
    103 CA        -19.2530  -27.4070  -13.2020 C.3       8 GLP5        0.0000 
    104 CA        -14.6062  -32.5237  -19.4730 C.3       4 GLC5        0.0000 
    105 CA        -12.5720  -32.3240  -18.1850 C.3      12 GLL5        0.0000 
    106 CA        -12.1352  -31.5718  -16.3395 C.3       4 GLC5        0.0000 
    107 CA        -11.1330  -31.2240  -14.5200 C.3       8 GLP5        0.0000 
    108 CA        -11.4093  -30.5214  -18.1959 C.3       4 GLC5        0.0000 
    109 CA        -25.3160  -34.2155   -5.8208 C.3       4 GLC5        0.0000 
    110 CA        -24.1070  -35.0050   -4.5110 C.3      12 GLL5        0.0000 
    111 CA        -26.1840  -32.4430   -6.0150 C.3       8 GLP5        0.0000 
    112 CA        -23.1234  -38.2677   -6.4188 C.3       4 GLC5        0.0000 
    113 CA        -23.0240  -40.0770   -5.3940 C.3       8 GLP5        0.0000 
    114 CA        -22.9054  -34.5091   -8.4797 C.3       4 GLC5        0.0000 
    115 CA        -23.1810  -36.0760   -6.9250 C.3      12 GLL5        0.0000 
    116 CA        -23.1400  -33.2760  -10.0510 C.3       8 GLP5        0.0000 
    117 CA        -22.7070  -31.7305   -5.1963 C.3       4 GLC5        0.0000 
    118 CA        -17.9755  -28.4780   -6.5602 C.3       4 GLC5        0.0000 
    119 CA        -17.2690  -26.7280   -5.9010 C.3       8 GLP5        0.0000 
@<TRIPOS>BOND
@<TRIPOS>SUBSTRUCTURE
     1 ALC1       22 GROUP        1 X    ALC  0     ROOT ALC X 1
     2 SEC2        6 GROUP        1 X    SEC  0     **** SEC X 2
     3 LYC4        1 GROUP        1 X    LYC  0     **** LYC X 4
     4 GLC5       11 GROUP        1 X    GLC  0     **** GLC X 6
     5 ALP1       24 GROUP        1 Y    ALP  0     ROOT ALP Y 8
     6 SEP2        8 GROUP        1 Y    SEP  0     **** SEP Y 9
     7 LYP4        3 GROUP        1 Y    LYP  0     **** LYP Y 11
     8 GLP5       13 GROUP        1 Y    GLP  0     **** GLP Y 13
     9 ALL1       23 GROUP        1 Z    ALL  0     ROOT ALL Z 15
    10 SEL2        7 GROUP        1 Z    SEL  0     **** SEL Z 16
    11 LYL4        2 GROUP        1 Z    LYL  0     **** LYL Z 18
    12 GLL5       12 GROUP        1 Z    GLL  0     **** GLL Z 20
@<TRIPOS>SET

