#    Name: 3klj_FAD_1_ligand
#    Modification time : Mon Mar 24 19:46:50 2014

@<TRIPOS>MOLECULE
3klj_FAD_1_ligand
   84    89     1     0     0
SMALL
NO_CHARGES


@<TRIPOS>ATOM
      1 PA        -17.8350  -31.0100  -11.2230 P.3       1 FAD401      0.0000 
      2 O1A       -17.5260  -32.4730  -11.3990 O.co2     1 FAD401      0.0000 
      3 O2A       -19.2310  -30.7650  -10.7030 O.co2     1 FAD401      0.0000 
      4 O5B       -17.6250  -30.2490  -12.6100 O.3       1 FAD401      0.0000 
      5 C5B       -16.4500  -30.4440  -13.3760 C.3       1 FAD401      0.0000 
      6 C4B       -16.7990  -30.3780  -14.8630 C.3       1 FAD401      0.0000 
      7 O4B       -15.6040  -30.4490  -15.6390 O.3       1 FAD401      0.0000 
      8 C3B       -17.6640  -31.5640  -15.2810 C.3       1 FAD401      0.0000 
      9 O3B       -18.8010  -31.0860  -15.9810 O.3       1 FAD401      0.0000 
     10 C2B       -16.7760  -32.4050  -16.1790 C.3       1 FAD401      0.0000 
     11 O2B       -17.4860  -32.9900  -17.2480 O.3       1 FAD401      0.0000 
     12 C1B       -15.7730  -31.3820  -16.6930 C.3       1 FAD401      0.0000 
     13 N9A       -14.4820  -31.9690  -17.0960 N.pl3     1 FAD401      0.0000 
     14 C8A       -13.8330  -33.0330  -16.5290 C.2       1 FAD401      0.0000 
     15 N7A       -12.6770  -33.2410  -17.2020 N.2       1 FAD401      0.0000 
     16 C5A       -12.5720  -32.3240  -18.1850 C.ar      1 FAD401      0.0000 
     17 C6A       -11.6000  -32.0970  -19.1600 C.ar      1 FAD401      0.0000 
     18 N6A       -10.6710  -33.0220  -19.4070 N.pl3     1 FAD401      0.0000 
     19 N1A       -11.7830  -31.0580  -20.0560 N.ar      1 FAD401      0.0000 
     20 C2A       -12.9080  -30.2570  -19.9900 C.ar      1 FAD401      0.0000 
     21 N3A       -13.8710  -30.4970  -19.0280 N.ar      1 FAD401      0.0000 
     22 C4A       -13.7030  -31.5150  -18.1330 C.ar      1 FAD401      0.0000 
     23 N1        -21.8300  -32.1590   -2.5120 N.2       1 FAD401      0.0000 
     24 C2        -22.2820  -31.6320   -1.3210 C.2       1 FAD401      0.0000 
     25 O2        -21.6150  -30.7890   -0.7460 O.2       1 FAD401      0.0000 
     26 N3        -23.4920  -32.0240   -0.7860 N.am      1 FAD401      0.0000 
     27 C4        -24.2550  -32.9650   -1.4360 C.2       1 FAD401      0.0000 
     28 O4        -25.3250  -33.3050   -0.9230 O.2       1 FAD401      0.0000 
     29 C4X       -23.8030  -33.5220   -2.6410 C.2       1 FAD401      0.0000 
     30 N5        -24.5580  -34.4660   -3.3210 N.2       1 FAD401      0.0000 
     31 C5X       -24.1070  -35.0050   -4.5110 C.ar      1 FAD401      0.0000 
     32 C6        -24.8730  -35.9630   -5.1890 C.ar      1 FAD401      0.0000 
     33 C7        -24.4060  -36.4920   -6.4030 C.ar      1 FAD401      0.0000 
     34 C7M       -25.2210  -37.5190   -7.1330 C.3       1 FAD401      0.0000 
     35 C8        -23.1810  -36.0760   -6.9250 C.ar      1 FAD401      0.0000 
     36 C8M       -22.6520  -36.6330   -8.2230 C.3       1 FAD401      0.0000 
     37 C9        -22.4250  -35.1300   -6.2430 C.ar      1 FAD401      0.0000 
     38 C9A       -22.8850  -34.5880   -5.0390 C.ar      1 FAD401      0.0000 
     39 N10       -22.1250  -33.6340   -4.3650 N.pl3     1 FAD401      0.0000 
     40 C10       -22.5830  -33.1040   -3.1740 C.2       1 FAD401      0.0000 
     41 C1'       -20.8050  -33.2020   -4.9130 C.3       1 FAD401      0.0000 
     42 C2'       -20.8850  -31.8960   -5.6740 C.3       1 FAD401      0.0000 
     43 O2'       -21.6890  -32.0960   -6.8190 O.3       1 FAD401      0.0000 
     44 C3'       -19.4710  -31.5240   -6.0730 C.3       1 FAD401      0.0000 
     45 O3'       -18.7160  -31.2230   -4.9140 O.3       1 FAD401      0.0000 
     46 C4'       -19.4070  -30.3290   -7.0090 C.3       1 FAD401      0.0000 
     47 O4'       -20.1850  -30.5670   -8.1750 O.3       1 FAD401      0.0000 
     48 C5'       -17.9570  -30.1270   -7.4300 C.3       1 FAD401      0.0000 
     49 O5'       -17.9470  -29.1490   -8.4380 O.3       1 FAD401      0.0000 
     50 P         -16.7090  -29.0540   -9.4300 P.3       1 FAD401      0.0000 
     51 O1P       -16.9310  -27.8820  -10.3720 O.co2     1 FAD401      0.0000 
     52 O2P       -15.4040  -29.0040   -8.6740 O.co2     1 FAD401      0.0000 
     53 O3P       -16.6940  -30.4540  -10.2340 O.3       1 FAD401      0.0000 
     54 H         -15.9912  -31.4210  -13.1868 H         1 FAD401      0.0000 
     55 H         -15.6959  -29.6738  -13.1786 H         1 FAD401      0.0000 
     56 H         -17.3381  -29.4772  -15.0595 H         1 FAD401      0.0000 
     57 H         -17.9032  -32.1212  -14.4118 H         1 FAD401      0.0000 
     58 H         -16.2471  -33.0974  -15.5702 H         1 FAD401      0.0000 
     59 H         -16.2367  -30.8844  -17.5477 H         1 FAD401      0.0000 
     60 H         -14.1526  -33.5419  -15.7779 H         1 FAD401      0.0000 
     61 H         -10.7329  -33.8625  -18.8688 H         1 FAD401      0.0000 
     62 H          -9.9962  -32.7917  -20.1082 H         1 FAD401      0.0000 
     63 H         -13.0283  -29.4812  -20.6580 H         1 FAD401      0.0000 
     64 H         -23.8214  -31.6105    0.0999 H         1 FAD401      0.0000 
     65 H         -25.7657  -36.2753   -4.8034 H         1 FAD401      0.0000 
     66 H         -21.5181  -34.8233   -6.6245 H         1 FAD401      0.0000 
     67 H         -20.4096  -33.9816   -5.5850 H         1 FAD401      0.0000 
     68 H         -20.0805  -33.0900   -4.0894 H         1 FAD401      0.0000 
     69 H         -21.2704  -31.1482   -5.0228 H         1 FAD401      0.0000 
     70 H         -19.0294  -32.3773   -6.5934 H         1 FAD401      0.0000 
     71 H         -19.7268  -29.4571   -6.4805 H         1 FAD401      0.0000 
     72 H         -17.5753  -31.0874   -7.7757 H         1 FAD401      0.0000 
     73 H         -17.3947  -29.8232   -6.5473 H         1 FAD401      0.0000 
     74 H         -24.7752  -37.8149   -7.9778 H         1 FAD401      0.0000 
     75 H         -25.3704  -38.3375   -6.5782 H         1 FAD401      0.0000 
     76 H         -26.1225  -37.1672   -7.3849 H         1 FAD401      0.0000 
     77 H         -21.7675  -36.2342   -8.4652 H         1 FAD401      0.0000 
     78 H         -22.5242  -37.6237   -8.1773 H         1 FAD401      0.0000 
     79 H         -23.2735  -36.4525   -8.9853 H         1 FAD401      0.0000 
     80 H         -19.4453  -31.8507  -15.9807 H         1 FAD401      0.0000 
     81 H         -16.8724  -32.9210  -18.0346 H         1 FAD401      0.0000 
     82 H         -21.2663  -31.5375   -7.5327 H         1 FAD401      0.0000 
     83 H         -17.7630  -31.3633   -5.1824 H         1 FAD401      0.0000 
     84 H         -19.5298  -30.5536   -8.9303 H         1 FAD401      0.0000 
@<TRIPOS>BOND
     1    2    1 ar   
     2    3    1 ar   
     3    4    1 1    
     4   53    1 1    
     5    5    4 1    
     6    6    5 1    
     7   54    5 1    
     8   55    5 1    
     9    7    6 1    
    10    8    6 1    
    11   56    6 1    
    12   12    7 1    
    13    9    8 1    
    14   10    8 1    
    15   57    8 1    
    16   80    9 1    
    17   11   10 1    
    18   12   10 1    
    19   58   10 1    
    20   81   11 1    
    21   13   12 1    
    22   59   12 1    
    23   14   13 1    
    24   22   13 1    
    25   15   14 2    
    26   60   14 1    
    27   16   15 1    
    28   17   16 ar   
    29   22   16 ar   
    30   18   17 1    
    31   19   17 ar   
    32   61   18 1    
    33   62   18 1    
    34   20   19 ar   
    35   21   20 ar   
    36   63   20 1    
    37   22   21 ar   
    38   24   23 1    
    39   40   23 2    
    40   25   24 2    
    41   26   24 am   
    42   27   26 am   
    43   64   26 1    
    44   28   27 2    
    45   29   27 1    
    46   30   29 2    
    47   40   29 1    
    48   31   30 1    
    49   32   31 ar   
    50   38   31 ar   
    51   33   32 ar   
    52   65   32 1    
    53   34   33 1    
    54   35   33 ar   
    55   74   34 1    
    56   75   34 1    
    57   76   34 1    
    58   36   35 1    
    59   37   35 ar   
    60   77   36 1    
    61   78   36 1    
    62   79   36 1    
    63   38   37 ar   
    64   66   37 1    
    65   39   38 1    
    66   40   39 1    
    67   41   39 1    
    68   42   41 1    
    69   67   41 1    
    70   68   41 1    
    71   43   42 1    
    72   44   42 1    
    73   69   42 1    
    74   82   43 1    
    75   45   44 1    
    76   46   44 1    
    77   70   44 1    
    78   83   45 1    
    79   47   46 1    
    80   48   46 1    
    81   71   46 1    
    82   84   47 1    
    83   49   48 1    
    84   72   48 1    
    85   73   48 1    
    86   50   49 1    
    87   51   50 ar   
    88   52   50 ar   
    89   53   50 1    
@<TRIPOS>SUBSTRUCTURE
     1 FAD401      1 GROUP   
@<TRIPOS>SET

