#    Name: 2c4c_FAD_1_INTS_M
#    Modification time : Mon Mar 24 22:34:44 2014

@<TRIPOS>MOLECULE
2c4c_FAD_1_INTS_M
  115     0    12     0     0
SMALL
NO_CHARGES


@<TRIPOS>ATOM
      1 NZ         47.8860   28.9850   38.9285 N.4       3 LYC4        0.0000 
      2 NZ         48.0160   27.8510   38.1990 N.4      11 LYL4        0.0000 
      3 NZ         47.0430   30.9390   38.9000 N.4       7 LYP4        0.0000 
      4 N          47.4025   29.2320   37.9200 N.am      2 SEC2        0.0000 
      5 N          48.0160   27.8510   38.1990 N.am     10 SEL2        0.0000 
      6 N          46.7890   30.6130   37.6410 N.am      6 SEP2        0.0000 
      7 N          47.8860   28.9850   38.9285 N.am      2 SEC2        0.0000 
      8 N          47.7560   30.1190   39.6580 N.am      6 SEP2        0.0000 
      9 N          47.6450   29.5455   36.7355 N.am      2 SEC2        0.0000 
     10 N          48.5010   28.4780   35.8300 N.am     10 SEL2        0.0000 
     11 CA         50.7555   27.0705   34.8670 C.3       4 GLC5        0.0000 
     12 CA         51.3510   27.9220   36.3950 C.3      12 GLL5        0.0000 
     13 CA         50.1600   26.2190   33.3390 C.3       8 GLP5        0.0000 
     14 CA         54.0855   27.7280   37.6835 C.3       4 GLC5        0.0000 
     15 CA         52.3920   28.7530   37.1320 C.3      12 GLL5        0.0000 
     16 CA         55.7790   26.7030   38.2350 C.3       8 GLP5        0.0000 
     17 O          53.4255   30.4320   39.0885 O.2       1 ALC1        0.0000 
     18 O          51.9870   30.6820   38.3380 O.2       9 ALL1        0.0000 
     19 O          54.8640   30.1820   39.8390 O.2       5 ALP1        0.0000 
     20 O          54.3595   31.0630   38.4715 O.2       1 ALC1        0.0000 
     21 O          53.8550   31.9440   37.1040 O.2       9 ALL1        0.0000 
     22 O          54.6045   32.0720   38.0965 O.2       1 ALC1        0.0000 
     23 O          55.3540   32.2000   39.0890 O.2       5 ALP1        0.0000 
     24 CA         55.0455   28.2165   37.2385 C.3       4 GLC5        0.0000 
     25 CA         54.3120   29.7300   36.2420 C.3      12 GLL5        0.0000 
     26 CA         54.0970   27.8035   35.2050 C.3       4 GLC5        0.0000 
     27 CA         53.8820   25.8770   34.1680 C.3       8 GLP5        0.0000 
     28 CA         59.2100   31.0835   32.7490 C.3       4 GLC5        0.0000 
     29 CA         58.2080   29.5400   33.3720 C.3      12 GLL5        0.0000 
     30 CA         60.2120   32.6270   32.1260 C.3       8 GLP5        0.0000 
     31 CA         59.8460   28.3720   33.3175 C.3       4 GLC5        0.0000 
     32 CA         61.4840   27.2040   33.2630 C.3       8 GLP5        0.0000 
     33 O          59.8495   29.3315   31.5455 O.2       1 ALC1        0.0000 
     34 O          58.6360   29.4910   32.1150 O.2       9 ALL1        0.0000 
     35 O          61.0630   29.1720   30.9760 O.2       5 ALP1        0.0000 
     36 N          60.4260   29.5905   34.0195 N.am      2 SEC2        0.0000 
     37 N          59.1220   29.5540   34.4070 N.am     10 SEL2        0.0000 
     38 N          61.7300   29.6270   33.6320 N.am      6 SEP2        0.0000 
     39 CA         58.6400   27.7320   35.3015 C.3       4 GLC5        0.0000 
     40 CA         58.6930   29.6040   35.7180 C.3      12 GLL5        0.0000 
     41 CA         58.5870   25.8600   34.8850 C.3       8 GLP5        0.0000 
     42 CA         58.6570   30.0360   37.5870 C.3       4 GLC5        0.0000 
     43 CA         58.6210   30.4680   39.4560 C.3       8 GLP5        0.0000 
     44 CA         58.4425   31.4970   35.6845 C.3       4 GLC5        0.0000 
     45 CA         58.1920   33.3900   35.6510 C.3       8 GLP5        0.0000 
     46 CA         60.1355   30.7900   34.9640 C.3       4 GLC5        0.0000 
     47 CA         61.5780   31.9760   34.2100 C.3       8 GLP5        0.0000 
     48 CA         60.0885   28.4040   34.4905 C.3       4 GLC5        0.0000 
     49 N          57.7610   30.9430   36.9180 N.am      2 SEC2        0.0000 
     50 N          57.3380   29.6480   35.9900 N.am     10 SEL2        0.0000 
     51 N          58.1840   32.2380   37.8460 N.am      6 SEP2        0.0000 
     52 CA         56.1090   28.1690   36.6065 C.3       4 GLC5        0.0000 
     53 CA         56.4390   29.6350   34.9780 C.3      12 GLL5        0.0000 
     54 CA         56.5895   31.4885   35.1000 C.3       4 GLC5        0.0000 
     55 CA         56.7400   33.3420   35.2220 C.3       8 GLP5        0.0000 
     56 N          40.5335   21.8345   39.5250 N.am      2 SEC2        0.0000 
     57 N          39.0520   22.4370   39.6880 N.am     10 SEL2        0.0000 
     58 N          42.0150   21.2320   39.3620 N.am      6 SEP2        0.0000 
     59 O          37.4545   23.2470   40.8995 O.2       1 ALC1        0.0000 
     60 O          37.4490   24.0130   39.4450 O.2       9 ALL1        0.0000 
     61 O          37.4600   22.4810   42.3540 O.2       5 ALP1        0.0000 
     62 N          36.0950   25.3060   40.5880 N.am      2 SEC2        0.0000 
     63 N          35.9230   25.6410   39.1230 N.am     10 SEL2        0.0000 
     64 N          36.2670   24.9710   42.0530 N.am      6 SEP2        0.0000 
     65 CA         37.6155   32.7680   35.6635 C.3       4 GLC5        0.0000 
     66 CA         39.0090   31.5980   36.3370 C.3      12 GLL5        0.0000 
     67 CA         36.2220   33.9380   34.9900 C.3       8 GLP5        0.0000 
     68 CA         38.9365   30.5070   34.6615 C.3       4 GLC5        0.0000 
     69 CA         38.8640   29.4160   32.9860 C.3       8 GLP5        0.0000 
     70 CA         41.4395   30.2210   34.0525 C.3       4 GLC5        0.0000 
     71 CA         41.7160   30.4950   35.7470 C.3      12 GLL5        0.0000 
     72 CA         41.1630   29.9470   32.3580 C.3       8 GLP5        0.0000 
     73 CA         41.4005   24.0585   34.9010 C.3       4 GLC5        0.0000 
     74 CA         41.3530   25.4290   36.4570 C.3      12 GLL5        0.0000 
     75 CA         41.4480   22.6880   33.3450 C.3       8 GLP5        0.0000 
     76 CA         40.4120   25.6540   34.9955 C.3       4 GLC5        0.0000 
     77 CA         39.4710   25.8790   33.5340 C.3       8 GLP5        0.0000 
     78 CA         41.4365   23.3355   36.7270 C.3       4 GLC5        0.0000 
     79 CA         41.5200   21.2420   36.9970 C.3       8 GLP5        0.0000 
     80 CA         41.3630   26.7390   38.8565 C.3       4 GLC5        0.0000 
     81 CA         42.4660   25.7090   37.4730 C.3      12 GLL5        0.0000 
     82 CA         40.2600   27.7690   40.2400 C.3       8 GLP5        0.0000 
     83 O          44.2515   24.0015   35.0615 O.2       1 ALC1        0.0000 
     84 O          43.7960   24.2720   36.1090 O.2       9 ALL1        0.0000 
     85 O          44.7070   23.7310   34.0140 O.2       5 ALP1        0.0000 
     86 O          44.5180   25.0580   34.9630 O.2       1 ALC1        0.0000 
     87 O          45.2400   25.8440   33.8170 O.2       5 ALP1        0.0000 
     88 CA         46.8590   22.9685   38.4200 C.3       4 GLC5        0.0000 
     89 CA         46.0090   24.3500   37.5890 C.3      12 GLL5        0.0000 
     90 CA         47.7090   21.5870   39.2510 C.3       8 GLP5        0.0000 
     91 CA         46.4545   24.2975   35.4045 C.3       4 GLC5        0.0000 
     92 CA         46.9000   24.2450   33.2200 C.3       8 GLP5        0.0000 
     93 N          48.1485   22.7725   35.2765 N.am      2 SEC2        0.0000 
     94 N          48.7400   23.5250   36.4970 N.am     10 SEL2        0.0000 
     95 N          47.5570   22.0200   34.0560 N.am      6 SEP2        0.0000 
     96 CA         51.2708   27.7138   38.7418 C.3       4 GLC5        0.0000 
     97 CA         50.6700   27.0900   40.7200 C.3       8 GLP5        0.0000 
     98 CA         52.8768   27.1073   35.4657 C.3       4 GLC5        0.0000 
     99 CA         55.2770   31.8215   35.7632 C.3       4 GLC5        0.0000 
    100 CA         57.0840   31.4277   33.6092 C.3       4 GLC5        0.0000 
    101 CA         56.6410   33.2960   33.7040 C.3       8 GLP5        0.0000 
    102 CA         55.8692   27.8755   33.8053 C.3       4 GLC5        0.0000 
    103 CA         56.8460   29.5790   33.6570 C.3      12 GLL5        0.0000 
    104 CA         55.0960   26.1440   33.2930 C.3       8 GLP5        0.0000 
    105 CA         57.7850   27.7286   34.5656 C.3       4 GLC5        0.0000 
    106 CA         39.3400   31.8230   38.0233 C.3       4 GLC5        0.0000 
    107 CA         39.2950   30.1300   36.4520 C.3      12 GLL5        0.0000 
    108 CA         39.5280   32.7820   39.6520 C.3       8 GLP5        0.0000 
    109 CA         38.0739   27.3709   35.3449 C.3       4 GLC5        0.0000 
    110 CA         39.7740   27.3750   36.6720 C.3      12 GLL5        0.0000 
    111 CA         37.0660   26.7630   33.9050 C.3       8 GLP5        0.0000 
    112 CA         46.0992   25.1437   39.6483 C.3       4 GLC5        0.0000 
    113 CA         44.8820   25.2910   38.0000 C.3      12 GLL5        0.0000 
    114 CA         46.7530   25.4670   41.5020 C.3       8 GLP5        0.0000 
    115 CA         40.0703   28.1124   38.3724 C.3       4 GLC5        0.0000 
@<TRIPOS>BOND
@<TRIPOS>SUBSTRUCTURE
     1 ALC1       17 GROUP        1 X    ALC  0     ROOT ALC X 1
     2 SEC2        4 GROUP        1 X    SEC  0     **** SEC X 2
     3 LYC4        1 GROUP        1 X    LYC  0     **** LYC X 4
     4 GLC5       11 GROUP        1 X    GLC  0     **** GLC X 6
     5 ALP1       19 GROUP        1 Y    ALP  0     ROOT ALP Y 8
     6 SEP2        6 GROUP        1 Y    SEP  0     **** SEP Y 9
     7 LYP4        3 GROUP        1 Y    LYP  0     **** LYP Y 11
     8 GLP5       13 GROUP        1 Y    GLP  0     **** GLP Y 13
     9 ALL1       18 GROUP        1 Z    ALL  0     ROOT ALL Z 15
    10 SEL2        5 GROUP        1 Z    SEL  0     **** SEL Z 16
    11 LYL4        2 GROUP        1 Z    LYL  0     **** LYL Z 18
    12 GLL5       12 GROUP        1 Z    GLL  0     **** GLL Z 20
@<TRIPOS>SET

