#    Name: 2c4c_FAD_1_ligand
#    Modification time : Mon Mar 24 22:34:44 2014

@<TRIPOS>MOLECULE
2c4c_FAD_1_ligand
   84    89     1     0     0
SMALL
NO_CHARGES


@<TRIPOS>ATOM
      1 PA         48.8080   27.5240   36.9600 P.3       1 FAD600      0.0000 
      2 O1A        48.0160   27.8510   38.1990 O.co2     1 FAD600      0.0000 
      3 O2A        48.5010   28.4780   35.8300 O.co2     1 FAD600      0.0000 
      4 O5B        50.3730   27.5230   37.3270 O.3       1 FAD600      0.0000 
      5 C5B        51.3510   27.9220   36.3950 C.3       1 FAD600      0.0000 
      6 C4B        52.3920   28.7530   37.1320 C.3       1 FAD600      0.0000 
      7 O4B        53.6920   28.5170   36.6360 O.3       1 FAD600      0.0000 
      8 C3B        52.1000   30.2330   37.0120 C.3       1 FAD600      0.0000 
      9 O3B        51.9870   30.6820   38.3380 O.3       1 FAD600      0.0000 
     10 C2B        53.3160   30.8720   36.3670 C.3       1 FAD600      0.0000 
     11 O2B        53.8550   31.9440   37.1040 O.3       1 FAD600      0.0000 
     12 C1B        54.3120   29.7300   36.2420 C.3       1 FAD600      0.0000 
     13 N9A        55.0770   29.6750   34.9840 N.pl3     1 FAD600      0.0000 
     14 C8A        54.6420   29.6420   33.6880 C.2       1 FAD600      0.0000 
     15 N7A        55.7340   29.5850   32.8850 N.2       1 FAD600      0.0000 
     16 C5A        56.8460   29.5790   33.6570 C.ar      1 FAD600      0.0000 
     17 C6A        58.2080   29.5400   33.3720 C.ar      1 FAD600      0.0000 
     18 N6A        58.6360   29.4910   32.1150 N.pl3     1 FAD600      0.0000 
     19 N1A        59.1220   29.5540   34.4070 N.ar      1 FAD600      0.0000 
     20 C2A        58.6930   29.6040   35.7180 C.ar      1 FAD600      0.0000 
     21 N3A        57.3380   29.6480   35.9900 N.ar      1 FAD600      0.0000 
     22 C4A        56.4390   29.6350   34.9780 C.ar      1 FAD600      0.0000 
     23 N1         39.5410   24.1350   38.2740 N.2       1 FAD600      0.0000 
     24 C2         38.6950   23.4870   39.1560 C.2       1 FAD600      0.0000 
     25 O2         39.0520   22.4370   39.6880 O.2       1 FAD600      0.0000 
     26 N3         37.4490   24.0130   39.4450 N.am      1 FAD600      0.0000 
     27 C4         37.0380   25.1910   38.8530 C.2       1 FAD600      0.0000 
     28 O4         35.9230   25.6410   39.1230 O.2       1 FAD600      0.0000 
     29 C4X        37.8890   25.8500   37.9590 C.2       1 FAD600      0.0000 
     30 N5         37.5120   27.0340   37.3480 N.2       1 FAD600      0.0000 
     31 C5X        38.5110   27.8980   36.9520 C.ar      1 FAD600      0.0000 
     32 C6         38.2680   29.2670   36.8430 C.ar      1 FAD600      0.0000 
     33 C7         39.2950   30.1300   36.4520 C.ar      1 FAD600      0.0000 
     34 C7M        39.0090   31.5980   36.3370 C.3       1 FAD600      0.0000 
     35 C8         40.5680   29.6170   36.1700 C.ar      1 FAD600      0.0000 
     36 C8M        41.7160   30.4950   35.7470 C.3       1 FAD600      0.0000 
     37 C9         40.7910   28.2490   36.2800 C.ar      1 FAD600      0.0000 
     38 C9A        39.7740   27.3750   36.6720 C.ar      1 FAD600      0.0000 
     39 N10        39.9930   26.0020   36.7990 N.pl3     1 FAD600      0.0000 
     40 C10        39.1500   25.3170   37.6700 C.2       1 FAD600      0.0000 
     41 C1'        41.3530   25.4290   36.4570 C.3       1 FAD600      0.0000 
     42 C2'        42.4660   25.7090   37.4730 C.3       1 FAD600      0.0000 
     43 O2'        42.4590   27.0580   37.8740 O.3       1 FAD600      0.0000 
     44 C3'        43.8460   25.4420   36.8880 C.3       1 FAD600      0.0000 
     45 O3'        43.7960   24.2720   36.1090 O.3       1 FAD600      0.0000 
     46 C4'        44.8820   25.2910   38.0000 C.3       1 FAD600      0.0000 
     47 O4'        45.3960   26.5630   38.3410 O.3       1 FAD600      0.0000 
     48 C5'        46.0090   24.3500   37.5890 C.3       1 FAD600      0.0000 
     49 O5'        47.2130   24.6790   38.2410 O.3       1 FAD600      0.0000 
     50 P          48.5900   24.7110   37.4120 P.3       1 FAD600      0.0000 
     51 O1P        49.7490   24.7820   38.3770 O.co2     1 FAD600      0.0000 
     52 O2P        48.7400   23.5250   36.4970 O.co2     1 FAD600      0.0000 
     53 O3P        48.4670   26.0230   36.4850 O.3       1 FAD600      0.0000 
     54 H          50.9360   28.5406   35.5964 H         1 FAD600      0.0000 
     55 H          51.8644   27.0713   35.9416 H         1 FAD600      0.0000 
     56 H          52.3347   28.4962   38.1938 H         1 FAD600      0.0000 
     57 H          51.2535   30.3796   36.4354 H         1 FAD600      0.0000 
     58 H          53.0360   31.1509   35.3567 H         1 FAD600      0.0000 
     59 H          55.0911   29.9682   37.0749 H         1 FAD600      0.0000 
     60 H          53.7282   29.6568   33.4044 H         1 FAD600      0.0000 
     61 H          57.9282   29.4973   31.4086 H         1 FAD600      0.0000 
     62 H          59.6273   29.4523   31.9889 H         1 FAD600      0.0000 
     63 H          59.3749   29.6085   36.4871 H         1 FAD600      0.0000 
     64 H          36.8249   23.5228   40.1055 H         1 FAD600      0.0000 
     65 H          37.3350   29.6418   37.0498 H         1 FAD600      0.0000 
     66 H          41.7312   27.8665   36.0672 H         1 FAD600      0.0000 
     67 H          41.6742   25.8212   35.4686 H         1 FAD600      0.0000 
     68 H          41.2624   24.3290   36.3309 H         1 FAD600      0.0000 
     69 H          42.3344   25.0496   38.3193 H         1 FAD600      0.0000 
     70 H          44.1233   26.3030   36.2891 H         1 FAD600      0.0000 
     71 H          44.3726   24.8412   38.8579 H         1 FAD600      0.0000 
     72 H          46.1036   24.4097   36.4893 H         1 FAD600      0.0000 
     73 H          45.6800   23.3205   37.8212 H         1 FAD600      0.0000 
     74 H          39.8168   32.1123   36.0490 H         1 FAD600      0.0000 
     75 H          38.2889   31.7849   35.6687 H         1 FAD600      0.0000 
     76 H          38.7088   31.9872   37.2079 H         1 FAD600      0.0000 
     77 H          42.5480   29.9651   35.5828 H         1 FAD600      0.0000 
     78 H          41.5129   30.9908   34.9026 H         1 FAD600      0.0000 
     79 H          41.9365   31.1788   36.4426 H         1 FAD600      0.0000 
     80 H          52.8939   30.5440   38.7360 H         1 FAD600      0.0000 
     81 H          54.3819   31.5146   37.8375 H         1 FAD600      0.0000 
     82 H          43.4096   27.2637   38.1064 H         1 FAD600      0.0000 
     83 H          43.8605   24.5884   35.1626 H         1 FAD600      0.0000 
     84 H          46.3664   26.5222   38.1029 H         1 FAD600      0.0000 
@<TRIPOS>BOND
     1    2    1 ar   
     2    3    1 ar   
     3    4    1 1    
     4   53    1 1    
     5    5    4 1    
     6    6    5 1    
     7   54    5 1    
     8   55    5 1    
     9    7    6 1    
    10    8    6 1    
    11   56    6 1    
    12   12    7 1    
    13    9    8 1    
    14   10    8 1    
    15   57    8 1    
    16   80    9 1    
    17   11   10 1    
    18   12   10 1    
    19   58   10 1    
    20   81   11 1    
    21   13   12 1    
    22   59   12 1    
    23   14   13 1    
    24   22   13 1    
    25   15   14 2    
    26   60   14 1    
    27   16   15 1    
    28   17   16 ar   
    29   22   16 ar   
    30   18   17 1    
    31   19   17 ar   
    32   61   18 1    
    33   62   18 1    
    34   20   19 ar   
    35   21   20 ar   
    36   63   20 1    
    37   22   21 ar   
    38   24   23 1    
    39   40   23 2    
    40   25   24 2    
    41   26   24 am   
    42   27   26 am   
    43   64   26 1    
    44   28   27 2    
    45   29   27 1    
    46   30   29 2    
    47   40   29 1    
    48   31   30 1    
    49   32   31 ar   
    50   38   31 ar   
    51   33   32 ar   
    52   65   32 1    
    53   34   33 1    
    54   35   33 ar   
    55   74   34 1    
    56   75   34 1    
    57   76   34 1    
    58   36   35 1    
    59   37   35 ar   
    60   77   36 1    
    61   78   36 1    
    62   79   36 1    
    63   38   37 ar   
    64   66   37 1    
    65   39   38 1    
    66   40   39 1    
    67   41   39 1    
    68   42   41 1    
    69   67   41 1    
    70   68   41 1    
    71   43   42 1    
    72   44   42 1    
    73   69   42 1    
    74   82   43 1    
    75   45   44 1    
    76   46   44 1    
    77   70   44 1    
    78   83   45 1    
    79   47   46 1    
    80   48   46 1    
    81   71   46 1    
    82   84   47 1    
    83   49   48 1    
    84   72   48 1    
    85   73   48 1    
    86   50   49 1    
    87   51   50 ar   
    88   52   50 ar   
    89   53   50 1    
@<TRIPOS>SUBSTRUCTURE
     1 FAD600      1 GROUP   
@<TRIPOS>SET

