#    Name: 2fhn_BNI_2_INTS_M
#    Modification time : Tue Mar 25 12:38:21 2014

@<TRIPOS>MOLECULE
2fhn_BNI_2_INTS_M
   68     0     9     0     0
SMALL
NO_CHARGES


@<TRIPOS>ATOM
      1 CA         19.3925   34.0355   25.2900 C.3       3 GLC5        0.0000 
      2 CA         20.0130   33.8330   27.1010 C.3       9 GLL5        0.0000 
      3 CA         18.7720   34.2380   23.4790 C.3       6 GLP5        0.0000 
      4 CA         22.2720   31.6060   26.0165 C.3       3 GLC5        0.0000 
      5 CA         21.3960   33.3100   26.7180 C.3       9 GLL5        0.0000 
      6 CA         23.1480   29.9020   25.3150 C.3       6 GLP5        0.0000 
      7 CA         21.2025   34.0105   25.0300 C.3       3 GLC5        0.0000 
      8 CA         21.0090   34.7110   23.3420 C.3       6 GLP5        0.0000 
      9 CA         22.4125   36.2765   27.7060 C.3       3 GLC5        0.0000 
     10 CA         22.4360   34.4230   26.8060 C.3       9 GLL5        0.0000 
     11 CA         22.3890   38.1300   28.6060 C.3       6 GLP5        0.0000 
     12 CA         24.1735   32.1215   25.6820 C.3       3 GLC5        0.0000 
     13 CA         23.8370   33.9100   26.5930 C.3       9 GLL5        0.0000 
     14 CA         24.5100   30.3330   24.7710 C.3       6 GLP5        0.0000 
     15 CA         23.6520   36.5915   27.6240 C.3       3 GLC5        0.0000 
     16 CA         24.9150   35.0530   26.6420 C.3       9 GLL5        0.0000 
     17 CA         26.6990   33.1415   27.9540 C.3       3 GLC5        0.0000 
     18 CA         26.3780   34.5490   26.7610 C.3       9 GLL5        0.0000 
     19 CA         27.0200   31.7340   29.1470 C.3       6 GLP5        0.0000 
     20 N          20.7240   32.9870   30.6845 N.am      2 SEC2        0.0000 
     21 N          20.5200   33.7310   29.4630 N.am      8 SEL2        0.0000 
     22 N          20.9280   32.2430   31.9060 N.am      5 SEP2        0.0000 
     23 N          29.5495   32.9615   23.5095 N.am      2 SEC2        0.0000 
     24 N          28.2140   32.9550   24.2390 N.am      8 SEL2        0.0000 
     25 N          30.8850   32.9680   22.7800 N.am      5 SEP2        0.0000 
     26 N          28.3550   31.6050   24.3620 N.am      2 SEC2        0.0000 
     27 N          28.4960   30.2550   24.4850 N.am      5 SEP2        0.0000 
     28 N          28.1825   33.1835   22.9130 N.am      2 SEC2        0.0000 
     29 N          28.1510   33.4120   21.5870 N.am      5 SEP2        0.0000 
     30 O          29.2160   35.6080   24.6505 O.2       1 ALC1        0.0000 
     31 O          28.0750   35.0240   25.2030 O.2       7 ALL1        0.0000 
     32 O          30.3570   36.1920   24.0980 O.2       4 ALP1        0.0000 
     33 O          25.9815   32.1605   25.8685 O.2       1 ALC1        0.0000 
     34 O          26.6930   33.4500   25.8650 O.2       7 ALL1        0.0000 
     35 O          25.2700   30.8710   25.8720 O.2       4 ALP1        0.0000 
     36 O          18.3470   35.9720   27.7385 O.2       1 ALC1        0.0000 
     37 O          19.2820   35.4680   28.7960 O.2       7 ALL1        0.0000 
     38 O          17.4120   36.4760   26.6810 O.2       4 ALP1        0.0000 
     39 CA         16.9290   39.3045   30.9550 C.3       3 GLC5        0.0000 
     40 CA         17.3990   37.3760   31.3810 C.3       9 GLL5        0.0000 
     41 CA         16.4590   41.2330   30.5290 C.3       6 GLP5        0.0000 
     42 CA         20.9848   31.9528   28.2353 C.3       3 GLC5        0.0000 
     43 CA         21.2650   30.3340   29.5610 C.3       6 GLP5        0.0000 
     44 CA         19.9648   31.8968   26.3768 C.3       3 GLC5        0.0000 
     45 CA         19.2250   30.2220   25.8440 C.3       6 GLP5        0.0000 
     46 CA         22.7503   34.3382   24.9213 C.3       3 GLC5        0.0000 
     47 CA         22.3640   34.5100   23.1430 C.3       6 GLP5        0.0000 
     48 CA         23.6363   35.0292   24.5065 C.3       3 GLC5        0.0000 
     49 CA         24.9020   36.0440   25.0980 C.3       9 GLL5        0.0000 
     50 CA         24.8978   37.6893   24.1435 C.3       3 GLC5        0.0000 
     51 CA         24.1170   38.9430   22.8970 C.3       6 GLP5        0.0000 
     52 CA         26.3708   36.5498   23.5215 C.3       3 GLC5        0.0000 
     53 CA         27.0630   36.6640   21.6530 C.3       6 GLP5        0.0000 
     54 CA         27.6665   37.7180   26.2660 C.3       3 GLC5        0.0000 
     55 CA         26.4550   36.8270   25.6820 C.3       9 GLL5        0.0000 
     56 CA         28.4600   39.1880   26.5800 C.3       6 GLP5        0.0000 
     57 CA         28.6008   34.4575   27.1573 C.3       3 GLC5        0.0000 
     58 CA         27.2910   35.6690   26.2220 C.3       9 GLL5        0.0000 
     59 CA         30.3670   33.8060   27.8230 C.3       6 GLP5        0.0000 
     60 CA         19.3518   34.8125   31.8252 C.3       3 GLC5        0.0000 
     61 CA         20.0100   36.2120   31.0160 C.3       9 GLL5        0.0000 
     62 CA         19.2060   33.4600   33.1610 C.3       6 GLP5        0.0000 
     63 CA         17.6292   37.0960   28.4058 C.3       3 GLC5        0.0000 
     64 CA         18.9850   36.1180   29.9630 C.3       9 GLL5        0.0000 
     65 CA         16.9170   37.7830   26.7570 C.3       6 GLP5        0.0000 
     66 CA         20.9432   37.1475   29.5478 C.3       3 GLC5        0.0000 
     67 CA         19.1340   35.3163   32.7452 C.3       3 GLC5        0.0000 
     68 CA         19.7100   36.8810   32.2340 C.3       9 GLL5        0.0000 
@<TRIPOS>BOND
@<TRIPOS>SUBSTRUCTURE
     1 ALC1       30 GROUP        1 X    ALC  0     ROOT ALC X 1
     2 SEC2       20 GROUP        1 X    SEC  0     **** SEC X 2
     3 GLC5        1 GROUP        1 X    GLC  0     **** GLC X 6
     4 ALP1       32 GROUP        1 Y    ALP  0     ROOT ALP Y 8
     5 SEP2       22 GROUP        1 Y    SEP  0     **** SEP Y 9
     6 GLP5        3 GROUP        1 Y    GLP  0     **** GLP Y 13
     7 ALL1       31 GROUP        1 Z    ALL  0     ROOT ALL Z 15
     8 SEL2       21 GROUP        1 Z    SEL  0     **** SEL Z 16
     9 GLL5        2 GROUP        1 Z    GLL  0     **** GLL Z 20
@<TRIPOS>SET

