#    Name: 2fhn_BNI_2_ligand
#    Modification time : Tue Mar 25 12:38:21 2014

@<TRIPOS>MOLECULE
2fhn_BNI_2_ligand
   45    47     1     0     0
SMALL
NO_CHARGES


@<TRIPOS>ATOM
      1 C1         19.9360   34.3340   28.5480 C.2       1 BNI502      0.0000 
      2 C10        20.0130   33.8330   27.1010 C.3       1 BNI502      0.0000 
      3 C9         21.3960   33.3100   26.7180 C.3       1 BNI502      0.0000 
      4 C8         22.4360   34.4230   26.8060 C.3       1 BNI502      0.0000 
      5 C7         23.8370   33.9100   26.5930 C.3       1 BNI502      0.0000 
      6 C2         24.9150   35.0530   26.6420 C.3       1 BNI502      0.0000 
      7 C6         26.4550   36.8270   25.6820 C.3       1 BNI502      0.0000 
      8 C4         26.3780   34.5490   26.7610 C.3       1 BNI502      0.0000 
      9 C5         27.2910   35.6690   26.2220 C.3       1 BNI502      0.0000 
     10 C3         27.7350   33.7320   25.0870 C.2       1 BNI502      0.0000 
     11 O2         20.5200   33.7310   29.4630 O.2       1 BNI502      0.0000 
     12 O3         28.2140   32.9550   24.2390 O.2       1 BNI502      0.0000 
     13 N1         28.0750   35.0240   25.2030 N.am      1 BNI502      0.0000 
     14 N2         26.6930   33.4500   25.8650 N.am      1 BNI502      0.0000 
     15 S1         24.9020   36.0440   25.0980 S.3       1 BNI502      0.0000 
     16 N17        19.2820   35.4680   28.7960 N.am      1 BNI502      0.0000 
     17 C18        18.9850   36.1180   29.9630 C.ar      1 BNI502      0.0000 
     18 C20        17.6980   36.7000   30.1460 C.ar      1 BNI502      0.0000 
     19 C21        17.3990   37.3760   31.3810 C.ar      1 BNI502      0.0000 
     20 C22        18.4140   37.4640   32.4250 C.ar      1 BNI502      0.0000 
     21 C23        19.7100   36.8810   32.2340 C.ar      1 BNI502      0.0000 
     22 C24        20.0100   36.2120   31.0160 C.ar      1 BNI502      0.0000 
     23 N25        18.0770   38.1780   33.7090 N.pl3     1 BNI502      0.0000 
     24 O26        17.0010   38.6740   33.8860 O.2       1 BNI502      0.0000 
     25 O27        18.8770   38.2570   34.5920 O.2       1 BNI502      0.0000 
     26 H          19.7397   34.6549   26.4254 H         1 BNI502      0.0000 
     27 H          19.2746   33.0316   26.9627 H         1 BNI502      0.0000 
     28 H          21.3652   32.9256   25.7003 H         1 BNI502      0.0000 
     29 H          21.6742   32.5030   27.3932 H         1 BNI502      0.0000 
     30 H          22.3643   34.8976   27.7924 H         1 BNI502      0.0000 
     31 H          22.2046   35.1845   26.0511 H         1 BNI502      0.0000 
     32 H          23.9168   33.4191   25.6180 H         1 BNI502      0.0000 
     33 H          24.0938   33.1773   27.3645 H         1 BNI502      0.0000 
     34 H          24.7061   35.7827   27.3699 H         1 BNI502      0.0000 
     35 H          26.8251   37.2490   24.8084 H         1 BNI502      0.0000 
     36 H          26.1066   37.4780   26.4120 H         1 BNI502      0.0000 
     37 H          26.6356   34.3624   27.7476 H         1 BNI502      0.0000 
     38 H          27.9019   36.0004   27.0311 H         1 BNI502      0.0000 
     39 H          28.7451   35.5045   24.6982 H         1 BNI502      0.0000 
     40 H          26.1659   32.6325   25.8819 H         1 BNI502      0.0000 
     41 H          18.8967   36.0002   27.8816 H         1 BNI502      0.0000 
     42 H          16.9978   36.6426   29.4207 H         1 BNI502      0.0000 
     43 H          16.4929   37.7904   31.5324 H         1 BNI502      0.0000 
     44 H          20.4062   36.9485   32.9682 H         1 BNI502      0.0000 
     45 H          20.9134   35.7966   30.8523 H         1 BNI502      0.0000 
@<TRIPOS>BOND
     1    2    1 1    
     2   11    1 2    
     3   16    1 am   
     4    3    2 1    
     5   26    2 1    
     6   27    2 1    
     7    4    3 1    
     8   28    3 1    
     9   29    3 1    
    10    5    4 1    
    11   30    4 1    
    12   31    4 1    
    13    6    5 1    
    14   32    5 1    
    15   33    5 1    
    16    8    6 1    
    17   15    6 1    
    18   34    6 1    
    19    9    7 1    
    20   15    7 1    
    21   35    7 1    
    22   36    7 1    
    23    9    8 1    
    24   14    8 1    
    25   37    8 1    
    26   13    9 1    
    27   38    9 1    
    28   12   10 2    
    29   13   10 am   
    30   14   10 am   
    31   39   13 1    
    32   40   14 1    
    33   17   16 1    
    34   41   16 1    
    35   18   17 ar   
    36   22   17 ar   
    37   19   18 ar   
    38   42   18 1    
    39   20   19 ar   
    40   43   19 1    
    41   21   20 ar   
    42   23   20 1    
    43   22   21 ar   
    44   44   21 1    
    45   45   22 1    
    46   24   23 2    
    47   25   23 2    
@<TRIPOS>SUBSTRUCTURE
     1 BNI502      1 GROUP   
@<TRIPOS>SET

