#    Name: 2DVN_2_CAVITY_N1_ALL.mol2
#    Modification time : Tue Mar 11 09:22:57 2014

@<TRIPOS>MOLECULE
2DVN_2_CAVITY_N1_ALL.mol2
  160     0     7     0     0
SMALL
NO_CHARGES


@<TRIPOS>ATOM
      1 CA         15.6456   56.9489   78.1767 C.3       6 GLY6        0.0000 
      2 CZ         16.5289   55.0322   77.9624 C.ar      5 PHE5        0.0000 
      3 CZ         15.5277   55.6399   78.8996 C.ar      5 PHE5        0.0000 
      4 CZ         14.5265   56.2476   79.8368 C.ar      5 PHE5        0.0000 
      5 CZ         16.4109   53.7231   78.6853 C.ar      5 PHE5        0.0000 
      6 CZ         15.4098   54.3309   79.6225 C.ar      5 PHE5        0.0000 
      7 CZ         17.7576   56.7500   78.1610 C.ar      5 PHE5        0.0000 
      8 CZ         16.7564   57.3577   79.0982 C.ar      5 PHE5        0.0000 
      9 DU         17.6396   55.4410   78.8839 H         7 CUB7        0.0000 
     10 CA         16.6385   56.0487   79.8211 C.3       6 GLY6        0.0000 
     11 CA         15.6373   56.6564   80.7583 C.3       6 GLY6        0.0000 
     12 OG         17.5217   54.1319   79.6068 O.2       1 SER1        0.0000 
     13 CA         16.5205   54.7397   80.5440 C.3       6 GLY6        0.0000 
     14 CA         15.5194   55.3474   81.4811 C.3       6 GLY6        0.0000 
     15 CA         18.4049   52.2152   79.3924 C.3       6 GLY6        0.0000 
     16 CZ         19.8695   56.5511   78.1453 C.ar      5 PHE5        0.0000 
     17 CZ         18.8683   57.1588   79.0825 C.ar      5 PHE5        0.0000 
     18 O          15.8648   58.9820   81.8941 O.2       2 ALA2        0.0000 
     19 DU         19.7515   55.2420   78.8682 H         7 CUB7        0.0000 
     20 CZ         18.7504   55.8498   79.8054 C.ar      5 PHE5        0.0000 
     21 CZ         17.7492   56.4575   80.7426 C.ar      5 PHE5        0.0000 
     22 CZ         16.7480   57.0652   81.6798 C.ar      5 PHE5        0.0000 
     23 CZ         15.7469   57.6729   82.6170 C.ar      5 PHE5        0.0000 
     24 OG         19.6336   53.9330   79.5911 O.2       1 SER1        0.0000 
     25 OG         18.6324   54.5407   80.5282 O.2       1 SER1        0.0000 
     26 OG         17.6313   55.1484   81.4654 O.2       1 SER1        0.0000 
     27 CZ         16.6301   55.7562   82.4026 C.ar      5 PHE5        0.0000 
     28 CZ         15.6289   56.3639   83.3398 C.ar      5 PHE5        0.0000 
     29 CA         19.6855   66.0295   76.6040 C.3       6 GLY6        0.0000 
     30 CA         18.6843   66.6372   77.5412 C.3       6 GLY6        0.0000 
     31 CZ         19.5675   64.7204   77.3269 C.ar      5 PHE5        0.0000 
     32 CZ         17.0935   60.6998   82.0927 C.ar      5 PHE5        0.0000 
     33 NZ         16.0923   61.3075   83.0299 N.2       4 LYS4        0.0000 
     34 O          20.9802   56.9598   79.0668 O.2       2 ALA2        0.0000 
     35 CZ         19.9790   57.5676   80.0040 C.ar      5 PHE5        0.0000 
     36 CZ         16.9755   59.3908   82.8156 C.ar      5 PHE5        0.0000 
     37 CZ         15.9744   59.9985   83.7528 C.ar      5 PHE5        0.0000 
     38 O          21.8634   55.0431   78.8525 O.2       2 ALA2        0.0000 
     39 O          20.8623   55.6508   79.7897 O.2       2 ALA2        0.0000 
     40 CZ         19.8611   56.2585   80.7269 C.ar      5 PHE5        0.0000 
     41 CZ         18.8599   56.8663   81.6641 C.ar      5 PHE5        0.0000 
     42 CZ         17.8588   57.4740   82.6013 C.ar      5 PHE5        0.0000 
     43 CZ         16.8576   58.0817   83.5384 C.ar      5 PHE5        0.0000 
     44 CZ         15.8564   58.6894   84.4756 C.ar      5 PHE5        0.0000 
     45 OG         20.7443   54.3418   80.5125 O.2       1 SER1        0.0000 
     46 OG         19.7432   54.9495   81.4497 O.2       1 SER1        0.0000 
     47 OG         18.7420   55.5572   82.3869 O.2       1 SER1        0.0000 
     48 CA         17.7408   56.1650   83.3241 C.3       6 GLY6        0.0000 
     49 CA         16.7397   56.7727   84.2613 C.3       6 GLY6        0.0000 
     50 CZ         15.7385   57.3804   85.1985 C.ar      5 PHE5        0.0000 
     51 CA         17.6229   54.8559   84.0470 C.3       6 GLY6        0.0000 
     52 O          23.7997   64.6151   74.7139 O.2       2 ALA2        0.0000 
     53 DU         22.7985   65.2228   75.6511 H         7 CUB7        0.0000 
     54 DU         21.7974   65.8305   76.5883 H         7 CUB7        0.0000 
     55 DU         20.7962   66.4383   77.5255 H         7 CUB7        0.0000 
     56 CA         19.7950   67.0460   78.4627 C.3       6 GLY6        0.0000 
     57 CA         23.6818   63.3061   75.4368 C.3       6 GLY6        0.0000 
     58 DU         22.6806   63.9138   76.3740 H         7 CUB7        0.0000 
     59 CZ         21.6794   64.5215   77.3112 C.ar      5 PHE5        0.0000 
     60 OD1        20.6783   65.1292   78.2484 O.3       3 ASP3        0.0000 
     61 CA         23.5638   61.9970   76.1596 C.3       6 GLY6        0.0000 
     62 CZ         22.5627   62.6048   77.0968 C.ar      5 PHE5        0.0000 
     63 CZ         21.5615   63.2125   78.0340 C.ar      5 PHE5        0.0000 
     64 CA         23.4459   60.6880   76.8825 C.3       6 GLY6        0.0000 
     65 CZ         22.4447   61.2957   77.8197 C.ar      5 PHE5        0.0000 
     66 N          23.3280   59.3790   77.6054 N.2       2 ALA2        0.0000 
     67 CZ         22.3268   59.9867   78.5426 C.ar      5 PHE5        0.0000 
     68 CZ         18.3221   62.4176   82.2913 C.ar      5 PHE5        0.0000 
     69 NZ         17.3210   63.0253   83.2285 N.2       4 LYS4        0.0000 
     70 O          22.2089   58.6777   79.2654 O.2       2 ALA2        0.0000 
     71 CZ         18.2042   61.1086   83.0142 C.ar      5 PHE5        0.0000 
     72 CZ         17.2030   61.7163   83.9514 C.ar      5 PHE5        0.0000 
     73 O          22.0910   57.3686   79.9883 O.2       2 ALA2        0.0000 
     74 CZ         21.0898   57.9764   80.9255 C.ar      5 PHE5        0.0000 
     75 CZ         20.0886   58.5841   81.8627 C.ar      5 PHE5        0.0000 
     76 CZ         19.0875   59.1918   82.7999 C.ar      5 PHE5        0.0000 
     77 CZ         18.0863   59.7995   83.7371 C.ar      5 PHE5        0.0000 
     78 O          21.9730   56.0596   80.7112 O.2       2 ALA2        0.0000 
     79 DU         20.9719   56.6673   81.6484 H         7 CUB7        0.0000 
     80 CZ         19.9707   57.2751   82.5855 C.ar      5 PHE5        0.0000 
     81 OG         18.9695   57.8828   83.5227 O.2       1 SER1        0.0000 
     82 CZ         17.9684   58.4905   84.4599 C.ar      5 PHE5        0.0000 
     83 O          22.8563   54.1428   80.4968 O.2       2 ALA2        0.0000 
     84 O          21.8551   54.7506   81.4340 O.2       2 ALA2        0.0000 
     85 OG         20.8539   55.3583   82.3712 O.2       1 SER1        0.0000 
     86 OG         19.8528   55.9660   83.3084 O.2       1 SER1        0.0000 
     87 OG         18.8516   56.5738   84.2456 O.2       1 SER1        0.0000 
     88 CA         17.8504   57.1815   85.1828 C.3       6 GLY6        0.0000 
     89 O          16.8493   57.7892   86.1200 O.2       2 ALA2        0.0000 
     90 OG         20.7360   54.0493   83.0941 O.2       1 SER1        0.0000 
     91 OG         19.7348   54.6570   84.0313 O.2       1 SER1        0.0000 
     92 N          18.7337   55.2647   84.9685 N.2       2 ALA2        0.0000 
     93 CA         17.7325   55.8724   85.9057 C.3       6 GLY6        0.0000 
     94 OG         21.6192   52.1325   82.8797 O.2       1 SER1        0.0000 
     95 OG         19.6169   53.3480   84.7541 O.2       1 SER1        0.0000 
     96 N          18.6157   53.9557   85.6913 N.2       2 ALA2        0.0000 
     97 OG         20.5001   51.4312   84.5398 O.2       1 SER1        0.0000 
     98 N          19.4990   52.0389   85.4770 N.2       2 ALA2        0.0000 
     99 O          24.9105   65.0239   75.6354 O.2       2 ALA2        0.0000 
    100 DU         23.9093   65.6316   76.5726 H         7 CUB7        0.0000 
    101 DU         22.9081   66.2393   77.5098 H         7 CUB7        0.0000 
    102 DU         21.9070   66.8471   78.4470 H         7 CUB7        0.0000 
    103 CA         20.9058   67.4548   79.3842 C.3       6 GLY6        0.0000 
    104 N          24.7925   63.7148   76.3583 N.2       2 ALA2        0.0000 
    105 N          23.7914   64.3226   77.2955 N.2       2 ALA2        0.0000 
    106 DU         22.7902   64.9303   78.2327 H         7 CUB7        0.0000 
    107 DU         21.7890   65.5380   79.1698 H         7 CUB7        0.0000 
    108 OD1        20.7879   66.1458   80.1070 O.3       3 ASP3        0.0000 
    109 N          23.6734   63.0135   78.0183 N.2       2 ALA2        0.0000 
    110 CZ         22.6723   63.6213   78.9555 C.ar      5 PHE5        0.0000 
    111 CZ         21.6711   64.2290   79.8927 C.ar      5 PHE5        0.0000 
    112 N          23.5555   61.7045   78.7412 N.2       2 ALA2        0.0000 
    113 CZ         22.5543   62.3122   79.6784 C.ar      5 PHE5        0.0000 
    114 CZ         21.5532   62.9200   80.6156 C.ar      5 PHE5        0.0000 
    115 O          23.4376   60.3955   79.4641 O.2       2 ALA2        0.0000 
    116 CZ         22.4364   61.0032   80.4012 C.ar      5 PHE5        0.0000 
    117 CZ         20.4341   62.2187   82.2756 C.ar      5 PHE5        0.0000 
    118 OD1        19.4329   62.8264   83.2128 O.3       3 ASP3        0.0000 
    119 CA         18.4317   63.4341   84.1500 C.3       6 GLY6        0.0000 
    120 O          23.3196   59.0865   80.1869 O.2       2 ALA2        0.0000 
    121 O          22.3185   59.6942   81.1241 O.2       2 ALA2        0.0000 
    122 CZ         21.3173   60.3019   82.0613 C.ar      5 PHE5        0.0000 
    123 CZ         20.3161   60.9096   82.9985 C.ar      5 PHE5        0.0000 
    124 N          19.3150   61.5174   83.9357 N.2       2 ALA2        0.0000 
    125 O          23.2017   57.7774   80.9098 O.2       2 ALA2        0.0000 
    126 O          22.2005   58.3851   81.8470 O.2       2 ALA2        0.0000 
    127 O          20.1982   59.6006   83.7214 O.2       2 ALA2        0.0000 
    128 N          19.1970   60.2083   84.6586 N.2       2 ALA2        0.0000 
    129 O          23.0838   56.4684   81.6326 O.2       2 ALA2        0.0000 
    130 O          22.0826   57.0761   82.5698 O.2       2 ALA2        0.0000 
    131 OG         21.0814   57.6838   83.5070 O.2       1 SER1        0.0000 
    132 OG         19.0791   58.8993   85.3814 O.2       1 SER1        0.0000 
    133 OD1        23.9670   54.5516   81.4183 O.3       3 ASP3        0.0000 
    134 OD1        22.9658   55.1594   82.3555 O.3       3 ASP3        0.0000 
    135 OG         21.9647   55.7671   83.2927 O.2       1 SER1        0.0000 
    136 OG         20.9635   56.3748   84.2299 O.2       1 SER1        0.0000 
    137 OD1        23.8491   53.2426   82.1412 O.3       3 ASP3        0.0000 
    138 OD1        22.8479   53.8503   83.0784 O.3       3 ASP3        0.0000 
    139 NZ         21.8467   54.4581   84.0156 N.2       4 LYS4        0.0000 
    140 N          20.8456   55.0658   84.9528 N.2       2 ALA2        0.0000 
    141 NZ         22.7300   52.5413   83.8012 N.2       4 LYS4        0.0000 
    142 NZ         21.7288   53.1490   84.7384 N.2       4 LYS4        0.0000 
    143 CA         25.0200   66.0404   77.4941 C.3       6 GLY6        0.0000 
    144 N          24.0189   66.6481   78.4313 N.2       2 ALA2        0.0000 
    145 N          23.0177   67.2558   79.3685 N.2       2 ALA2        0.0000 
    146 CA         24.9021   64.7314   78.2169 C.3       6 GLY6        0.0000 
    147 NZ         23.9009   65.3391   79.1541 N.2       4 LYS4        0.0000 
    148 N          22.8998   65.9468   80.0913 N.2       2 ALA2        0.0000 
    149 N          21.8986   66.5545   81.0285 N.2       2 ALA2        0.0000 
    150 N          24.7842   63.4223   78.9398 N.2       2 ALA2        0.0000 
    151 NZ         22.7818   64.6378   80.8142 N.2       4 LYS4        0.0000 
    152 NZ         21.7807   65.2455   81.7514 N.2       4 LYS4        0.0000 
    153 NZ         24.6662   62.1133   79.6627 N.2       4 LYS4        0.0000 
    154 O          21.6627   63.9365   82.4743 O.2       2 ALA2        0.0000 
    155 CA         20.6616   64.5442   83.4114 C.3       6 GLY6        0.0000 
    156 CA         24.5483   60.8043   80.3855 C.3       6 GLY6        0.0000 
    157 O          20.5436   63.2352   84.1343 O.2       2 ALA2        0.0000 
    158 OG         23.0754   56.1759   84.2142 O.2       1 SER1        0.0000 
    159 OD1        23.9587   54.2591   83.9999 O.3       3 ASP3        0.0000 
    160 NZ         22.9575   54.8668   84.9371 N.2       4 LYS4        0.0000 
@<TRIPOS>BOND
@<TRIPOS>SUBSTRUCTURE
     1 SER1       12 GROUP   
     2 ALA2       18 GROUP   
     3 ASP3       60 GROUP   
     4 LYS4       33 GROUP   
     5 PHE5        2 GROUP   
     6 GLY6        1 GROUP   
     7 CUB7        9 GROUP   
@<TRIPOS>SET

