#    Name: 2dvn_IMP_2_INTS_M
#    Modification time : Tue Mar 25 10:23:22 2014

@<TRIPOS>MOLECULE
2dvn_IMP_2_INTS_M
   48     0    12     0     0
SMALL
NO_CHARGES


@<TRIPOS>ATOM
      1 NZ         24.6005   56.4360   83.8795 N.4       3 LYC4        0.0000 
      2 NZ         23.1560   57.0790   84.7410 N.4      11 LYL4        0.0000 
      3 NZ         26.0450   55.7930   83.0180 N.4       7 LYP4        0.0000 
      4 N          24.5330   57.2600   85.1100 N.am      2 SEC2        0.0000 
      5 N          23.1560   57.0790   84.7410 N.am     10 SEL2        0.0000 
      6 N          25.9100   57.4410   85.4790 N.am      6 SEP2        0.0000 
      7 N          22.3505   57.5825   85.4935 N.am      2 SEC2        0.0000 
      8 N          21.5450   58.0860   86.2460 N.am      6 SEP2        0.0000 
      9 N          23.1350   58.5720   84.3180 N.am      2 SEC2        0.0000 
     10 N          23.1140   60.0650   83.8950 N.am      6 SEP2        0.0000 
     11 NZ         24.6665   55.7620   82.8770 N.4       3 LYC4        0.0000 
     12 NZ         23.2880   55.7310   82.7360 N.4      11 LYL4        0.0000 
     13 N          24.6665   55.7620   82.8770 N.am      2 SEC2        0.0000 
     14 N          23.2880   55.7310   82.7360 N.am     10 SEL2        0.0000 
     15 N          26.0450   55.7930   83.0180 N.am      6 SEP2        0.0000 
     16 NZ         24.7610   55.2190   84.0040 N.4       3 LYC4        0.0000 
     17 NZ         23.4770   54.6450   84.9900 N.4      11 LYL4        0.0000 
     18 N          24.7610   55.2190   84.0040 N.am      2 SEC2        0.0000 
     19 N          23.4770   54.6450   84.9900 N.am     10 SEL2        0.0000 
     20 N          23.3140   53.8520   86.0230 N.am      2 SEC2        0.0000 
     21 N          23.1510   53.0590   87.0560 N.am      6 SEP2        0.0000 
     22 N          23.1595   55.3175   86.3975 N.am      2 SEC2        0.0000 
     23 N          22.8420   55.9900   87.8050 N.am      6 SEP2        0.0000 
     24 CA         17.4200   54.8415   84.8705 C.3       4 GLC5        0.0000 
     25 CA         18.9880   55.4840   83.5980 C.3      12 GLL5        0.0000 
     26 CA         15.8520   54.1990   86.1430 C.3       8 GLP5        0.0000 
     27 N          18.5990   53.6150   81.9760 N.am      2 SEC2        0.0000 
     28 N          18.3180   54.7490   81.5830 N.am     10 SEL2        0.0000 
     29 N          18.8800   52.4810   82.3690 N.am      6 SEP2        0.0000 
     30 CA         16.6615   55.6420   85.0940 C.3       4 GLC5        0.0000 
     31 CA         17.4710   57.0850   84.0450 C.3      12 GLL5        0.0000 
     32 N          19.6775   61.1740   85.7650 N.am      2 SEC2        0.0000 
     33 N          19.2430   60.3900   84.5750 N.am     10 SEL2        0.0000 
     34 N          20.1120   61.9580   86.9550 N.am      6 SEP2        0.0000 
     35 N          18.2715   64.0670   82.1515 N.am      2 SEC2        0.0000 
     36 N          18.3590   63.1930   83.4470 N.am     10 SEL2        0.0000 
     37 N          18.1840   64.9410   80.8560 N.am      6 SEP2        0.0000 
     38 O          15.7835   62.9815   82.2230 O.2       1 ALC1        0.0000 
     39 O          16.5330   61.9490   82.4950 O.2       9 ALL1        0.0000 
     40 O          15.0340   64.0140   81.9510 O.2       5 ALP1        0.0000 
     41 CA         18.3738   53.5673   82.5143 C.3       4 GLC5        0.0000 
     42 CA         18.5870   55.8750   82.3510 C.3      12 GLL5        0.0000 
     43 CA         17.9600   51.4550   82.0540 C.3       8 GLP5        0.0000 
     44 CA         18.3398   57.9948   81.2653 C.3       4 GLC5        0.0000 
     45 CA         18.7140   59.7460   80.0740 C.3       8 GLP5        0.0000 
     46 CA         15.2873   57.1352   83.5802 C.3       4 GLC5        0.0000 
     47 CA         17.3440   56.6120   82.5620 C.3      12 GLL5        0.0000 
     48 CA         13.1670   57.4220   83.8570 C.3       8 GLP5        0.0000 
@<TRIPOS>BOND
@<TRIPOS>SUBSTRUCTURE
     1 ALC1       38 GROUP        1 X    ALC  0     ROOT ALC X 1
     2 SEC2        4 GROUP        1 X    SEC  0     **** SEC X 2
     3 LYC4        1 GROUP        1 X    LYC  0     **** LYC X 4
     4 GLC5       24 GROUP        1 X    GLC  0     **** GLC X 6
     5 ALP1       40 GROUP        1 Y    ALP  0     ROOT ALP Y 8
     6 SEP2        6 GROUP        1 Y    SEP  0     **** SEP Y 9
     7 LYP4        3 GROUP        1 Y    LYP  0     **** LYP Y 11
     8 GLP5       26 GROUP        1 Y    GLP  0     **** GLP Y 13
     9 ALL1       39 GROUP        1 Z    ALL  0     ROOT ALL Z 15
    10 SEL2        5 GROUP        1 Z    SEL  0     **** SEL Z 16
    11 LYL4        2 GROUP        1 Z    LYL  0     **** LYL Z 18
    12 GLL5       25 GROUP        1 Z    GLL  0     **** GLL Z 20
@<TRIPOS>SET

