#    Name: 2dvn_IMP_2_ligand
#    Modification time : Tue Mar 25 10:23:22 2014

@<TRIPOS>MOLECULE
2dvn_IMP_2_ligand
   34    36     1     0     0
SMALL
NO_CHARGES


@<TRIPOS>ATOM
      1 P          22.8410   55.7870   84.1450 P.3       1 IMP1302     0.0000 
      2 O1P        23.1560   57.0790   84.7410 O.co2     1 IMP1302     0.0000 
      3 O2P        23.2880   55.7310   82.7360 O.co2     1 IMP1302     0.0000 
      4 O3P        23.4770   54.6450   84.9900 O.co2     1 IMP1302     0.0000 
      5 O5'        21.3700   55.5520   84.1370 O.3       1 IMP1302     0.0000 
      6 C5'        20.1380   54.9750   84.0400 C.3       1 IMP1302     0.0000 
      7 C4'        18.9880   55.4840   83.5980 C.3       1 IMP1302     0.0000 
      8 O4'        18.4280   56.2410   84.7140 O.3       1 IMP1302     0.0000 
      9 C3'        18.5870   55.8750   82.3510 C.3       1 IMP1302     0.0000 
     10 O3'        18.3180   54.7490   81.5830 O.3       1 IMP1302     0.0000 
     11 C2'        17.3440   56.6120   82.5620 C.3       1 IMP1302     0.0000 
     12 O2'        16.2390   55.7850   82.3350 O.3       1 IMP1302     0.0000 
     13 C1'        17.4710   57.0850   84.0450 C.3       1 IMP1302     0.0000 
     14 N9         18.0260   58.5150   84.1240 N.pl3     1 IMP1302     0.0000 
     15 C8         19.1330   59.0320   84.7660 C.2       1 IMP1302     0.0000 
     16 N7         19.2430   60.3900   84.5750 N.2       1 IMP1302     0.0000 
     17 C5         18.1730   60.7200   83.8090 C.2       1 IMP1302     0.0000 
     18 C6         17.7450   62.0000   83.2850 C.2       1 IMP1302     0.0000 
     19 O6         18.3590   63.1930   83.4470 O.2       1 IMP1302     0.0000 
     20 N1         16.5330   61.9490   82.4950 N.am      1 IMP1302     0.0000 
     21 C2         15.8140   60.7540   82.2600 C.2       1 IMP1302     0.0000 
     22 N3         16.2380   59.5540   82.7740 N.2       1 IMP1302     0.0000 
     23 C4         17.3900   59.5970   83.5110 C.2       1 IMP1302     0.0000 
     24 H          19.9169   54.4613   85.1178 H         1 IMP1302     0.0000 
     25 H          20.3036   53.9113   83.4783 H         1 IMP1302     0.0000 
     26 H          18.2204   54.4536   83.7834 H         1 IMP1302     0.0000 
     27 H          19.2969   56.5226   81.8859 H         1 IMP1302     0.0000 
     28 H          17.3598   57.4975   81.9585 H         1 IMP1302     0.0000 
     29 H          16.5235   57.0484   84.5047 H         1 IMP1302     0.0000 
     30 H          19.7593   58.4980   85.2904 H         1 IMP1302     0.0000 
     31 H          16.1867   62.8382   82.0880 H         1 IMP1302     0.0000 
     32 H          14.9522   60.8043   81.6861 H         1 IMP1302     0.0000 
     33 H          17.3329   54.7807   81.4136 H         1 IMP1302     0.0000 
     34 H          15.9895   55.4333   83.2372 H         1 IMP1302     0.0000 
@<TRIPOS>BOND
     1    2    1 ar   
     2    3    1 ar   
     3    4    1 ar   
     4    5    1 1    
     5    6    5 1    
     6    7    6 1    
     7   24    6 1    
     8   25    6 1    
     9    8    7 1    
    10    9    7 1    
    11   26    7 1    
    12   13    8 1    
    13   10    9 1    
    14   11    9 1    
    15   27    9 1    
    16   33   10 1    
    17   12   11 1    
    18   13   11 1    
    19   28   11 1    
    20   34   12 1    
    21   14   13 1    
    22   29   13 1    
    23   15   14 1    
    24   23   14 1    
    25   16   15 2    
    26   30   15 1    
    27   17   16 1    
    28   18   17 1    
    29   23   17 2    
    30   19   18 2    
    31   20   18 am   
    32   21   20 1    
    33   31   20 1    
    34   22   21 2    
    35   32   21 1    
    36   23   22 1    
@<TRIPOS>SUBSTRUCTURE
     1 IMP1302     1 GROUP   
@<TRIPOS>SET

