#    Name: 2wzm_NA7_1_INTS_M
#    Modification time : Tue Mar 25 04:49:40 2014

@<TRIPOS>MOLECULE
2wzm_NA7_1_INTS_M
   96     0    12     0     0
SMALL
NO_CHARGES


@<TRIPOS>ATOM
      1 N          10.3255   44.0480   -1.1015 N.am      2 SEC2        0.0000 
      2 N           8.9740   44.1490   -1.9760 N.am     10 SEL2        0.0000 
      3 N          11.6770   43.9470   -0.2270 N.am      6 SEP2        0.0000 
      4 N           8.5720   44.5260   -0.5175 N.am      2 SEC2        0.0000 
      5 N           8.1700   44.9030    0.9410 N.am      6 SEP2        0.0000 
      6 NZ         11.9860   45.4450   -2.1295 N.4       3 LYC4        0.0000 
      7 NZ         11.0320   45.2990   -3.0320 N.4      11 LYL4        0.0000 
      8 NZ         12.7310   44.7630   -0.2040 N.4       7 LYP4        0.0000 
      9 N          11.9860   45.4450   -2.1295 N.am      2 SEC2        0.0000 
     10 N          11.0320   45.2990   -3.0320 N.am     10 SEL2        0.0000 
     11 N          12.9400   45.5910   -1.2270 N.am      6 SEP2        0.0000 
     12 N          11.3545   44.6230   -1.6295 N.am      2 SEC2        0.0000 
     13 CA          7.0855   43.2950   -4.0325 C.3       4 GLC5        0.0000 
     14 CA          8.4280   43.5650   -5.1570 C.3      12 GLL5        0.0000 
     15 CA          5.7430   43.0250   -2.9080 C.3       8 GLP5        0.0000 
     16 CA          8.0050   43.7670   -9.4065 C.3       4 GLC5        0.0000 
     17 CA          9.8910   43.5710   -8.3410 C.3      12 GLL5        0.0000 
     18 CA          6.1190   43.9630  -10.4720 C.3       8 GLP5        0.0000 
     19 N          11.2505   48.4710   -9.2420 N.am      2 SEC2        0.0000 
     20 N          10.7110   46.9780   -9.4610 N.am     10 SEL2        0.0000 
     21 N          11.7900   49.9640   -9.0230 N.am      6 SEP2        0.0000 
     22 O          11.2550   49.1480  -13.1250 O.2       1 ALC1        0.0000 
     23 O          10.3730   48.1730  -12.2560 O.2       9 ALL1        0.0000 
     24 O          12.1370   50.1230  -13.9940 O.2       5 ALP1        0.0000 
     25 O          10.4570   49.3555  -11.5380 O.2       1 ALC1        0.0000 
     26 O          10.5410   50.5380  -10.8200 O.2       5 ALP1        0.0000 
     27 CA          7.6580   44.3640  -11.4890 C.3       4 GLC5        0.0000 
     28 CA          9.1970   44.7650  -12.5060 C.3      12 GLL5        0.0000 
     29 CA         11.0135   44.6855  -12.6900 C.3       4 GLC5        0.0000 
     30 CA         12.8300   44.6060  -12.8740 C.3       8 GLP5        0.0000 
     31 CA          8.0030   44.5350  -10.3860 C.3       4 GLC5        0.0000 
     32 CA          9.8870   45.1070  -10.3000 C.3      12 GLL5        0.0000 
     33 NZ          6.2860   45.9385   -0.8010 N.4       3 LYC4        0.0000 
     34 NZ          6.4680   46.0340   -2.2240 N.4      11 LYL4        0.0000 
     35 NZ          7.0190   45.3390    1.4460 N.4       7 LYP4        0.0000 
     36 N           5.6225   45.0860   -2.4830 N.am      2 SEC2        0.0000 
     37 N           6.4680   46.0340   -2.2240 N.am     10 SEL2        0.0000 
     38 N           4.7770   44.1380   -2.7420 N.am      6 SEP2        0.0000 
     39 N           6.2860   45.9385   -0.8010 N.am      2 SEC2        0.0000 
     40 N           6.1040   45.8430    0.6220 N.am      6 SEP2        0.0000 
     41 N           5.8485   48.4295   -4.1505 N.am      2 SEC2        0.0000 
     42 N           7.2030   48.1370   -3.6250 N.am     10 SEL2        0.0000 
     43 N           4.4940   48.7220   -4.6760 N.am      6 SEP2        0.0000 
     44 N           7.1835   46.6335   -0.4165 N.am      2 SEC2        0.0000 
     45 N           8.2630   47.4240   -1.4550 N.am     10 SEL2        0.0000 
     46 N           8.2165   46.1635   -0.2570 N.am      2 SEC2        0.0000 
     47 CA          7.9390   49.5375   -2.0810 C.3       4 GLC5        0.0000 
     48 CA          9.5050   48.0680   -1.5360 C.3      12 GLL5        0.0000 
     49 CA          6.3730   51.0070   -2.6260 C.3       8 GLP5        0.0000 
     50 N           7.6850   50.4760    0.0540 N.am      2 SEC2        0.0000 
     51 N           9.1350   50.5970   -0.0750 N.am     10 SEL2        0.0000 
     52 N           6.2350   50.3550    0.1830 N.am      6 SEP2        0.0000 
     53 O           9.0085   51.6540   -0.9125 O.2       1 ALC1        0.0000 
     54 O           9.1350   50.5970   -0.0750 O.2       9 ALL1        0.0000 
     55 O           8.8820   52.7110   -1.7500 O.2       5 ALP1        0.0000 
     56 CA         12.7600   50.6710    0.9315 C.3       4 GLC5        0.0000 
     57 CA         11.0080   49.6250    1.3810 C.3      12 GLL5        0.0000 
     58 CA         14.5120   51.7170    0.4820 C.3       8 GLP5        0.0000 
     59 CA         12.8285   47.5420    2.6525 C.3       4 GLC5        0.0000 
     60 CA         11.3600   48.1440    1.5530 C.3      12 GLL5        0.0000 
     61 CA         14.2970   46.9400    3.7520 C.3       8 GLP5        0.0000 
     62 CA         12.7140   47.3355    0.1325 C.3       4 GLC5        0.0000 
     63 CA         14.0680   46.5270   -1.2880 C.3       8 GLP5        0.0000 
     64 N          15.0790   44.1380   -6.8000 N.am      2 SEC2        0.0000 
     65 N          13.9560   43.2910   -7.0040 N.am     10 SEL2        0.0000 
     66 N          16.2020   44.9850   -6.5960 N.am      6 SEP2        0.0000 
     67 NZ         14.4905   41.7365  -10.2780 N.4       3 LYC4        0.0000 
     68 NZ         14.1160   41.6880   -8.9600 N.4      11 LYL4        0.0000 
     69 NZ         14.3080   42.6230  -12.4760 N.4       7 LYP4        0.0000 
     70 N          14.4905   41.7365  -10.2780 N.am      2 SEC2        0.0000 
     71 N          14.1160   41.6880   -8.9600 N.am     10 SEL2        0.0000 
     72 N          14.8650   41.7850  -11.5960 N.am      6 SEP2        0.0000 
     73 NZ         13.4020   43.8340  -10.6630 N.4       3 LYC4        0.0000 
     74 NZ         13.2610   44.0410   -9.2950 N.4      11 LYL4        0.0000 
     75 N          14.0390   45.0305   -9.1230 N.am      2 SEC2        0.0000 
     76 N          13.2610   44.0410   -9.2950 N.am     10 SEL2        0.0000 
     77 N          14.8170   46.0200   -8.9510 N.am      6 SEP2        0.0000 
     78 N          13.4020   43.8340  -10.6630 N.am      2 SEC2        0.0000 
     79 N          13.5430   43.6270  -12.0310 N.am      6 SEP2        0.0000 
     80 CA          6.9508   43.0220   -6.2275 C.3       4 GLC5        0.0000 
     81 CA          8.7870   42.7870   -6.4230 C.3      12 GLL5        0.0000 
     82 CA          5.2940   42.8680   -6.6650 C.3       8 GLP5        0.0000 
     83 CA          8.7515   46.6810   -9.1758 C.3       4 GLC5        0.0000 
     84 CA          7.4430   47.6000   -7.9010 C.3       8 GLP5        0.0000 
     85 CA          8.4915   47.8342  -11.6318 C.3       4 GLC5        0.0000 
     86 CA         10.2330   46.4170  -10.6010 C.3      12 GLL5        0.0000 
     87 CA          6.8460   49.0130  -12.0130 C.3       8 GLP5        0.0000 
     88 CA         11.4210   45.2436  -11.8246 C.3       4 GLC5        0.0000 
     89 CA         10.0410   46.8940  -11.9000 C.3      12 GLL5        0.0000 
     90 CA          7.5988   48.6800   -0.6023 C.3       4 GLC5        0.0000 
     91 CA          5.5830   49.1830   -0.4020 C.3       8 GLP5        0.0000 
     92 CA         11.0690   51.6670    0.5010 C.3       4 GLC5        0.0000 
     93 CA         10.2520   49.6890    0.0490 C.3      12 GLL5        0.0000 
     94 CA         11.5080   53.6770    0.2870 C.3       8 GLP5        0.0000 
     95 CA         11.3901   48.5475   -1.5799 C.3       4 GLC5        0.0000 
     96 CA         12.8470   48.1620   -2.7830 C.3       8 GLP5        0.0000 
@<TRIPOS>BOND
@<TRIPOS>SUBSTRUCTURE
     1 ALC1       22 GROUP        1 X    ALC  0     ROOT ALC X 1
     2 SEC2        1 GROUP        1 X    SEC  0     **** SEC X 2
     3 LYC4        6 GROUP        1 X    LYC  0     **** LYC X 4
     4 GLC5       13 GROUP        1 X    GLC  0     **** GLC X 6
     5 ALP1       24 GROUP        1 Y    ALP  0     ROOT ALP Y 8
     6 SEP2        3 GROUP        1 Y    SEP  0     **** SEP Y 9
     7 LYP4        8 GROUP        1 Y    LYP  0     **** LYP Y 11
     8 GLP5       15 GROUP        1 Y    GLP  0     **** GLP Y 13
     9 ALL1       23 GROUP        1 Z    ALL  0     ROOT ALL Z 15
    10 SEL2        2 GROUP        1 Z    SEL  0     **** SEL Z 16
    11 LYL4        7 GROUP        1 Z    LYL  0     **** LYL Z 18
    12 GLL5       14 GROUP        1 Z    GLL  0     **** GLL Z 20
@<TRIPOS>SET

