#    Name: 2wzm_NA7_1_ligand
#    Modification time : Tue Mar 25 04:49:40 2014

@<TRIPOS>MOLECULE
2wzm_NA7_1_ligand
   59    62     1     0     0
SMALL
NO_CHARGES


@<TRIPOS>ATOM
      1 PA          9.5840   44.9010   -3.1550 P.3       1 NA71284     0.0000 
      2 O1A         8.9740   44.1490   -1.9760 O.co2     1 NA71284     0.0000 
      3 O2A        11.0320   45.2990   -3.0320 O.co2     1 NA71284     0.0000 
      4 O5B         9.5900   44.0650   -4.5390 O.3       1 NA71284     0.0000 
      5 C5B         8.4280   43.5650   -5.1570 C.3       1 NA71284     0.0000 
      6 C4B         8.7870   42.7870   -6.4230 C.3       1 NA71284     0.0000 
      7 O4B         8.6950   43.6460   -7.5730 O.3       1 NA71284     0.0000 
      8 C3B        10.1880   42.1990   -6.4140 C.3       1 NA71284     0.0000 
      9 O3B        10.0800   40.8420   -6.8660 O.3       1 NA71284     0.0000 
     10 C2B        10.9760   43.0740   -7.3900 C.3       1 NA71284     0.0000 
     11 O2B        11.9330   42.3150   -8.1080 O.3       1 NA71284     0.0000 
     12 C1B         9.8910   43.5710   -8.3410 C.3       1 NA71284     0.0000 
     13 N9A        10.1500   44.8900   -9.0000 N.pl3     1 NA71284     0.0000 
     14 C8A        10.6560   46.0310   -8.4850 C.2       1 NA71284     0.0000 
     15 N7A        10.7110   46.9780   -9.4610 N.2       1 NA71284     0.0000 
     16 C5A        10.2330   46.4170  -10.6010 C.ar      1 NA71284     0.0000 
     17 C6A        10.0410   46.8940  -11.9000 C.ar      1 NA71284     0.0000 
     18 N6A        10.3730   48.1730  -12.2560 N.pl3     1 NA71284     0.0000 
     19 N1A         9.5190   46.0370  -12.8280 N.ar      1 NA71284     0.0000 
     20 C2A         9.1970   44.7650  -12.5060 C.ar      1 NA71284     0.0000 
     21 N3A         9.3740   44.3000  -11.2570 N.ar      1 NA71284     0.0000 
     22 C4A         9.8870   45.1070  -10.3000 C.ar      1 NA71284     0.0000 
     23 O3          8.6640   46.1540   -3.6150 O.3       1 NA71284     0.0000 
     24 PN          7.5380   46.9630   -2.7780 P.3       1 NA71284     0.0000 
     25 O1N         6.4680   46.0340   -2.2240 O.co2     1 NA71284     0.0000 
     26 O2N         7.2030   48.1370   -3.6250 O.co2     1 NA71284     0.0000 
     27 O5D         8.2630   47.4240   -1.4550 O.3       1 NA71284     0.0000 
     28 C5D         9.5050   48.0680   -1.5360 C.3       1 NA71284     0.0000 
     29 C4D         9.7240   48.2860   -0.0690 C.3       1 NA71284     0.0000 
     30 O4D        10.7290   47.4270    0.4660 O.3       1 NA71284     0.0000 
     31 C3D        10.2520   49.6890    0.0490 C.3       1 NA71284     0.0000 
     32 O3D         9.1350   50.5970   -0.0750 O.3       1 NA71284     0.0000 
     33 C2D        11.0080   49.6250    1.3810 C.3       1 NA71284     0.0000 
     34 O2D        10.2040   50.0630    2.4930 O.3       1 NA71284     0.0000 
     35 C1D        11.3600   48.1440    1.5530 C.3       1 NA71284     0.0000 
     36 P2B        13.4130   42.8660   -8.3440 P.3       1 NA71284     0.0000 
     37 O1X        13.9560   43.2910   -7.0040 O.co2     1 NA71284     0.0000 
     38 O2X        14.1160   41.6880   -8.9600 O.co2     1 NA71284     0.0000 
     39 O3X        13.2610   44.0410   -9.2950 O.co2     1 NA71284     0.0000 
     40 H           7.7346   44.3691   -5.4516 H         1 NA71284     0.0000 
     41 H           7.8684   42.8808   -4.4991 H         1 NA71284     0.0000 
     42 H           8.0793   41.9634   -6.5319 H         1 NA71284     0.0000 
     43 H          10.5871   42.2958   -5.4498 H         1 NA71284     0.0000 
     44 H          11.3644   43.8977   -6.8681 H         1 NA71284     0.0000 
     45 H           9.7625   42.8035   -9.1158 H         1 NA71284     0.0000 
     46 H          10.9371   46.1612   -7.5673 H         1 NA71284     0.0000 
     47 H          10.6230   48.3122  -13.2142 H         1 NA71284     0.0000 
     48 H          10.3364   48.8563  -11.5267 H         1 NA71284     0.0000 
     49 H           8.8026   44.1321  -13.2447 H         1 NA71284     0.0000 
     50 H           9.4525   49.0084   -2.0183 H         1 NA71284     0.0000 
     51 H          10.2723   47.4413   -1.9078 H         1 NA71284     0.0000 
     52 H           8.8073   48.2276    0.4500 H         1 NA71284     0.0000 
     53 H          10.9768   49.8054   -0.7413 H         1 NA71284     0.0000 
     54 H          11.9167   50.1667    1.2812 H         1 NA71284     0.0000 
     55 H          12.4379   48.0469    1.5232 H         1 NA71284     0.0000 
     56 H          10.9881   47.8177    2.5160 H         1 NA71284     0.0000 
     57 H          10.7393   40.7653   -7.6139 H         1 NA71284     0.0000 
     58 H           9.3919   51.2242   -0.8102 H         1 NA71284     0.0000 
     59 H           9.4980   50.6445    2.0886 H         1 NA71284     0.0000 
@<TRIPOS>BOND
     1    2    1 ar   
     2    3    1 ar   
     3    4    1 1    
     4   23    1 1    
     5    5    4 1    
     6    6    5 1    
     7   40    5 1    
     8   41    5 1    
     9    7    6 1    
    10    8    6 1    
    11   42    6 1    
    12   12    7 1    
    13    9    8 1    
    14   10    8 1    
    15   43    8 1    
    16   57    9 1    
    17   11   10 1    
    18   12   10 1    
    19   44   10 1    
    20   36   11 1    
    21   13   12 1    
    22   45   12 1    
    23   14   13 1    
    24   22   13 1    
    25   15   14 2    
    26   46   14 1    
    27   16   15 1    
    28   17   16 ar   
    29   22   16 ar   
    30   18   17 1    
    31   19   17 ar   
    32   47   18 1    
    33   48   18 1    
    34   20   19 ar   
    35   21   20 ar   
    36   49   20 1    
    37   22   21 ar   
    38   24   23 1    
    39   25   24 ar   
    40   26   24 ar   
    41   27   24 1    
    42   28   27 1    
    43   29   28 1    
    44   50   28 1    
    45   51   28 1    
    46   30   29 1    
    47   31   29 1    
    48   52   29 1    
    49   35   30 1    
    50   32   31 1    
    51   33   31 1    
    52   53   31 1    
    53   58   32 1    
    54   34   33 1    
    55   35   33 1    
    56   54   33 1    
    57   59   34 1    
    58   55   35 1    
    59   56   35 1    
    60   37   36 ar   
    61   38   36 ar   
    62   39   36 ar   
@<TRIPOS>SUBSTRUCTURE
     1 NA71284     1 GROUP   
@<TRIPOS>SET

