#    Name: 4afj_SJJ_2_INTS_M
#    Modification time : Tue Mar 25 05:32:49 2014

@<TRIPOS>MOLECULE
4afj_SJJ_2_INTS_M
   53     0     9     0     0
SMALL
NO_CHARGES


@<TRIPOS>ATOM
      1 CA        103.7580   60.1430   42.7280 C.3       3 GLC5        0.0000 
      2 CA        103.9850   61.1980   44.3150 C.3       9 GLL5        0.0000 
      3 CA        103.5310   59.0880   41.1410 C.3       6 GLP5        0.0000 
      4 CA        104.8280   60.8005   42.4275 C.3       3 GLC5        0.0000 
      5 CA        104.3130   62.3730   43.6620 C.3       9 GLL5        0.0000 
      6 CA        105.3430   59.2280   41.1930 C.3       6 GLP5        0.0000 
      7 CA        104.0875   62.7635   41.7605 C.3       3 GLC5        0.0000 
      8 CA        103.8620   63.1540   39.8590 C.3       6 GLP5        0.0000 
      9 CA        107.8220   53.8085   48.7610 C.3       3 GLC5        0.0000 
     10 CA        108.6420   55.6990   48.8750 C.3       9 GLL5        0.0000 
     11 CA        107.0020   51.9180   48.6470 C.3       6 GLP5        0.0000 
     12 CA        105.1205   59.8760   43.1455 C.3       3 GLC5        0.0000 
     13 CA        104.8980   60.5240   45.0980 C.3       9 GLL5        0.0000 
     14 CA        105.4955   63.0530   41.8820 C.3       3 GLC5        0.0000 
     15 CA        105.5780   62.8950   43.8110 C.3       9 GLL5        0.0000 
     16 CA        105.4130   63.2110   39.9530 C.3       6 GLP5        0.0000 
     17 CA        108.1355   65.4955   44.4440 C.3       3 GLC5        0.0000 
     18 CA        107.2180   64.4340   43.2450 C.3       9 GLL5        0.0000 
     19 CA        109.0530   66.5570   45.6430 C.3       6 GLP5        0.0000 
     20 CA        107.0460   64.4115   45.3740 C.3       3 GLC5        0.0000 
     21 CA        106.8740   64.3890   47.5030 C.3       6 GLP5        0.0000 
     22 CA        105.7565   65.7730   43.4550 C.3       3 GLC5        0.0000 
     23 CA        104.2950   67.1120   43.6650 C.3       6 GLP5        0.0000 
     24 CA        106.3155   63.8225   41.5990 C.3       3 GLC5        0.0000 
     25 CA        109.2130   55.6815   44.7545 C.3       3 GLC5        0.0000 
     26 CA        108.2460   55.9350   46.4190 C.3       9 GLL5        0.0000 
     27 CA        110.1800   55.4280   43.0900 C.3       6 GLP5        0.0000 
     28 CA        107.4375   56.0845   44.7040 C.3       3 GLC5        0.0000 
     29 CA        106.6290   56.2340   42.9890 C.3       6 GLP5        0.0000 
     30 N         103.6470   55.7715   47.3510 N.am      2 SEC2        0.0000 
     31 N         104.2130   57.3210   46.8250 N.am      8 SEL2        0.0000 
     32 N         103.0810   54.2220   47.8770 N.am      5 SEP2        0.0000 
     33 O         106.3410   55.2870   47.1070 O.2       1 ALC1        0.0000 
     34 O         106.8860   56.4600   46.6700 O.2       7 ALL1        0.0000 
     35 O         105.7960   54.1140   47.5440 O.2       4 ALP1        0.0000 
     36 N         104.9510   65.4520   42.6890 N.am      2 SEC2        0.0000 
     37 N         105.8320   64.0940   43.1520 N.am      8 SEL2        0.0000 
     38 N         104.0700   66.8100   42.2260 N.am      5 SEP2        0.0000 
     39 CA        105.6792   61.6935   47.0243 C.3       3 GLC5        0.0000 
     40 CA        105.8250   62.5960   48.8860 C.3       6 GLP5        0.0000 
     41 CA        104.1583   64.4760   44.1492 C.3       3 GLC5        0.0000 
     42 CA        103.3710   66.3180   44.5620 C.3       6 GLP5        0.0000 
     43 CA        106.4595   63.4780   45.8530 C.3       3 GLC5        0.0000 
     44 CA        108.1040   57.4742   50.0388 C.3       3 GLC5        0.0000 
     45 CA        107.1370   59.1810   50.6650 C.3       6 GLP5        0.0000 
     46 CA        102.6587   61.6674   45.0946 C.3       3 GLC5        0.0000 
     47 CA        100.7940   62.1800   45.6460 C.3       6 GLP5        0.0000 
     48 CA        103.8148   59.2525   47.6695 C.3       3 GLC5        0.0000 
     49 CA        104.5210   59.2670   45.7330 C.3       9 GLL5        0.0000 
     50 CA        102.7940   59.7830   49.3200 C.3       6 GLP5        0.0000 
     51 CA        104.6064   57.7191   44.7106 C.3       3 GLC5        0.0000 
     52 CA        105.1500   58.1770   46.3050 C.3       9 GLL5        0.0000 
     53 CA        104.2830   56.4020   43.5610 C.3       6 GLP5        0.0000 
@<TRIPOS>BOND
@<TRIPOS>SUBSTRUCTURE
     1 ALC1       33 GROUP        1 X    ALC  0     ROOT ALC X 1
     2 SEC2       30 GROUP        1 X    SEC  0     **** SEC X 2
     3 GLC5        1 GROUP        1 X    GLC  0     **** GLC X 6
     4 ALP1       35 GROUP        1 Y    ALP  0     ROOT ALP Y 8
     5 SEP2       32 GROUP        1 Y    SEP  0     **** SEP Y 9
     6 GLP5        3 GROUP        1 Y    GLP  0     **** GLP Y 13
     7 ALL1       34 GROUP        1 Z    ALL  0     ROOT ALL Z 15
     8 SEL2       31 GROUP        1 Z    SEL  0     **** SEL Z 16
     9 GLL5        2 GROUP        1 Z    GLL  0     **** GLL Z 20
@<TRIPOS>SET

