#    Name: 4afj_SJJ_2_ligand
#    Modification time : Tue Mar 25 05:32:49 2014

@<TRIPOS>MOLECULE
4afj_SJJ_2_ligand
   38    40     1     0     0
SMALL
NO_CHARGES


@<TRIPOS>ATOM
      1 C5        103.9850   61.1980   44.3150 C.ar      1 SJJ1392     0.0000 
      2 C7        106.1690   61.0580   45.2270 C.ar      1 SJJ1392     0.0000 
      3 C4        104.3130   62.3730   43.6620 C.ar      1 SJJ1392     0.0000 
      4 C8        106.5120   62.2390   44.5950 C.ar      1 SJJ1392     0.0000 
      5 C19       110.3860   56.5630   47.5090 C.ar      1 SJJ1392     0.0000 
      6 C23       108.6420   55.6990   48.8750 C.ar      1 SJJ1392     0.0000 
      7 C20       111.1620   56.6610   48.6500 C.ar      1 SJJ1392     0.0000 
      8 C22       109.5000   55.8360   49.9500 C.ar      1 SJJ1392     0.0000 
      9 C11       103.0720   57.9060   46.5570 C.2       1 SJJ1392     0.0000 
     10 C6        104.8980   60.5240   45.0980 C.ar      1 SJJ1392     0.0000 
     11 C18       109.1020   56.0720   47.6300 C.ar      1 SJJ1392     0.0000 
     12 C3        105.5780   62.8950   43.8110 C.ar      1 SJJ1392     0.0000 
     13 C9        104.5210   59.2670   45.7330 C.2       1 SJJ1392     0.0000 
     14 C13       105.1500   58.1770   46.3050 C.2       1 SJJ1392     0.0000 
     15 C14       106.5770   57.7600   46.3450 C.2       1 SJJ1392     0.0000 
     16 C1        107.2180   64.4340   43.2450 C.3       1 SJJ1392     0.0000 
     17 C17       108.2460   55.9350   46.4190 C.3       1 SJJ1392     0.0000 
     18 N21       110.7510   56.3100   49.8760 N.ar      1 SJJ1392     0.0000 
     19 N12       104.2130   57.3210   46.8250 N.2       1 SJJ1392     0.0000 
     20 N16       106.8860   56.4600   46.6700 N.am      1 SJJ1392     0.0000 
     21 O15       107.4440   58.5650   46.0290 O.2       1 SJJ1392     0.0000 
     22 O10       103.1820   59.0850   45.8900 O.3       1 SJJ1392     0.0000 
     23 O2        105.8320   64.0940   43.1520 O.3       1 SJJ1392     0.0000 
     24 H         103.0204   60.8135   44.2107 H         1 SJJ1392     0.0000 
     25 H         106.8735   60.5642   45.8065 H         1 SJJ1392     0.0000 
     26 H         103.6184   62.8477   43.0737 H         1 SJJ1392     0.0000 
     27 H         107.4572   62.6296   44.7062 H         1 SJJ1392     0.0000 
     28 H         110.7550   56.8469   46.6017 H         1 SJJ1392     0.0000 
     29 H         107.7007   55.3341   49.0003 H         1 SJJ1392     0.0000 
     30 H         112.1516   57.0438   48.5271 H         1 SJJ1392     0.0000 
     31 H         109.1205   55.5361   50.9067 H         1 SJJ1392     0.0000 
     32 H         102.1683   57.5309   46.8149 H         1 SJJ1392     0.0000 
     33 H         108.1887   54.8761   46.1307 H         1 SJJ1392     0.0000 
     34 H         108.7067   56.4798   45.5831 H         1 SJJ1392     0.0000 
     35 H         106.2104   55.8217   47.0856 H         1 SJJ1392     0.0000 
     36 H         107.8008   63.7327   42.8345 H         1 SJJ1392     0.0000 
     37 H         107.4215   65.2945   42.7779 H         1 SJJ1392     0.0000 
     38 H         107.5115   64.5397   44.1951 H         1 SJJ1392     0.0000 
@<TRIPOS>BOND
     1    3    1 ar   
     2   10    1 ar   
     3   24    1 1    
     4    4    2 ar   
     5   10    2 ar   
     6   25    2 1    
     7   12    3 ar   
     8   26    3 1    
     9   12    4 ar   
    10   27    4 1    
    11    7    5 ar   
    12   11    5 ar   
    13   28    5 1    
    14    8    6 ar   
    15   11    6 ar   
    16   29    6 1    
    17   18    7 ar   
    18   30    7 1    
    19   18    8 ar   
    20   31    8 1    
    21   19    9 2    
    22   22    9 1    
    23   32    9 1    
    24   13   10 1    
    25   17   11 1    
    26   23   12 1    
    27   14   13 2    
    28   22   13 1    
    29   15   14 1    
    30   19   14 1    
    31   20   15 am   
    32   21   15 2    
    33   23   16 1    
    34   36   16 1    
    35   37   16 1    
    36   38   16 1    
    37   20   17 1    
    38   33   17 1    
    39   34   17 1    
    40   35   20 1    
@<TRIPOS>SUBSTRUCTURE
     1 SJJ1392     1 GROUP   
@<TRIPOS>SET

