#    Name: 4i22_IRE_1_INTS_M
#    Modification time : Tue Mar 25 02:12:12 2014

@<TRIPOS>MOLECULE
4i22_IRE_1_INTS_M
   73     0     6     0     0
SMALL
NO_CHARGES


@<TRIPOS>ATOM
      1 OD1        15.6390  -18.8605    9.3580 O.co2     1 ASC3        0.0000 
      2 OD1        14.8640  -19.7180   10.4890 O.co2     5 ASL3        0.0000 
      3 OD1        16.4140  -18.0030    8.2270 O.co2     3 ASP3        0.0000 
      4 CA         15.2845  -16.6640    9.8800 C.3       2 GLC5        0.0000 
      5 CA         14.0840  -18.4530   10.2470 C.3       6 GLL5        0.0000 
      6 CA         16.4850  -14.8750    9.5130 C.3       4 GLP5        0.0000 
      7 CA         12.2990  -19.8305   12.5190 C.3       2 GLC5        0.0000 
      8 CA         12.8560  -18.5790   11.1200 C.3       6 GLL5        0.0000 
      9 CA         11.7420  -21.0820   13.9180 C.3       4 GLP5        0.0000 
     10 CA          8.9405  -18.8550    7.1850 C.3       2 GLC5        0.0000 
     11 CA          9.7210  -17.1700    5.9910 C.3       6 GLL5        0.0000 
     12 CA          8.1600  -20.5400    8.3790 C.3       4 GLP5        0.0000 
     13 CA          8.7420  -16.0780    4.3475 C.3       2 GLC5        0.0000 
     14 CA          7.7630  -14.9860    2.7040 C.3       4 GLP5        0.0000 
     15 CA         10.9135  -15.9470    5.8600 C.3       2 GLC5        0.0000 
     16 CA         12.1060  -14.7240    5.7290 C.3       4 GLP5        0.0000 
     17 CA         10.9095  -13.6230   10.1675 C.3       2 GLC5        0.0000 
     18 CA          9.8780  -15.4610   10.5740 C.3       6 GLL5        0.0000 
     19 CA         11.9410  -11.7850    9.7610 C.3       4 GLP5        0.0000 
     20 CA          7.1105  -15.1240   13.6595 C.3       2 GLC5        0.0000 
     21 CA          6.7720  -13.2550   13.8770 C.3       6 GLL5        0.0000 
     22 CA          7.4490  -16.9930   13.4420 C.3       4 GLP5        0.0000 
     23 CA          5.4800  -13.7975   12.4715 C.3       2 GLC5        0.0000 
     24 CA          4.1880  -14.3400   11.0660 C.3       4 GLP5        0.0000 
     25 CA          4.2915  -13.6430   13.0820 C.3       2 GLC5        0.0000 
     26 CA          4.3950  -12.9460   15.0980 C.3       6 GLL5        0.0000 
     27 CA          3.2845  -14.6295   14.8890 C.3       2 GLC5        0.0000 
     28 CA          2.1740  -16.3130   14.6800 C.3       4 GLP5        0.0000 
     29 CA          3.5035  -12.4550   16.9190 C.3       2 GLC5        0.0000 
     30 CA          2.6120  -11.9640   18.7400 C.3       4 GLP5        0.0000 
     31 CA          3.9365  -11.2420   14.6420 C.3       2 GLC5        0.0000 
     32 CA          3.4780   -9.5380   14.1860 C.3       4 GLP5        0.0000 
     33 CA          5.3590  -11.4865   18.6860 C.3       2 GLC5        0.0000 
     34 CA          6.2170  -11.6510   17.1200 C.3       6 GLL5        0.0000 
     35 CA          4.5010  -11.3220   20.2520 C.3       4 GLP5        0.0000 
     36 CA          9.3840  -10.2315   16.7120 C.3       2 GLC5        0.0000 
     37 CA          8.2420  -11.9850   15.9410 C.3       6 GLL5        0.0000 
     38 CA         10.5260   -8.4780   17.4830 C.3       4 GLP5        0.0000 
     39 CA         10.1830  -11.0720   14.0775 C.3       2 GLC5        0.0000 
     40 CA          8.9210  -12.4810   14.7970 C.3       6 GLL5        0.0000 
     41 CA         11.4450   -9.6630   13.3580 C.3       4 GLP5        0.0000 
     42 CA         10.5915  -19.0250   10.9072 C.3       2 GLC5        0.0000 
     43 CA         11.8800  -17.4270   11.0590 C.3       6 GLL5        0.0000 
     44 CA          8.8150  -20.0470   10.7250 C.3       4 GLP5        0.0000 
     45 CA          8.5953  -17.4393    9.2282 C.3       2 GLC5        0.0000 
     46 CA         10.3290  -16.3490    9.5610 C.3       6 GLL5        0.0000 
     47 CA          7.1510  -18.5740    9.5520 C.3       4 GLP5        0.0000 
     48 CA         10.6747  -15.2465    6.9262 C.3       2 GLC5        0.0000 
     49 CA          9.7500  -16.2600    8.2480 C.3       6 GLL5        0.0000 
     50 CA          7.8330  -16.7073    9.0263 C.3       2 GLC5        0.0000 
     51 CA          8.7370  -15.2780    7.9990 C.3       6 GLL5        0.0000 
     52 CA          6.7870  -15.3927    7.8622 C.3       2 GLC5        0.0000 
     53 CA          5.0590  -15.9450    7.2240 C.3       4 GLP5        0.0000 
     54 CA          8.4275  -13.1268    7.2323 C.3       2 GLC5        0.0000 
     55 CA          8.3400  -11.4130    5.9640 C.3       4 GLP5        0.0000 
     56 CA          8.2630  -16.7758    9.9990 C.3       2 GLC5        0.0000 
     57 CA          8.8720  -14.4940   10.3180 C.3       6 GLL5        0.0000 
     58 CA          8.4120  -15.9853   11.9440 C.3       2 GLC5        0.0000 
     59 CA          9.1637  -12.5318    9.7890 C.3       2 GLC5        0.0000 
     60 CA          9.7450  -10.6150    9.9180 C.3       4 GLP5        0.0000 
     61 CA          8.5860  -14.6895   14.9473 C.3       2 GLC5        0.0000 
     62 CA          8.1970  -13.1210   13.7500 C.3       6 GLL5        0.0000 
     63 CA          8.6130  -16.5780   15.6210 C.3       4 GLP5        0.0000 
     64 CA          5.8157  -11.2030   14.5903 C.3       2 GLC5        0.0000 
     65 CA          5.1960   -9.3970   14.7380 C.3       4 GLP5        0.0000 
     66 CA          5.3805  -13.9642   16.4355 C.3       2 GLC5        0.0000 
     67 CA          6.0990  -12.7630   15.0080 C.3       6 GLL5        0.0000 
     68 CA          5.5140  -15.0740   17.8180 C.3       4 GLP5        0.0000 
     69 CA          7.1300  -13.0987   17.6505 C.3       2 GLC5        0.0000 
     70 CA          6.8350  -12.1280   16.0380 C.3       6 GLL5        0.0000 
     71 CA          7.7340  -14.3080   18.7220 C.3       4 GLP5        0.0000 
     72 CA          8.1578  -13.2705   17.0455 C.3       2 GLC5        0.0000 
     73 CA          6.2900  -10.6671   15.4990 C.3       2 GLC5        0.0000 
@<TRIPOS>BOND
@<TRIPOS>SUBSTRUCTURE
     1 ASC3        1 GROUP        1 X    ASC  0     ROOT ASC X 3
     2 GLC5        4 GROUP        1 X    GLC  0     **** GLC X 6
     3 ASP3        3 GROUP        1 Y    ASP  0     ROOT ASP Y 10
     4 GLP5        6 GROUP        1 Y    GLP  0     **** GLP Y 13
     5 ASL3        2 GROUP        1 Z    ASL  0     ROOT ASL Z 17
     6 GLL5        5 GROUP        1 Z    GLL  0     **** GLL Z 20
@<TRIPOS>SET

