#    Name: 4i22_IRE_1_ligand
#    Modification time : Tue Mar 25 02:12:12 2014

@<TRIPOS>MOLECULE
4i22_IRE_1_ligand
   56    59     1     0     0
SMALL
NO_CHARGES


@<TRIPOS>ATOM
      1 CAO        14.9140  -20.5570    9.2090 C.3       1 IRE9001     0.0000 
      2 CAL        15.6980  -21.8390    9.5040 C.3       1 IRE9001     0.0000 
      3 OAU        17.0040  -21.5310   10.0240 O.3       1 IRE9001     0.0000 
      4 CAM        16.9590  -20.7910   11.2550 C.3       1 IRE9001     0.0000 
      5 CAP        16.2600  -19.4500   11.0360 C.3       1 IRE9001     0.0000 
      6 NBE        14.8640  -19.7180   10.4890 N.4       1 IRE9001     0.0000 
      7 CAN        14.0840  -18.4530   10.2470 C.3       1 IRE9001     0.0000 
      8 CAJ        12.8560  -18.5790   11.1200 C.3       1 IRE9001     0.0000 
      9 CAK        11.8800  -17.4270   11.0590 C.3       1 IRE9001     0.0000 
     10 OAV        11.2960  -17.3300    9.7500 O.3       1 IRE9001     0.0000 
     11 CBA        10.3290  -16.3490    9.5610 C.ar      1 IRE9001     0.0000 
     12 CAZ         9.7500  -16.2600    8.2480 C.ar      1 IRE9001     0.0000 
     13 CAH         8.7370  -15.2780    7.9990 C.ar      1 IRE9001     0.0000 
     14 OAT        10.2370  -17.1660    7.3220 O.3       1 IRE9001     0.0000 
     15 CAA         9.7210  -17.1700    5.9910 C.3       1 IRE9001     0.0000 
     16 CAI         9.8780  -15.4610   10.5740 C.ar      1 IRE9001     0.0000 
     17 C5          8.8720  -14.4940   10.3180 C.ar      1 IRE9001     0.0000 
     18 C4          8.2930  -14.4030    9.0020 C.ar      1 IRE9001     0.0000 
     19 N3          7.3290  -13.5060    8.6960 N.pl3     1 IRE9001     0.0000 
     20 C2          6.9220  -12.6860    9.6830 C.2       1 IRE9001     0.0000 
     21 N1          7.3860  -12.6750   10.9510 N.2       1 IRE9001     0.0000 
     22 C6          8.3690  -13.5820   11.2800 C.2       1 IRE9001     0.0000 
     23 NAS         8.8790  -13.6020   12.6130 N.2       1 IRE9001     0.0000 
     24 CAY         8.1970  -13.1210   13.7500 C.ar      1 IRE9001     0.0000 
     25 CAG         6.7720  -13.2550   13.8770 C.ar      1 IRE9001     0.0000 
     26 CAX         6.0990  -12.7630   15.0080 C.ar      1 IRE9001     0.0000 
     27 CL          4.3950  -12.9460   15.0980 Cl        1 IRE9001     0.0000 
     28 CAW         6.8350  -12.1280   16.0380 C.ar      1 IRE9001     0.0000 
     29 FAB         6.2170  -11.6510   17.1200 F         1 IRE9001     0.0000 
     30 CAD         8.2420  -11.9850   15.9410 C.ar      1 IRE9001     0.0000 
     31 CAE         8.9210  -12.4810   14.7970 C.ar      1 IRE9001     0.0000 
     32 H          13.9114  -20.8109    8.9067 H         1 IRE9001     0.0000 
     33 H          15.4147  -20.0003    8.4341 H         1 IRE9001     0.0000 
     34 H          15.7628  -22.4142    8.5701 H         1 IRE9001     0.0000 
     35 H          15.1113  -22.4335   10.2179 H         1 IRE9001     0.0000 
     36 H          17.9656  -20.5868   11.6387 H         1 IRE9001     0.0000 
     37 H          16.4078  -21.3347   12.0313 H         1 IRE9001     0.0000 
     38 H          16.8217  -18.8649   10.3240 H         1 IRE9001     0.0000 
     39 H          16.1859  -18.9264   11.9768 H         1 IRE9001     0.0000 
     40 H          14.3171  -20.3144   11.2405 H         1 IRE9001     0.0000 
     41 H          13.7935  -18.3922    9.2200 H         1 IRE9001     0.0000 
     42 H          14.6586  -17.6042   10.5506 H         1 IRE9001     0.0000 
     43 H          13.1806  -18.7189   12.1773 H         1 IRE9001     0.0000 
     44 H          12.3197  -19.5186   10.8509 H         1 IRE9001     0.0000 
     45 H          12.4189  -16.5053   11.3236 H         1 IRE9001     0.0000 
     46 H          11.1097  -17.5879   11.8275 H         1 IRE9001     0.0000 
     47 H           8.3305  -15.2226    7.0519 H         1 IRE9001     0.0000 
     48 H          10.2910  -15.5212   11.5149 H         1 IRE9001     0.0000 
     49 H           6.9291  -13.4549    7.7571 H         1 IRE9001     0.0000 
     50 H           6.1487  -11.9659    9.4383 H         1 IRE9001     0.0000 
     51 H           6.2520  -13.7178   13.1251 H         1 IRE9001     0.0000 
     52 H           8.7628  -11.5300   16.6858 H         1 IRE9001     0.0000 
     53 H           9.9338  -12.3795   14.7221 H         1 IRE9001     0.0000 
     54 H           9.8673  -16.2930    5.5333 H         1 IRE9001     0.0000 
     55 H          10.1558  -17.8714    5.4262 H         1 IRE9001     0.0000 
     56 H           8.7372  -17.3487    5.9746 H         1 IRE9001     0.0000 
@<TRIPOS>BOND
     1    2    1 1    
     2    6    1 1    
     3   32    1 1    
     4   33    1 1    
     5    3    2 1    
     6   34    2 1    
     7   35    2 1    
     8    4    3 1    
     9    5    4 1    
    10   36    4 1    
    11   37    4 1    
    12    6    5 1    
    13   38    5 1    
    14   39    5 1    
    15    7    6 1    
    16   40    6 1    
    17    8    7 1    
    18   41    7 1    
    19   42    7 1    
    20    9    8 1    
    21   43    8 1    
    22   44    8 1    
    23   10    9 1    
    24   45    9 1    
    25   46    9 1    
    26   11   10 1    
    27   12   11 ar   
    28   16   11 ar   
    29   13   12 ar   
    30   14   12 1    
    31   18   13 ar   
    32   47   13 1    
    33   15   14 1    
    34   54   15 1    
    35   55   15 1    
    36   56   15 1    
    37   17   16 ar   
    38   48   16 1    
    39   18   17 ar   
    40   22   17 1    
    41   19   18 1    
    42   20   19 1    
    43   49   19 1    
    44   21   20 2    
    45   50   20 1    
    46   22   21 1    
    47   23   22 2    
    48   24   23 1    
    49   25   24 ar   
    50   31   24 ar   
    51   26   25 ar   
    52   51   25 1    
    53   27   26 1    
    54   28   26 ar   
    55   29   28 1    
    56   30   28 ar   
    57   31   30 ar   
    58   52   30 1    
    59   53   31 1    
@<TRIPOS>SUBSTRUCTURE
     1 IRE9001     1 GROUP   
@<TRIPOS>SET

