#    Name: 3pyz_ANP_1_INTS_M
#    Modification time : Tue Mar 25 08:44:04 2014

@<TRIPOS>MOLECULE
3pyz_ANP_1_INTS_M
   73     0    15     0     0
SMALL
NO_CHARGES


@<TRIPOS>ATOM
      1 Zn         -5.2655   22.9895  -17.9860 Zn        4 ZIC7        0.0000 
      2 Zn         -6.1990   23.2070  -17.8320 Zn       14 ZIL7        0.0000 
      3 Zn         -4.3320   22.7720  -18.1400 Zn        9 ZIP7        0.0000 
      4 NZ         -4.7530   22.9595  -22.4795 N.4       3 LYC4        0.0000 
      5 NZ         -5.6250   21.9060  -22.1690 N.4      13 LYL4        0.0000 
      6 NZ         -3.8810   24.0130  -22.7900 N.4       8 LYP4        0.0000 
      7 N          -5.0225   20.5710  -22.4170 N.am      2 SEC2        0.0000 
      8 N          -5.6250   21.9060  -22.1690 N.am     12 SEL2        0.0000 
      9 N          -4.4200   19.2360  -22.6650 N.am      7 SEP2        0.0000 
     10 N          -4.7530   22.9595  -22.4795 N.am      2 SEC2        0.0000 
     11 N          -3.8810   24.0130  -22.7900 N.am      7 SEP2        0.0000 
     12 Zn         -4.7340   22.1415  -18.8465 Zn        4 ZIC7        0.0000 
     13 Zn         -5.1360   21.5110  -19.5530 Zn       14 ZIL7        0.0000 
     14 N          -4.4805   20.1480  -19.6995 N.am      2 SEC2        0.0000 
     15 N          -5.1360   21.5110  -19.5530 N.am     12 SEL2        0.0000 
     16 N          -3.8250   18.7850  -19.8460 N.am      7 SEP2        0.0000 
     17 N          -6.1205   17.0915  -19.7740 N.am      2 SEC2        0.0000 
     18 N          -7.1830   17.9060  -20.2630 N.am     12 SEL2        0.0000 
     19 N          -5.0580   16.2770  -19.2850 N.am      7 SEP2        0.0000 
     20 N          -7.1785   16.5780  -20.5535 N.am      2 SEC2        0.0000 
     21 N          -7.1740   15.2500  -20.8440 N.am      7 SEP2        0.0000 
     22 NZ         -7.4320   20.0875  -17.1175 N.4       3 LYC4        0.0000 
     23 NZ         -7.7530   19.7980  -18.4930 N.4      13 LYL4        0.0000 
     24 NZ         -8.1100   19.6270  -15.4020 N.4       8 LYP4        0.0000 
     25 N          -8.3180   19.4495  -17.4085 N.am      2 SEC2        0.0000 
     26 N          -7.7530   19.7980  -18.4930 N.am     12 SEL2        0.0000 
     27 N          -8.8830   19.1010  -16.3240 N.am      7 SEP2        0.0000 
     28 N          -7.4320   20.0875  -17.1175 N.am      2 SEC2        0.0000 
     29 N          -7.1110   20.3770  -15.7420 N.am      7 SEP2        0.0000 
     30 N          -7.1645   20.0220  -22.3390 N.am      2 SEC2        0.0000 
     31 N          -7.3420   20.5020  -20.9610 N.am     12 SEL2        0.0000 
     32 N          -6.9870   19.5420  -23.7170 N.am      7 SEP2        0.0000 
     33 CA        -10.2065   18.8490  -18.7580 C.3       5 GLC5        0.0000 
     34 CA        -10.1070   20.3280  -20.2950 C.3      15 GLL5        0.0000 
     35 CA        -10.3060   17.3700  -17.2210 C.3      10 GLP5        0.0000 
     36 CA        -11.1800   18.0555  -18.9705 C.3       5 GLC5        0.0000 
     37 CA        -12.0540   18.7410  -20.7200 C.3      15 GLL5        0.0000 
     38 O         -14.3300   19.0510  -19.6985 O.2       1 ALC1        0.0000 
     39 O         -12.9210   18.7670  -19.5430 O.2      11 ALL1        0.0000 
     40 O         -15.7390   19.3350  -19.8540 O.2       6 ALP1        0.0000 
     41 O         -14.9135   19.3805  -20.7870 O.2       1 ALC1        0.0000 
     42 O         -14.0880   19.4260  -21.7200 O.2      11 ALL1        0.0000 
     43 CA        -10.6440   20.1790  -24.2310 C.3       5 GLC5        0.0000 
     44 CA        -12.1180   19.1700  -23.0520 C.3      15 GLL5        0.0000 
     45 CA         -9.1700   21.1880  -25.4100 C.3      10 GLP5        0.0000 
     46 N          -8.5015   16.1425  -24.0440 N.am      2 SEC2        0.0000 
     47 N          -9.3400   17.1940  -24.3710 N.am     12 SEL2        0.0000 
     48 N          -7.6630   15.0910  -23.7170 N.am      7 SEP2        0.0000 
     49 CA         -8.2815   17.8445  -24.5110 C.3       5 GLC5        0.0000 
     50 CA        -10.0740   17.4640  -25.4860 C.3      15 GLL5        0.0000 
     51 CA         -6.4890   18.2250  -23.5360 C.3      10 GLP5        0.0000 
     52 O          -7.7415   15.7155  -26.5195 O.2       1 ALC1        0.0000 
     53 O          -8.8660   16.4110  -27.3590 O.2      11 ALL1        0.0000 
     54 O          -6.6170   15.0200  -25.6800 O.2       6 ALP1        0.0000 
     55 CA        -10.5540   19.7635  -26.3165 C.3       5 GLC5        0.0000 
     56 CA        -11.9380   18.3390  -27.2230 C.3      15 GLL5        0.0000 
     57 CA        -12.0020   20.0440  -28.5075 C.3       5 GLC5        0.0000 
     58 CA        -12.0660   21.7490  -29.7920 C.3      10 GLP5        0.0000 
     59 CA        -13.2550   19.8010  -26.3665 C.3       5 GLC5        0.0000 
     60 CA        -14.5720   21.2630  -25.5100 C.3      10 GLP5        0.0000 
     61 CA        -13.5505   17.6865  -26.8265 C.3       5 GLC5        0.0000 
     62 CA        -15.1630   17.0340  -26.4300 C.3      10 GLP5        0.0000 
     63 CA        -13.1660   17.6120  -25.7525 C.3       5 GLC5        0.0000 
     64 CA        -11.1690   18.1900  -25.0750 C.3      15 GLL5        0.0000 
     65 CA        -11.6605   20.5486  -18.9814 C.3       5 GLC5        0.0000 
     66 CA        -11.4690   20.1070  -20.9760 C.3      15 GLL5        0.0000 
     67 CA        -11.9000   21.6180  -17.2850 C.3      10 GLP5        0.0000 
     68 CA        -13.2812   20.3825  -23.3828 C.3       5 GLC5        0.0000 
     69 CA        -12.9090   18.5680  -21.9030 C.3      15 GLL5        0.0000 
     70 CA        -14.0490   21.8960  -24.2880 C.3      10 GLP5        0.0000 
     71 CA        -13.7793   17.4145  -23.3197 C.3       5 GLC5        0.0000 
     72 CA        -15.0450   15.9600  -24.1620 C.3      10 GLP5        0.0000 
     73 CA         -9.8770   19.4684  -25.5129 C.3       5 GLC5        0.0000 
@<TRIPOS>BOND
@<TRIPOS>SUBSTRUCTURE
     1 ALC1       38 GROUP        1 X    ALC  0     ROOT ALC X 1
     2 SEC2        7 GROUP        1 X    SEC  0     **** SEC X 2
     3 LYC4        4 GROUP        1 X    LYC  0     **** LYC X 4
     4 ZIC7        1 GROUP        1 X    ZIC  0     **** ZIC X 5
     5 GLC5       33 GROUP        1 X    GLC  0     **** GLC X 6
     6 ALP1       40 GROUP        1 Y    ALP  0     ROOT ALP Y 8
     7 SEP2        9 GROUP        1 Y    SEP  0     **** SEP Y 9
     8 LYP4        6 GROUP        1 Y    LYP  0     **** LYP Y 11
     9 ZIP7        3 GROUP        1 Y    ZIP  0     **** ZIP Y 12
    10 GLP5       35 GROUP        1 Y    GLP  0     **** GLP Y 13
    11 ALL1       39 GROUP        1 Z    ALL  0     ROOT ALL Z 15
    12 SEL2        8 GROUP        1 Z    SEL  0     **** SEL Z 16
    13 LYL4        5 GROUP        1 Z    LYL  0     **** LYL Z 18
    14 ZIL7        2 GROUP        1 Z    ZIL  0     **** ZIL Z 19
    15 GLL5       34 GROUP        1 Z    GLL  0     **** GLL Z 20
@<TRIPOS>SET

