#    Name: 3pyz_ANP_1_ligand
#    Modification time : Tue Mar 25 08:44:05 2014

@<TRIPOS>MOLECULE
3pyz_ANP_1_ligand
   43    45     1     0     0
SMALL
NO_CHARGES


@<TRIPOS>ATOM
      1 PG         -7.4680   23.4470  -18.8300 P.3       1 ANP601      0.0000 
      2 O1G        -8.0570   24.9180  -18.7540 O.co2     1 ANP601      0.0000 
      3 O2G        -6.1990   23.2070  -17.8320 O.co2     1 ANP601      0.0000 
      4 O3G        -8.5680   22.4350  -18.5220 O.co2     1 ANP601      0.0000 
      5 PB         -6.1800   21.6060  -20.7760 P.3       1 ANP601      0.0000 
      6 O1B        -5.6250   21.9060  -22.1690 O.co2     1 ANP601      0.0000 
      7 O2B        -5.1360   21.5110  -19.5530 O.co2     1 ANP601      0.0000 
      8 N3B        -6.9520   23.1250  -20.4520 N.4       1 ANP601      0.0000 
      9 PA         -7.7650   19.2990  -19.9860 P.3       1 ANP601      0.0000 
     10 O1A        -7.1830   17.9060  -20.2630 O.co2     1 ANP601      0.0000 
     11 O2A        -7.7530   19.7980  -18.4930 O.co2     1 ANP601      0.0000 
     12 O3A        -7.3420   20.5020  -20.9610 O.3       1 ANP601      0.0000 
     13 O5'        -9.2890   19.1630  -20.4470 O.3       1 ANP601      0.0000 
     14 C5'       -10.1070   20.3280  -20.2950 C.3       1 ANP601      0.0000 
     15 C4'       -11.4690   20.1070  -20.9760 C.3       1 ANP601      0.0000 
     16 O4'       -11.3240   20.2420  -22.4170 O.3       1 ANP601      0.0000 
     17 C3'       -12.0540   18.7410  -20.7200 C.3       1 ANP601      0.0000 
     18 O3'       -12.9210   18.7670  -19.5430 O.3       1 ANP601      0.0000 
     19 C2'       -12.9090   18.5680  -21.9030 C.3       1 ANP601      0.0000 
     20 O2'       -14.0880   19.4260  -21.7200 O.3       1 ANP601      0.0000 
     21 C1'       -12.1180   19.1700  -23.0520 C.3       1 ANP601      0.0000 
     22 N9        -11.1120   18.3740  -23.7740 N.pl3     1 ANP601      0.0000 
     23 C8         -9.9990   17.7580  -23.3400 C.2       1 ANP601      0.0000 
     24 N7         -9.3400   17.1940  -24.3710 N.2       1 ANP601      0.0000 
     25 C5        -10.0740   17.4640  -25.4860 C.ar      1 ANP601      0.0000 
     26 C6         -9.9240   17.1510  -26.8270 C.ar      1 ANP601      0.0000 
     27 N6         -8.8660   16.4110  -27.3590 N.pl3     1 ANP601      0.0000 
     28 N1        -10.8670   17.5980  -27.6540 N.ar      1 ANP601      0.0000 
     29 C2        -11.9380   18.3390  -27.2230 C.ar      1 ANP601      0.0000 
     30 N3        -12.1130   18.6340  -25.9300 N.ar      1 ANP601      0.0000 
     31 C4        -11.1690   18.1900  -25.0750 C.ar      1 ANP601      0.0000 
     32 H          -9.6481   21.2109  -20.7538 H         1 ANP601      0.0000 
     33 H         -10.2985   20.5568  -19.2408 H         1 ANP601      0.0000 
     34 H         -12.1607   20.8556  -20.6128 H         1 ANP601      0.0000 
     35 H         -11.3145   18.0287  -20.6866 H         1 ANP601      0.0000 
     36 H         -13.1406   17.5933  -22.0899 H         1 ANP601      0.0000 
     37 H         -12.7934   19.6572  -23.7394 H         1 ANP601      0.0000 
     38 H          -9.7063   17.7230  -22.4051 H         1 ANP601      0.0000 
     39 H          -8.1819   16.0885  -26.7048 H         1 ANP601      0.0000 
     40 H          -8.8834   16.2672  -28.3484 H         1 ANP601      0.0000 
     41 H         -12.6307   18.6768  -27.9386 H         1 ANP601      0.0000 
     42 H         -13.6256   19.4440  -19.7556 H         1 ANP601      0.0000 
     43 H         -14.5111   19.1068  -20.8720 H         1 ANP601      0.0000 
@<TRIPOS>BOND
     1    2    1 ar   
     2    3    1 ar   
     3    4    1 ar   
     4    8    1 1    
     5    6    5 ar   
     6    7    5 ar   
     7    8    5 1    
     8   12    5 1    
     9   10    9 ar   
    10   11    9 ar   
    11   12    9 1    
    12   13    9 1    
    13   14   13 1    
    14   15   14 1    
    15   32   14 1    
    16   33   14 1    
    17   16   15 1    
    18   17   15 1    
    19   34   15 1    
    20   21   16 1    
    21   18   17 1    
    22   19   17 1    
    23   35   17 1    
    24   42   18 1    
    25   20   19 1    
    26   21   19 1    
    27   36   19 1    
    28   43   20 1    
    29   22   21 1    
    30   37   21 1    
    31   23   22 1    
    32   31   22 1    
    33   24   23 2    
    34   38   23 1    
    35   25   24 1    
    36   26   25 ar   
    37   31   25 ar   
    38   27   26 1    
    39   28   26 ar   
    40   39   27 1    
    41   40   27 1    
    42   29   28 ar   
    43   30   29 ar   
    44   41   29 1    
    45   31   30 ar   
@<TRIPOS>SUBSTRUCTURE
     1 ANP601      1 GROUP   
@<TRIPOS>SET

