#    Name: 1e1x_NW1_1_INTS_M
#    Modification time : Mon Mar 24 22:44:47 2014

@<TRIPOS>MOLECULE
1e1x_NW1_1_INTS_M
   46     0     9     0     0
SMALL
NO_CHARGES


@<TRIPOS>ATOM
      1 CA          1.0040   27.6095    6.1380 C.3       3 GLC5        0.0000 
      2 CA          1.2250   28.4780    8.1800 C.3       9 GLL5        0.0000 
      3 CA          0.7830   26.7410    4.0960 C.3       6 GLP5        0.0000 
      4 CA          3.0625   28.1165    9.0590 C.3       3 GLC5        0.0000 
      5 CA          1.9190   26.2340    8.6810 C.3       9 GLL5        0.0000 
      6 CA          4.2060   29.9990    9.4370 C.3       6 GLP5        0.0000 
      7 CA         -1.9315   23.4365   11.6935 C.3       3 GLC5        0.0000 
      8 CA         -0.0450   24.0560   11.2680 C.3       9 GLL5        0.0000 
      9 CA         -3.8180   22.8170   12.1190 C.3       6 GLP5        0.0000 
     10 CA          2.4330   23.3615   12.8660 C.3       3 GLC5        0.0000 
     11 CA          2.1770   22.9700   10.8330 C.3       9 GLL5        0.0000 
     12 CA          2.6890   23.7530   14.8990 C.3       6 GLP5        0.0000 
     13 CA         -1.5570   29.3290    9.1250 C.3       3 GLC5        0.0000 
     14 CA          0.5130   29.7550    8.4910 C.3       9 GLL5        0.0000 
     15 CA         -3.6270   28.9030    9.7590 C.3       6 GLP5        0.0000 
     16 N          -1.8375   29.4340   10.3755 N.am      2 SEC2        0.0000 
     17 N          -0.4380   29.6840    9.5840 N.am      8 SEL2        0.0000 
     18 N          -3.2370   29.1840   11.1670 N.am      5 SEP2        0.0000 
     19 N          -2.1520   29.9495   10.5205 N.am      2 SEC2        0.0000 
     20 N          -1.0670   30.7150    9.8740 N.am      8 SEL2        0.0000 
     21 CA          1.2880   32.1095    6.0085 C.3       3 GLC5        0.0000 
     22 CA          0.8580   30.8220    7.7690 C.3       9 GLL5        0.0000 
     23 CA          1.7180   33.3970    4.2480 C.3       6 GLP5        0.0000 
     24 O           0.1985   33.0080    7.1225 O.2       1 ALC1        0.0000 
     25 O           0.3240   31.9930    7.9600 O.2       7 ALL1        0.0000 
     26 O           0.0730   34.0230    6.2850 O.2       4 ALP1        0.0000 
     27 N           2.7245   31.7240    6.2145 N.am      2 SEC2        0.0000 
     28 N           1.8720   30.6210    6.7240 N.am      8 SEL2        0.0000 
     29 N           3.5770   32.8270    5.7050 N.am      5 SEP2        0.0000 
     30 CA          1.6355   28.1455    5.2810 C.3       3 GLC5        0.0000 
     31 CA          2.4880   29.5500    6.4660 C.3       9 GLL5        0.0000 
     32 CA          0.3900   29.8770    5.7890 C.3       3 GLC5        0.0000 
     33 CA         -1.7080   30.2040    5.1120 C.3       6 GLP5        0.0000 
     34 CA          3.7210   31.2830    6.3330 C.3       3 GLC5        0.0000 
     35 CA          4.9540   33.0160    6.2000 C.3       6 GLP5        0.0000 
     36 CA          3.3470   29.7745    7.9515 C.3       3 GLC5        0.0000 
     37 O           4.3460   30.2050    5.3120 O.2       1 ALC1        0.0000 
     38 O           3.4110   29.4190    5.5470 O.2       7 ALL1        0.0000 
     39 O           5.2810   30.9910    5.0770 O.2       4 ALP1        0.0000 
     40 CA         -1.6792   24.7480    9.5795 C.3       3 GLC5        0.0000 
     41 CA          0.1380   25.0120   10.0520 C.3       9 GLL5        0.0000 
     42 CA         -3.4050   24.9620    8.4990 C.3       6 GLP5        0.0000 
     43 CA          2.0311   24.5456    7.5437 C.3       3 GLC5        0.0000 
     44 CA          1.9820   24.2940    5.6850 C.3       6 GLP5        0.0000 
     45 CA         -0.5112   30.2462    6.6210 C.3       3 GLC5        0.0000 
     46 CA          2.5348   29.9841    8.7446 C.3       3 GLC5        0.0000 
@<TRIPOS>BOND
@<TRIPOS>SUBSTRUCTURE
     1 ALC1       24 GROUP        1 X    ALC  0     ROOT ALC X 1
     2 SEC2       16 GROUP        1 X    SEC  0     **** SEC X 2
     3 GLC5        1 GROUP        1 X    GLC  0     **** GLC X 6
     4 ALP1       26 GROUP        1 Y    ALP  0     ROOT ALP Y 8
     5 SEP2       18 GROUP        1 Y    SEP  0     **** SEP Y 9
     6 GLP5        3 GROUP        1 Y    GLP  0     **** GLP Y 13
     7 ALL1       25 GROUP        1 Z    ALL  0     ROOT ALL Z 15
     8 SEL2       17 GROUP        1 Z    SEL  0     **** SEL Z 16
     9 GLL5        2 GROUP        1 Z    GLL  0     **** GLL Z 20
@<TRIPOS>SET

