#    Name: 1e1x_NW1_1_ligand
#    Modification time : Mon Mar 24 22:44:47 2014

@<TRIPOS>MOLECULE
1e1x_NW1_1_ligand
   35    36     1     0     0
SMALL
NO_CHARGES


@<TRIPOS>ATOM
      1 N1          2.1630   28.4110    7.1980 N.ar      1 NW1401      0.0000 
      2 C6          1.2250   28.4780    8.1800 C.ar      1 NW1401      0.0000 
      3 O6          0.9650   27.3090    8.8980 O.3       1 NW1401      0.0000 
      4 C1          1.9190   26.2340    8.6810 C.3       1 NW1401      0.0000 
      5 C3          1.6440   25.2190    9.7930 C.3       1 NW1401      0.0000 
      6 C11         0.1380   25.0120   10.0520 C.3       1 NW1401      0.0000 
      7 C10        -0.0450   24.0560   11.2680 C.3       1 NW1401      0.0000 
      8 C9          0.6520   22.6910   10.9410 C.3       1 NW1401      0.0000 
      9 C8          2.1770   22.9700   10.8330 C.3       1 NW1401      0.0000 
     10 C7          2.3790   23.8680    9.5680 C.3       1 NW1401      0.0000 
     11 C5          0.5130   29.7550    8.4910 C.ar      1 NW1401      0.0000 
     12 N7         -0.4380   29.6840    9.5840 N.2       1 NW1401      0.0000 
     13 O8         -1.0670   30.7150    9.8740 O.2       1 NW1401      0.0000 
     14 C4          0.8580   30.8220    7.7690 C.ar      1 NW1401      0.0000 
     15 N9          0.3240   31.9930    7.9600 N.pl3     1 NW1401      0.0000 
     16 N3          1.8720   30.6210    6.7240 N.ar      1 NW1401      0.0000 
     17 C2          2.4880   29.5500    6.4660 C.ar      1 NW1401      0.0000 
     18 N2          3.4110   29.4190    5.5470 N.pl3     1 NW1401      0.0000 
     19 H           2.9326   26.5784    8.7770 H         1 NW1401      0.0000 
     20 H           1.7635   25.7516    7.7332 H         1 NW1401      0.0000 
     21 H           2.0692   25.6471   10.7370 H         1 NW1401      0.0000 
     22 H          -0.3187   24.5655    9.1849 H         1 NW1401      0.0000 
     23 H          -0.3219   25.9588   10.2798 H         1 NW1401      0.0000 
     24 H          -1.0904   23.8835   11.4302 H         1 NW1401      0.0000 
     25 H           0.4206   24.4869   12.1320 H         1 NW1401      0.0000 
     26 H           0.2882   22.3302   10.0060 H         1 NW1401      0.0000 
     27 H           0.4699   22.0078   11.7390 H         1 NW1401      0.0000 
     28 H           2.6981   22.0521   10.6959 H         1 NW1401      0.0000 
     29 H           2.5034   23.5028   11.6946 H         1 NW1401      0.0000 
     30 H           3.4276   24.0510    9.4337 H         1 NW1401      0.0000 
     31 H           1.9573   23.3707    8.7160 H         1 NW1401      0.0000 
     32 H           0.6335   32.7225    7.3501 H         1 NW1401      0.0000 
     33 H          -0.3467   32.0555    8.6991 H         1 NW1401      0.0000 
     34 H           3.8111   28.5075    5.4520 H         1 NW1401      0.0000 
     35 H           3.6314   30.2425    5.0242 H         1 NW1401      0.0000 
@<TRIPOS>BOND
     1    2    1 ar   
     2   17    1 ar   
     3    3    2 1    
     4   11    2 ar   
     5    4    3 1    
     6    5    4 1    
     7   19    4 1    
     8   20    4 1    
     9    6    5 1    
    10   10    5 1    
    11   21    5 1    
    12    7    6 1    
    13   22    6 1    
    14   23    6 1    
    15    8    7 1    
    16   24    7 1    
    17   25    7 1    
    18    9    8 1    
    19   26    8 1    
    20   27    8 1    
    21   10    9 1    
    22   28    9 1    
    23   29    9 1    
    24   30   10 1    
    25   31   10 1    
    26   12   11 1    
    27   14   11 ar   
    28   13   12 2    
    29   15   14 1    
    30   16   14 ar   
    31   32   15 1    
    32   33   15 1    
    33   17   16 ar   
    34   18   17 1    
    35   34   18 1    
    36   35   18 1    
@<TRIPOS>SUBSTRUCTURE
     1 NW1401      1 GROUP   
@<TRIPOS>SET

