#    Name: 2vwp_NDP_1_INTS_M
#    Modification time : Tue Mar 25 03:11:21 2014

@<TRIPOS>MOLECULE
2vwp_NDP_1_INTS_M
   79     0    12     0     0
SMALL
NO_CHARGES


@<TRIPOS>ATOM
      1 CA         -1.8700   25.6790   17.9000 C.3       4 GLC5        0.0000 
      2 CA         -1.7450   25.7780   19.9570 C.3      12 GLL5        0.0000 
      3 CA         -1.9950   25.5800   15.8430 C.3       8 GLP5        0.0000 
      4 CA         -4.4525   26.5230   19.1300 C.3       4 GLC5        0.0000 
      5 CA         -3.1760   25.3970   20.2570 C.3      12 GLL5        0.0000 
      6 CA         -5.7290   27.6490   18.0030 C.3       8 GLP5        0.0000 
      7 CA         -3.1615   27.1480   21.6510 C.3       4 GLC5        0.0000 
      8 CA         -3.1470   28.8990   23.0450 C.3       8 GLP5        0.0000 
      9 CA         -5.0920   25.6670   18.7380 C.3       4 GLC5        0.0000 
     10 CA         -4.4550   23.6850   19.4730 C.3      12 GLL5        0.0000 
     11 CA         -4.4795   24.4580   17.4850 C.3       4 GLC5        0.0000 
     12 CA         -4.5040   25.2310   15.4970 C.3       8 GLP5        0.0000 
     13 CA         -8.4670   20.6935   15.7535 C.3       4 GLC5        0.0000 
     14 CA         -6.2500   20.7340   16.0890 C.3      12 GLL5        0.0000 
     15 CA        -10.6840   20.6530   15.4180 C.3       8 GLP5        0.0000 
     16 N          -8.7560   20.5475   16.3470 N.am      2 SEC2        0.0000 
     17 N          -7.5550   21.1520   16.2880 N.am     10 SEL2        0.0000 
     18 N          -9.9570   19.9430   16.4060 N.am      6 SEP2        0.0000 
     19 CA         -8.3780   23.1000   15.8005 C.3       4 GLC5        0.0000 
     20 CA         -7.8780   22.1080   17.2240 C.3      12 GLL5        0.0000 
     21 CA         -8.8780   24.0920   14.3770 C.3       8 GLP5        0.0000 
     22 CA         -8.8225   23.1775   18.4230 C.3       4 GLC5        0.0000 
     23 CA         -9.7670   24.2470   19.6220 C.3       8 GLP5        0.0000 
     24 CA         -7.4830   20.5925   18.3325 C.3       4 GLC5        0.0000 
     25 CA         -7.0880   19.0770   19.4410 C.3       8 GLP5        0.0000 
     26 CA         -9.2810   21.3805   16.3210 C.3       4 GLC5        0.0000 
     27 CA         -0.7360   29.6620   17.3665 C.3       4 GLC5        0.0000 
     28 CA          0.7140   28.7900   18.3770 C.3      12 GLL5        0.0000 
     29 CA         -2.1860   30.5340   16.3560 C.3       8 GLP5        0.0000 
     30 CA         -0.1015   28.8500   16.3115 C.3       4 GLC5        0.0000 
     31 CA          1.6290   28.3110   17.2390 C.3      12 GLL5        0.0000 
     32 CA         -1.8320   29.3890   15.3840 C.3       8 GLP5        0.0000 
     33 CA          2.0980   28.0560   15.1830 C.3       4 GLC5        0.0000 
     34 CA          2.5670   27.8010   13.1270 C.3       8 GLP5        0.0000 
     35 CA          3.1235   28.5360   14.9425 C.3       4 GLC5        0.0000 
     36 CA          3.6800   29.2710   16.7580 C.3      12 GLL5        0.0000 
     37 CA          5.3205   28.7980   15.3180 C.3       4 GLC5        0.0000 
     38 CA          6.9610   28.3250   13.8780 C.3       8 GLP5        0.0000 
     39 CA          3.1170   31.7750   14.7375 C.3       4 GLC5        0.0000 
     40 CA          4.7680   31.2790   16.0590 C.3      12 GLL5        0.0000 
     41 CA          1.4660   32.2710   13.4160 C.3       8 GLP5        0.0000 
     42 CA          5.8645   29.8020   14.9685 C.3       4 GLC5        0.0000 
     43 N           7.3000   35.4815   14.5915 N.am      2 SEC2        0.0000 
     44 N           6.4060   34.5060   15.1410 N.am     10 SEL2        0.0000 
     45 N           8.1940   36.4570   14.0420 N.am      6 SEP2        0.0000 
     46 O           4.6825   31.5330   13.6190 O.2       1 ALC1        0.0000 
     47 O           5.5370   32.7810   13.7300 O.2       9 ALL1        0.0000 
     48 O           3.8280   30.2850   13.5080 O.2       5 ALP1        0.0000 
     49 O           5.3395   33.4510   12.4985 O.2       1 ALC1        0.0000 
     50 O           5.1420   34.1210   11.2670 O.2       5 ALP1        0.0000 
     51 NZ         -4.6020   22.9660   24.7955 N.4       3 LYC4        0.0000 
     52 NZ         -3.8620   22.0300   23.7740 N.4      11 LYL4        0.0000 
     53 NZ         -6.5820   23.5110   26.1200 N.4       7 LYP4        0.0000 
     54 N          -4.6020   22.9660   24.7955 N.am      2 SEC2        0.0000 
     55 N          -3.8620   22.0300   23.7740 N.am     10 SEL2        0.0000 
     56 N          -5.3420   23.9020   25.8170 N.am      6 SEP2        0.0000 
     57 NZ         -4.7780   19.7555   20.9490 N.4       3 LYC4        0.0000 
     58 NZ         -3.8760   20.2980   22.0740 N.4      11 LYL4        0.0000 
     59 NZ         -4.6700   18.6680   19.1560 N.4       7 LYP4        0.0000 
     60 N          -4.7780   19.7555   20.9490 N.am      2 SEC2        0.0000 
     61 N          -3.8760   20.2980   22.0740 N.am     10 SEL2        0.0000 
     62 N          -5.6800   19.2130   19.8240 N.am      6 SEP2        0.0000 
     63 N          -3.6485   19.5705   20.8230 N.am      2 SEC2        0.0000 
     64 N          -3.4210   18.8430   19.5720 N.am      6 SEP2        0.0000 
     65 NZ         -6.6310   21.8330   24.2050 N.4       3 LYC4        0.0000 
     66 NZ         -6.0980   21.1020   23.0320 N.4      11 LYL4        0.0000 
     67 N          -6.6310   21.8330   24.2050 N.am      2 SEC2        0.0000 
     68 N          -6.0980   21.1020   23.0320 N.am     10 SEL2        0.0000 
     69 N          -7.1640   22.5640   25.3780 N.am      6 SEP2        0.0000 
     70 CA         -4.9618   23.5115   16.4130 C.3       4 GLC5        0.0000 
     71 CA         -5.2400   21.3080   16.8620 C.3      12 GLL5        0.0000 
     72 CA         -6.3800   20.3628   18.2884 C.3       4 GLC5        0.0000 
     73 CA         -5.5990   22.2760   17.7960 C.3      12 GLL5        0.0000 
     74 CA          4.3530   34.6795   16.6242 C.3       4 GLC5        0.0000 
     75 CA          5.2060   32.5880   16.1860 C.3      12 GLL5        0.0000 
     76 CA          3.5140   36.4250   16.3850 C.3       8 GLP5        0.0000 
     77 CA          2.7184   32.6302   17.9789 C.3       4 GLC5        0.0000 
     78 CA          5.1780   33.2800   17.5410 C.3      12 GLL5        0.0000 
     79 CA          0.8970   33.3020   17.7330 C.3       8 GLP5        0.0000 
@<TRIPOS>BOND
@<TRIPOS>SUBSTRUCTURE
     1 ALC1       46 GROUP        1 X    ALC  0     ROOT ALC X 1
     2 SEC2       16 GROUP        1 X    SEC  0     **** SEC X 2
     3 LYC4       51 GROUP        1 X    LYC  0     **** LYC X 4
     4 GLC5        1 GROUP        1 X    GLC  0     **** GLC X 6
     5 ALP1       48 GROUP        1 Y    ALP  0     ROOT ALP Y 8
     6 SEP2       18 GROUP        1 Y    SEP  0     **** SEP Y 9
     7 LYP4       53 GROUP        1 Y    LYP  0     **** LYP Y 11
     8 GLP5        3 GROUP        1 Y    GLP  0     **** GLP Y 13
     9 ALL1       47 GROUP        1 Z    ALL  0     ROOT ALL Z 15
    10 SEL2       17 GROUP        1 Z    SEL  0     **** SEL Z 16
    11 LYL4       52 GROUP        1 Z    LYL  0     **** LYL Z 18
    12 GLL5        2 GROUP        1 Z    GLL  0     **** GLL Z 20
@<TRIPOS>SET

