#    Name: 2vwp_NDP_1_ligand
#    Modification time : Tue Mar 25 03:11:21 2014

@<TRIPOS>MOLECULE
2vwp_NDP_1_ligand
   74    78     1     0     0
SMALL
NO_CHARGES


@<TRIPOS>ATOM
      1 PA          0.0640   26.4510   21.7070 P.3       1 NDP500      0.0000 
      2 O1A        -0.0980   26.6970   23.1620 O.co2     1 NDP500      0.0000 
      3 O2A         0.5960   25.0820   21.4130 O.co2     1 NDP500      0.0000 
      4 O5B        -1.3470   26.6560   20.9720 O.3       1 NDP500      0.0000 
      5 C5B        -1.7450   25.7780   19.9570 C.3       1 NDP500      0.0000 
      6 C4B        -3.1760   25.3970   20.2570 C.3       1 NDP500      0.0000 
      7 O4B        -3.6840   24.7860   19.1010 O.3       1 NDP500      0.0000 
      8 C3B        -3.2880   24.4040   21.4170 C.3       1 NDP500      0.0000 
      9 O3B        -4.1100   24.9390   22.4470 O.3       1 NDP500      0.0000 
     10 C2B        -3.8620   23.1530   20.7690 C.3       1 NDP500      0.0000 
     11 O2B        -4.9140   22.5690   21.4990 O.3       1 NDP500      0.0000 
     12 C1B        -4.4550   23.6850   19.4730 C.3       1 NDP500      0.0000 
     13 N9A        -4.4540   22.6720   18.4130 N.pl3     1 NDP500      0.0000 
     14 C8A        -3.3930   21.9690   17.8800 C.2       1 NDP500      0.0000 
     15 N7A        -3.8880   21.1390   16.9230 N.2       1 NDP500      0.0000 
     16 C5A        -5.2400   21.3080   16.8620 C.ar      1 NDP500      0.0000 
     17 C6A        -6.2500   20.7340   16.0890 C.ar      1 NDP500      0.0000 
     18 N6A        -6.0020   19.6970   15.2760 N.pl3     1 NDP500      0.0000 
     19 N1A        -7.5550   21.1520   16.2880 N.ar      1 NDP500      0.0000 
     20 C2A        -7.8780   22.1080   17.2240 C.ar      1 NDP500      0.0000 
     21 N3A        -6.8860   22.6730   17.9710 N.ar      1 NDP500      0.0000 
     22 C4A        -5.5990   22.2760   17.7960 C.ar      1 NDP500      0.0000 
     23 O3          1.0350   27.6180   21.1100 O.3       1 NDP500      0.0000 
     24 PN          0.7590   29.2300   20.9740 P.3       1 NDP500      0.0000 
     25 O1N        -0.6780   29.5890   20.9040 O.co2     1 NDP500      0.0000 
     26 O2N         1.5880   29.9810   21.9540 O.co2     1 NDP500      0.0000 
     27 O5D         1.4020   29.3560   19.4880 O.3       1 NDP500      0.0000 
     28 C5D         0.7140   28.7900   18.3770 C.3       1 NDP500      0.0000 
     29 C4D         1.6290   28.3110   17.2390 C.3       1 NDP500      0.0000 
     30 O4D         2.2770   29.4350   16.6690 O.3       1 NDP500      0.0000 
     31 C3D         2.7170   27.3100   17.6410 C.3       1 NDP500      0.0000 
     32 O3D         2.9510   26.3770   16.5970 O.3       1 NDP500      0.0000 
     33 C2D         3.9540   28.1720   17.7800 C.3       1 NDP500      0.0000 
     34 O2D         5.1270   27.4740   17.4390 O.3       1 NDP500      0.0000 
     35 C1D         3.6800   29.2710   16.7580 C.3       1 NDP500      0.0000 
     36 N1N         4.2800   30.5570   17.1060 N.pl3     1 NDP500      0.0000 
     37 C2N         4.7680   31.2790   16.0590 C.2       1 NDP500      0.0000 
     38 C3N         5.2060   32.5880   16.1860 C.2       1 NDP500      0.0000 
     39 C7N         5.7290   33.2990   14.9560 C.2       1 NDP500      0.0000 
     40 O7N         6.4060   34.5060   15.1410 O.2       1 NDP500      0.0000 
     41 N7N         5.5370   32.7810   13.7300 N.am      1 NDP500      0.0000 
     42 C4N         5.1780   33.2800   17.5410 C.3       1 NDP500      0.0000 
     43 C5N         4.6090   32.3880   18.6240 C.2       1 NDP500      0.0000 
     44 C6N         4.1860   31.0830   18.3670 C.2       1 NDP500      0.0000 
     45 P2B        -4.6750   21.4550   22.6380 P.3       1 NDP500      0.0000 
     46 O1X        -3.8620   22.0300   23.7740 O.co2     1 NDP500      0.0000 
     47 O2X        -3.8760   20.2980   22.0740 O.co2     1 NDP500      0.0000 
     48 O3X        -6.0980   21.1020   23.0320 O.co2     1 NDP500      0.0000 
     49 H          -1.1511   24.8662   19.9369 H         1 NDP500      0.0000 
     50 H          -1.7190   26.2395   18.9717 H         1 NDP500      0.0000 
     51 H          -3.7280   26.2820   20.5061 H         1 NDP500      0.0000 
     52 H          -2.2894   24.1845   21.7397 H         1 NDP500      0.0000 
     53 H          -3.0787   22.4967   20.5187 H         1 NDP500      0.0000 
     54 H          -5.4765   23.9881   19.6910 H         1 NDP500      0.0000 
     55 H          -2.4817   22.0575   18.1431 H         1 NDP500      0.0000 
     56 H          -5.0523   19.3866   15.2360 H         1 NDP500      0.0000 
     57 H          -6.7890   19.3268   14.7824 H         1 NDP500      0.0000 
     58 H          -8.8601   22.3902   17.3550 H         1 NDP500      0.0000 
     59 H          -0.0065   29.5162   17.9313 H         1 NDP500      0.0000 
     60 H           0.0931   27.9156   18.6851 H         1 NDP500      0.0000 
     61 H           1.0005   27.8319   16.4812 H         1 NDP500      0.0000 
     62 H           2.4820   26.8902   18.5621 H         1 NDP500      0.0000 
     63 H           3.9559   28.6118   18.7374 H         1 NDP500      0.0000 
     64 H           4.0696   28.9301   15.7992 H         1 NDP500      0.0000 
     65 H           4.8189   30.8315   15.1060 H         1 NDP500      0.0000 
     66 H           5.9003   33.3135   12.9655 H         1 NDP500      0.0000 
     67 H           5.0481   31.9095   13.6922 H         1 NDP500      0.0000 
     68 H           4.5727   34.1909   17.4652 H         1 NDP500      0.0000 
     69 H           6.1979   33.5762   17.8128 H         1 NDP500      0.0000 
     70 H           4.5530   32.8013   19.5597 H         1 NDP500      0.0000 
     71 H           3.8001   30.5179   19.1430 H         1 NDP500      0.0000 
     72 H          -4.3152   24.1631   23.0434 H         1 NDP500      0.0000 
     73 H           3.9117   26.5019   16.3490 H         1 NDP500      0.0000 
     74 H           5.6414   27.3997   18.2933 H         1 NDP500      0.0000 
@<TRIPOS>BOND
     1    2    1 ar   
     2    3    1 ar   
     3    4    1 1    
     4   23    1 1    
     5    5    4 1    
     6    6    5 1    
     7   49    5 1    
     8   50    5 1    
     9    7    6 1    
    10    8    6 1    
    11   51    6 1    
    12   12    7 1    
    13    9    8 1    
    14   10    8 1    
    15   52    8 1    
    16   72    9 1    
    17   11   10 1    
    18   12   10 1    
    19   53   10 1    
    20   45   11 1    
    21   13   12 1    
    22   54   12 1    
    23   14   13 1    
    24   22   13 1    
    25   15   14 2    
    26   55   14 1    
    27   16   15 1    
    28   17   16 ar   
    29   22   16 ar   
    30   18   17 1    
    31   19   17 ar   
    32   56   18 1    
    33   57   18 1    
    34   20   19 ar   
    35   21   20 ar   
    36   58   20 1    
    37   22   21 ar   
    38   24   23 1    
    39   25   24 ar   
    40   26   24 ar   
    41   27   24 1    
    42   28   27 1    
    43   29   28 1    
    44   59   28 1    
    45   60   28 1    
    46   30   29 1    
    47   31   29 1    
    48   61   29 1    
    49   35   30 1    
    50   32   31 1    
    51   33   31 1    
    52   62   31 1    
    53   73   32 1    
    54   34   33 1    
    55   35   33 1    
    56   63   33 1    
    57   74   34 1    
    58   36   35 1    
    59   64   35 1    
    60   37   36 1    
    61   44   36 1    
    62   38   37 2    
    63   65   37 1    
    64   39   38 1    
    65   42   38 1    
    66   40   39 2    
    67   41   39 am   
    68   66   41 1    
    69   67   41 1    
    70   43   42 1    
    71   68   42 1    
    72   69   42 1    
    73   44   43 2    
    74   70   43 1    
    75   71   44 1    
    76   46   45 ar   
    77   47   45 ar   
    78   48   45 ar   
@<TRIPOS>SUBSTRUCTURE
     1 NDP500      1 GROUP   
@<TRIPOS>SET

