#    Name: 3pym_NAD_1_INTS_M
#    Modification time : Tue Mar 25 08:42:56 2014

@<TRIPOS>MOLECULE
3pym_NAD_1_INTS_M
   66     0     9     0     0
SMALL
NO_CHARGES


@<TRIPOS>ATOM
      1 N          41.9125   25.5895   29.2035 N.am      2 SEC2        0.0000 
      2 N          42.7610   25.5080   30.3510 N.am      8 SEL2        0.0000 
      3 N          41.0640   25.6710   28.0560 N.am      5 SEP2        0.0000 
      4 CA         36.7705   25.3495   32.7920 C.3       3 GLC5        0.0000 
      5 CA         38.9190   25.6240   33.1970 C.3       9 GLL5        0.0000 
      6 CA         34.6220   25.0750   32.3870 C.3       6 GLP5        0.0000 
      7 O          37.5550   28.3150   32.9510 O.2       1 ALC1        0.0000 
      8 O          39.1040   27.9890   32.7990 O.2       7 ALL1        0.0000 
      9 O          36.0060   28.6410   33.1030 O.2       4 ALP1        0.0000 
     10 CA         38.0285   28.3030   36.8075 C.3       3 GLC5        0.0000 
     11 CA         38.7760   27.1950   35.0090 C.3       9 GLL5        0.0000 
     12 CA         37.2810   29.4110   38.6060 C.3       6 GLP5        0.0000 
     13 O          36.9740   29.0685   35.0865 O.2       1 ALC1        0.0000 
     14 O          38.4740   28.5620   35.1540 O.2       7 ALL1        0.0000 
     15 O          35.4740   29.5750   35.0190 O.2       4 ALP1        0.0000 
     16 O          37.2400   28.6015   34.1285 O.2       1 ALC1        0.0000 
     17 CA         36.0740   25.6980   33.6365 C.3       3 GLC5        0.0000 
     18 CA         37.5260   26.3210   34.8860 C.3       9 GLL5        0.0000 
     19 CA         34.0315   26.8470   38.5285 C.3       3 GLC5        0.0000 
     20 CA         34.3670   24.9200   38.3600 C.3       9 GLL5        0.0000 
     21 CA         33.6960   28.7740   38.6970 C.3       6 GLP5        0.0000 
     22 CA         33.9635   25.3455   34.3445 C.3       3 GLC5        0.0000 
     23 CA         33.3050   25.6160   36.3020 C.3       9 GLL5        0.0000 
     24 CA         32.9705   27.4165   35.3825 C.3       3 GLC5        0.0000 
     25 CA         32.6360   29.2170   34.4630 C.3       6 GLP5        0.0000 
     26 CA         33.3195   27.0940   36.7695 C.3       3 GLC5        0.0000 
     27 CA         33.3340   28.5720   37.2370 C.3       6 GLP5        0.0000 
     28 CA         33.8965   24.0960   35.7330 C.3       3 GLC5        0.0000 
     29 CA         34.4880   22.5760   35.1640 C.3       6 GLP5        0.0000 
     30 CA         35.1465   25.3715   34.4295 C.3       3 GLC5        0.0000 
     31 CA         35.6710   25.6680   36.4720 C.3       9 GLL5        0.0000 
     32 N          40.6560   23.1425   27.9960 N.am      2 SEC2        0.0000 
     33 N          41.1430   22.9580   29.3200 N.am      8 SEL2        0.0000 
     34 N          40.1690   23.3270   26.6720 N.am      5 SEP2        0.0000 
     35 CA         41.1435   19.0535   28.5165 C.3       3 GLC5        0.0000 
     36 CA         41.6510   17.6960   30.0370 C.3       9 GLL5        0.0000 
     37 CA         40.6360   20.4110   26.9960 C.3       6 GLP5        0.0000 
     38 CA         41.9550   19.5280   27.7145 C.3       3 GLC5        0.0000 
     39 CA         43.2740   18.6450   28.4330 C.3       9 GLL5        0.0000 
     40 N          47.1055   19.5030   25.1735 N.am      2 SEC2        0.0000 
     41 N          46.0890   19.3190   26.0670 N.am      8 SEL2        0.0000 
     42 N          48.1220   19.6870   24.2800 N.am      5 SEP2        0.0000 
     43 CA         44.0785   15.5230   25.6670 C.3       3 GLC5        0.0000 
     44 CA         43.0600   16.3850   26.8250 C.3       9 GLL5        0.0000 
     45 CA         45.0970   14.6610   24.5090 C.3       6 GLP5        0.0000 
     46 CA         41.4805   18.4475   27.5005 C.3       3 GLC5        0.0000 
     47 CA         42.3250   16.4840   28.0050 C.3       9 GLL5        0.0000 
     48 CA         39.4748   26.3399   31.5069 C.3       3 GLC5        0.0000 
     49 CA         40.0270   24.5870   32.9820 C.3       9 GLL5        0.0000 
     50 CA         39.4750   26.6460   29.6240 C.3       6 GLP5        0.0000 
     51 CA         34.4857   26.9987   37.1810 C.3       3 GLC5        0.0000 
     52 CA         34.9081   23.9679   36.2172 C.3       3 GLC5        0.0000 
     53 CA         35.6040   25.1830   37.7780 C.3       9 GLL5        0.0000 
     54 CA         40.5652   20.2082   29.0770 C.3       3 GLC5        0.0000 
     55 CA         40.5840   20.7560   31.0900 C.3       9 GLL5        0.0000 
     56 CA         39.8970   18.7995   33.4663 C.3       3 GLC5        0.0000 
     57 CA         40.4050   19.2550   31.2260 C.3       9 GLL5        0.0000 
     58 CA         38.8640   18.6260   35.2330 C.3       6 GLP5        0.0000 
     59 CA         45.1217   16.5180   26.3270 C.3       3 GLC5        0.0000 
     60 CA         44.0220   18.5700   27.2470 C.3       9 GLL5        0.0000 
     61 CA         46.2800   15.0350   25.8090 C.3       6 GLP5        0.0000 
     62 CA         42.5907   16.4678   24.7545 C.3       3 GLC5        0.0000 
     63 CA         43.9050   17.4320   26.4430 C.3       9 GLL5        0.0000 
     64 CA         41.6990   16.0270   22.8750 C.3       6 GLP5        0.0000 
     65 CA         42.4019   18.6845   26.2415 C.3       3 GLC5        0.0000 
     66 CA         41.2920   20.1760   25.6480 C.3       6 GLP5        0.0000 
@<TRIPOS>BOND
@<TRIPOS>SUBSTRUCTURE
     1 ALC1        7 GROUP        1 X    ALC  0     ROOT ALC X 1
     2 SEC2        1 GROUP        1 X    SEC  0     **** SEC X 2
     3 GLC5        4 GROUP        1 X    GLC  0     **** GLC X 6
     4 ALP1        9 GROUP        1 Y    ALP  0     ROOT ALP Y 8
     5 SEP2        3 GROUP        1 Y    SEP  0     **** SEP Y 9
     6 GLP5        6 GROUP        1 Y    GLP  0     **** GLP Y 13
     7 ALL1        8 GROUP        1 Z    ALL  0     ROOT ALL Z 15
     8 SEL2        2 GROUP        1 Z    SEL  0     **** SEL Z 16
     9 GLL5        5 GROUP        1 Z    GLL  0     **** GLL Z 20
@<TRIPOS>SET

