#    Name: 3pym_NAD_1_ligand
#    Modification time : Tue Mar 25 08:42:56 2014

@<TRIPOS>MOLECULE
3pym_NAD_1_ligand
   70    74     1     0     0
SMALL
NO_CHARGES


@<TRIPOS>ATOM
      1 PA         42.2770   24.8420   31.5530 P.3       1 NAD333      0.0000 
      2 O1A        42.9430   25.2680   32.8080 O.co2     1 NAD333      0.0000 
      3 O2A        42.7610   25.5080   30.3510 O.co2     1 NAD333      0.0000 
      4 O5B        40.6690   24.9210   31.7560 O.3       1 NAD333      0.0000 
      5 C5B        40.0270   24.5870   32.9820 C.3       1 NAD333      0.0000 
      6 C4B        38.9190   25.6240   33.1970 C.3       1 NAD333      0.0000 
      7 O4B        37.9240   25.2050   34.1190 O.3       1 NAD333      0.0000 
      8 C3B        39.4760   26.9620   33.6900 C.3       1 NAD333      0.0000 
      9 O3B        39.1040   27.9890   32.7990 O.3       1 NAD333      0.0000 
     10 C2B        38.7760   27.1950   35.0090 C.3       1 NAD333      0.0000 
     11 O2B        38.4740   28.5620   35.1540 O.3       1 NAD333      0.0000 
     12 C1B        37.5260   26.3210   34.8860 C.3       1 NAD333      0.0000 
     13 N9A        36.9970   25.8360   36.1760 N.pl3     1 NAD333      0.0000 
     14 C8A        37.7280   25.4650   37.2840 C.2       1 NAD333      0.0000 
     15 N7A        36.8690   25.0680   38.2460 N.2       1 NAD333      0.0000 
     16 C5A        35.6040   25.1830   37.7780 C.ar      1 NAD333      0.0000 
     17 C6A        34.3670   24.9200   38.3600 C.ar      1 NAD333      0.0000 
     18 N6A        34.2730   24.7970   39.6910 N.pl3     1 NAD333      0.0000 
     19 N1A        33.2330   25.1340   37.6050 N.ar      1 NAD333      0.0000 
     20 C2A        33.3050   25.6160   36.3020 C.ar      1 NAD333      0.0000 
     21 N3A        34.5470   25.8860   35.7500 N.ar      1 NAD333      0.0000 
     22 C4A        35.6710   25.6680   36.4720 C.ar      1 NAD333      0.0000 
     23 O3         42.5670   23.2610   31.3940 O.3       1 NAD333      0.0000 
     24 PN         42.3450   22.4130   30.0230 P.3       1 NAD333      0.0000 
     25 O1N        43.6910   22.2010   29.3990 O.co2     1 NAD333      0.0000 
     26 O2N        41.1430   22.9580   29.3200 O.co2     1 NAD333      0.0000 
     27 O5D        41.9060   20.9670   30.6210 O.3       1 NAD333      0.0000 
     28 C5D        40.5840   20.7560   31.0900 C.3       1 NAD333      0.0000 
     29 C4D        40.4050   19.2550   31.2260 C.3       1 NAD333      0.0000 
     30 O4D        40.6330   18.6750   29.9450 O.3       1 NAD333      0.0000 
     31 C3D        41.4550   18.6910   32.1730 C.3       1 NAD333      0.0000 
     32 O3D        40.8810   17.6430   32.9120 O.3       1 NAD333      0.0000 
     33 C2D        42.4970   18.1510   31.2190 C.3       1 NAD333      0.0000 
     34 O2D        43.2360   17.0700   31.7320 O.3       1 NAD333      0.0000 
     35 C1D        41.6510   17.6960   30.0370 C.3       1 NAD333      0.0000 
     36 N1N        42.4400   17.6070   28.7920 N.pl3     1 NAD333      0.0000 
     37 C2N        43.2740   18.6450   28.4330 C.ar      1 NAD333      0.0000 
     38 C3N        44.0220   18.5700   27.2470 C.ar      1 NAD333      0.0000 
     39 C7N        44.9770   19.6710   26.8540 C.2       1 NAD333      0.0000 
     40 O7N        46.0890   19.3190   26.0670 O.2       1 NAD333      0.0000 
     41 N7N        44.7540   20.9370   27.2310 N.am      1 NAD333      0.0000 
     42 C4N        43.9050   17.4320   26.4430 C.ar      1 NAD333      0.0000 
     43 C5N        43.0600   16.3850   26.8250 C.ar      1 NAD333      0.0000 
     44 C6N        42.3250   16.4840   28.0050 C.ar      1 NAD333      0.0000 
     45 H          40.7024   24.6424   33.8282 H         1 NAD333      0.0000 
     46 H          39.5634   23.6075   32.9498 H         1 NAD333      0.0000 
     47 H          38.4585   25.8267   32.2149 H         1 NAD333      0.0000 
     48 H          40.5026   26.8701   33.8498 H         1 NAD333      0.0000 
     49 H          39.3857   26.7941   35.7793 H         1 NAD333      0.0000 
     50 H          36.7764   26.8861   34.3586 H         1 NAD333      0.0000 
     51 H          38.6854   25.4908   37.3444 H         1 NAD333      0.0000 
     52 H          35.1236   24.9103   40.2045 H         1 NAD333      0.0000 
     53 H          33.3607   24.6029   40.0516 H         1 NAD333      0.0000 
     54 H          32.4506   25.7683   35.7604 H         1 NAD333      0.0000 
     55 H          39.8377   21.1235   30.3920 H         1 NAD333      0.0000 
     56 H          40.4179   21.2058   32.0643 H         1 NAD333      0.0000 
     57 H          39.4419   19.0410   31.5967 H         1 NAD333      0.0000 
     58 H          41.8594   19.4678   32.7328 H         1 NAD333      0.0000 
     59 H          43.0949   18.9692   30.8784 H         1 NAD333      0.0000 
     60 H          41.2323   16.7375   30.2938 H         1 NAD333      0.0000 
     61 H          43.3561   19.4806   29.0276 H         1 NAD333      0.0000 
     62 H          43.9202   21.0985   27.7589 H         1 NAD333      0.0000 
     63 H          45.4413   21.6071   26.9508 H         1 NAD333      0.0000 
     64 H          44.4409   17.3646   25.5696 H         1 NAD333      0.0000 
     65 H          42.9831   15.5487   26.2376 H         1 NAD333      0.0000 
     66 H          41.6995   15.7143   28.2804 H         1 NAD333      0.0000 
     67 H          38.1204   28.1064   32.9357 H         1 NAD333      0.0000 
     68 H          37.4810   28.6199   35.0512 H         1 NAD333      0.0000 
     69 H          41.3932   16.8269   32.6442 H         1 NAD333      0.0000 
     70 H          43.9583   17.4885   32.2825 H         1 NAD333      0.0000 
@<TRIPOS>BOND
     1    2    1 ar   
     2    3    1 ar   
     3    4    1 1    
     4   23    1 1    
     5    5    4 1    
     6    6    5 1    
     7   45    5 1    
     8   46    5 1    
     9    7    6 1    
    10    8    6 1    
    11   47    6 1    
    12   12    7 1    
    13    9    8 1    
    14   10    8 1    
    15   48    8 1    
    16   67    9 1    
    17   11   10 1    
    18   12   10 1    
    19   49   10 1    
    20   68   11 1    
    21   13   12 1    
    22   50   12 1    
    23   14   13 1    
    24   22   13 1    
    25   15   14 2    
    26   51   14 1    
    27   16   15 1    
    28   17   16 ar   
    29   22   16 ar   
    30   18   17 1    
    31   19   17 ar   
    32   52   18 1    
    33   53   18 1    
    34   20   19 ar   
    35   21   20 ar   
    36   54   20 1    
    37   22   21 ar   
    38   24   23 1    
    39   25   24 ar   
    40   26   24 ar   
    41   27   24 1    
    42   28   27 1    
    43   29   28 1    
    44   55   28 1    
    45   56   28 1    
    46   30   29 1    
    47   31   29 1    
    48   57   29 1    
    49   35   30 1    
    50   32   31 1    
    51   33   31 1    
    52   58   31 1    
    53   69   32 1    
    54   34   33 1    
    55   35   33 1    
    56   59   33 1    
    57   70   34 1    
    58   36   35 1    
    59   60   35 1    
    60   37   36 ar   
    61   44   36 ar   
    62   38   37 ar   
    63   61   37 1    
    64   39   38 1    
    65   42   38 ar   
    66   40   39 2    
    67   41   39 am   
    68   62   41 1    
    69   63   41 1    
    70   43   42 ar   
    71   64   42 1    
    72   44   43 ar   
    73   65   43 1    
    74   66   44 1    
@<TRIPOS>SUBSTRUCTURE
     1 NAD333      1 GROUP   
@<TRIPOS>SET

