#    Name: 3cct_3HI_1_INTS_M
#    Modification time : Mon Mar 24 20:39:16 2014

@<TRIPOS>MOLECULE
3cct_3HI_1_INTS_M
  104     0    12     0     0
SMALL
NO_CHARGES


@<TRIPOS>ATOM
      1 CA         33.8925   -6.8185   -8.7580 C.3       4 GLC5        0.0000 
      2 CA         32.0380   -7.3870   -9.7740 C.3      12 GLL5        0.0000 
      3 CA         35.7470   -6.2500   -7.7420 C.3       8 GLP5        0.0000 
      4 CA         32.5860   -7.7155   -6.2620 C.3       4 GLC5        0.0000 
      5 CA         31.1150   -6.9110   -7.5240 C.3      12 GLL5        0.0000 
      6 CA         34.0570   -8.5200   -5.0000 C.3       8 GLP5        0.0000 
      7 CA         29.9035   -7.9855   -6.2145 C.3       4 GLC5        0.0000 
      8 CA         28.6920   -9.0600   -4.9050 C.3       8 GLP5        0.0000 
      9 CA         31.1905  -11.4385  -12.1595 C.3       4 GLC5        0.0000 
     10 CA         32.9010  -10.3690  -12.6390 C.3      12 GLL5        0.0000 
     11 CA         29.4800  -12.5080  -11.6800 C.3       8 GLP5        0.0000 
     12 CA         33.5470  -12.2050  -12.2940 C.3       4 GLC5        0.0000 
     13 CA         34.1930  -14.0410  -11.9490 C.3       8 GLP5        0.0000 
     14 CA         29.0610   -1.9535  -13.6665 C.3       4 GLC5        0.0000 
     15 CA         30.7320   -3.1220  -13.0870 C.3      12 GLL5        0.0000 
     16 CA         27.3900   -0.7850  -14.2460 C.3       8 GLP5        0.0000 
     17 CA         38.0970  -10.2705  -14.0845 C.3       4 GLC5        0.0000 
     18 CA         38.3560   -8.9490  -15.4550 C.3      12 GLL5        0.0000 
     19 CA         37.8380  -11.5920  -12.7140 C.3       8 GLP5        0.0000 
     20 CA         39.2405  -10.8295  -14.6945 C.3       4 GLC5        0.0000 
     21 CA         39.5610   -9.1470  -16.1190 C.3      12 GLL5        0.0000 
     22 CA         38.9200  -12.5120  -13.2700 C.3       8 GLP5        0.0000 
     23 CA         41.6640   -9.6290  -15.9295 C.3       4 GLC5        0.0000 
     24 CA         43.7670  -10.1110  -15.7400 C.3       8 GLP5        0.0000 
     25 CA         32.1330   -1.4190   -9.4260 C.3       4 GLC5        0.0000 
     26 CA         31.9750   -2.7930  -11.0480 C.3      12 GLL5        0.0000 
     27 CA         32.2910   -0.0450   -7.8040 C.3       8 GLP5        0.0000 
     28 CA         36.4620   -1.5550  -16.7420 C.3       4 GLC5        0.0000 
     29 CA         35.8300   -2.6200  -15.3180 C.3      12 GLL5        0.0000 
     30 CA         37.0940   -0.4900  -18.1660 C.3       8 GLP5        0.0000 
     31 NZ         34.0760   -2.1670   -6.1455 N.4       3 LYC4        0.0000 
     32 NZ         33.3420   -3.2190   -6.7120 N.4      11 LYL4        0.0000 
     33 NZ         34.8100   -1.1150   -5.5790 N.4       7 LYP4        0.0000 
     34 N          34.0760   -2.1670   -6.1455 N.am      2 SEC2        0.0000 
     35 N          33.3420   -3.2190   -6.7120 N.am     10 SEL2        0.0000 
     36 N          34.8100   -1.1150   -5.5790 N.am      6 SEP2        0.0000 
     37 NZ         33.1855   -1.9320   -5.5485 N.4       3 LYC4        0.0000 
     38 NZ         31.5610   -2.7490   -5.5180 N.4      11 LYL4        0.0000 
     39 NZ         31.9170   -3.2225   -4.1145 N.4       3 LYC4        0.0000 
     40 NZ         32.2730   -3.6960   -2.7110 N.4       7 LYP4        0.0000 
     41 N          31.7390   -1.5390   -5.9915 N.am      2 SEC2        0.0000 
     42 N          31.5610   -2.7490   -5.5180 N.am     10 SEL2        0.0000 
     43 N          31.9170   -0.3290   -6.4650 N.am      6 SEP2        0.0000 
     44 CA         32.9870   -6.7700   -5.5875 C.3       4 GLC5        0.0000 
     45 CA         31.9170   -5.0200   -6.1750 C.3      12 GLL5        0.0000 
     46 CA         33.8320   -5.6350   -6.9585 C.3       4 GLC5        0.0000 
     47 CA         29.1175   -5.2140   -8.0875 C.3       4 GLC5        0.0000 
     48 CA         31.2690   -5.3980   -7.5090 C.3      12 GLL5        0.0000 
     49 CA         26.9660   -5.0300   -8.6660 C.3       8 GLP5        0.0000 
     50 N          29.2605   -3.7205   -8.7715 N.am      2 SEC2        0.0000 
     51 N          29.9880   -4.7970   -7.6710 N.am     10 SEL2        0.0000 
     52 N          28.5330   -2.6440   -9.8720 N.am      6 SEP2        0.0000 
     53 N          29.7530   -3.4295   -7.7645 N.am      2 SEC2        0.0000 
     54 N          29.5180   -2.0620   -7.8580 N.am      6 SEP2        0.0000 
     55 O          29.0370   -5.4525   -6.9875 O.2       1 ALC1        0.0000 
     56 O          29.9880   -4.7970   -7.6710 O.2       9 ALL1        0.0000 
     57 O          28.0860   -6.1080   -6.3040 O.2       5 ALP1        0.0000 
     58 N          31.2650   -9.7710   -7.9755 N.am      2 SEC2        0.0000 
     59 N          30.3900   -8.8290   -8.7220 N.am     10 SEL2        0.0000 
     60 N          32.1400  -10.7130   -7.2290 N.am      6 SEP2        0.0000 
     61 N          29.3805   -9.4705   -7.9285 N.am      2 SEC2        0.0000 
     62 N          28.3710  -10.1120   -7.1350 N.am      6 SEP2        0.0000 
     63 O          29.9110   -9.5520   -9.7910 O.2       1 ALC1        0.0000 
     64 O          30.3900   -8.8290   -8.7220 O.2       9 ALL1        0.0000 
     65 O          29.4320  -10.2750  -10.8600 O.2       5 ALP1        0.0000 
     66 CA         29.0100   -0.5790  -10.9425 C.3       4 GLC5        0.0000 
     67 CA         30.4070   -1.1990  -11.7500 C.3      12 GLL5        0.0000 
     68 CA         27.6130    0.0410  -10.1350 C.3       8 GLP5        0.0000 
     69 CA         28.8985   -0.9920  -12.9980 C.3       4 GLC5        0.0000 
     70 CA         34.3630  -11.6110   -9.8600 C.3       4 GLC5        0.0000 
     71 CA         34.5000   -9.7380  -10.7640 C.3      12 GLL5        0.0000 
     72 CA         34.2260  -13.4840   -8.9560 C.3       8 GLP5        0.0000 
     73 CA         35.2805   -7.6845  -10.4530 C.3       4 GLC5        0.0000 
     74 CA         36.0610   -5.6310  -10.1420 C.3       8 GLP5        0.0000 
     75 CA         34.5965   -2.2640  -17.1935 C.3       4 GLC5        0.0000 
     76 CA         35.1710   -3.6190  -16.0340 C.3      12 GLL5        0.0000 
     77 CA         34.0220   -0.9090  -18.3530 C.3       8 GLP5        0.0000 
     78 N          37.6465   -9.4165  -12.6650 N.am      2 SEC2        0.0000 
     79 N          36.8770   -8.4050  -13.1760 N.am     10 SEL2        0.0000 
     80 N          38.4160  -10.4280  -12.1540 N.am      6 SEP2        0.0000 
     81 CA         33.6295  -10.8405  -14.2033 C.3       4 GLC5        0.0000 
     82 CA         34.1110   -9.5350  -12.2220 C.3      12 GLL5        0.0000 
     83 CA         33.7530  -11.7290  -15.9760 C.3       8 GLP5        0.0000 
     84 CA         36.0717  -10.6143  -12.1035 C.3       4 GLC5        0.0000 
     85 CA         34.3649   -5.1666  -11.0005 C.3       4 GLC5        0.0000 
     86 CA         33.0760   -6.0490  -12.5300 C.3      12 GLL5        0.0000 
     87 CA         33.8860   -2.2495  -10.9195 C.3       4 GLC5        0.0000 
     88 CA         32.6290   -3.9970  -11.2620 C.3      12 GLL5        0.0000 
     89 CA         35.4700   -1.1040  -10.6840 C.3       8 GLP5        0.0000 
     90 CA         35.6160   -2.2008  -12.1472 C.3       4 GLC5        0.0000 
     91 CA         36.0060   -2.7410  -13.9460 C.3      12 GLL5        0.0000 
     92 CA         38.3077   -6.0725  -15.1440 C.3       4 GLC5        0.0000 
     93 CA         37.4700   -7.9510  -15.8710 C.3      12 GLL5        0.0000 
     94 CA         38.9760   -4.5900  -13.8640 C.3       8 GLP5        0.0000 
     95 CA         29.7170   -4.6990   -5.8515 C.3       4 GLC5        0.0000 
     96 CA         27.8410   -4.1890   -4.8610 C.3       8 GLP5        0.0000 
     97 CA         32.0749   -0.5710  -12.0874 C.3       4 GLC5        0.0000 
     98 CA         33.1950    0.7460  -12.5470 C.3       8 GLP5        0.0000 
     99 CA         35.2125   -6.6677  -11.5105 C.3       4 GLC5        0.0000 
    100 CA         34.8110   -7.3240  -13.2660 C.3      12 GLL5        0.0000 
    101 CA         37.0832   -4.4712  -13.7462 C.3       4 GLC5        0.0000 
    102 CA         35.5180   -3.8540  -13.2750 C.3      12 GLL5        0.0000 
    103 CA         35.5579   -5.1412  -11.7986 C.3       4 GLC5        0.0000 
    104 CA         37.2602   -3.8699  -14.5985 C.3       4 GLC5        0.0000 
@<TRIPOS>BOND
@<TRIPOS>SUBSTRUCTURE
     1 ALC1       55 GROUP        1 X    ALC  0     ROOT ALC X 1
     2 SEC2       34 GROUP        1 X    SEC  0     **** SEC X 2
     3 LYC4       31 GROUP        1 X    LYC  0     **** LYC X 4
     4 GLC5        1 GROUP        1 X    GLC  0     **** GLC X 6
     5 ALP1       57 GROUP        1 Y    ALP  0     ROOT ALP Y 8
     6 SEP2       36 GROUP        1 Y    SEP  0     **** SEP Y 9
     7 LYP4       33 GROUP        1 Y    LYP  0     **** LYP Y 11
     8 GLP5        3 GROUP        1 Y    GLP  0     **** GLP Y 13
     9 ALL1       56 GROUP        1 Z    ALL  0     ROOT ALL Z 15
    10 SEL2       35 GROUP        1 Z    SEL  0     **** SEL Z 16
    11 LYL4       32 GROUP        1 Z    LYL  0     **** LYL Z 18
    12 GLL5        2 GROUP        1 Z    GLL  0     **** GLL Z 20
@<TRIPOS>SET

