#    Name: 3cct_3HI_1_ligand
#    Modification time : Mon Mar 24 20:39:16 2014

@<TRIPOS>MOLECULE
3cct_3HI_1_ligand
   76    79     1     0     0
SMALL
NO_CHARGES


@<TRIPOS>ATOM
      1 N1         32.8920   -7.2870  -12.0660 N.pl3     1 3HI1        0.0000 
      2 C5         33.0760   -6.0490  -12.5300 C.2       1 3HI1        0.0000 
      3 C6         34.1110   -9.5350  -12.2220 C.3       1 3HI1        0.0000 
      4 C7         31.7240   -7.6330  -11.2460 C.3       1 3HI1        0.0000 
      5 C8         32.0380   -7.3870   -9.7740 C.3       1 3HI1        0.0000 
      6 C10        31.1150   -6.9110   -7.5240 C.3       1 3HI1        0.0000 
      7 C13        32.9010  -10.3690  -12.6390 C.3       1 3HI1        0.0000 
      8 C15        30.7320   -3.1220  -13.0870 C.ar      1 3HI1        0.0000 
      9 C17        38.3560   -8.9490  -15.4550 C.ar      1 3HI1        0.0000 
     10 C20        39.5610   -9.1470  -16.1190 C.ar      1 3HI1        0.0000 
     11 C21        32.6290   -3.9970  -11.2620 C.ar      1 3HI1        0.0000 
     12 C22        36.0060   -2.7410  -13.9460 C.ar      1 3HI1        0.0000 
     13 C24        31.9750   -2.7930  -11.0480 C.ar      1 3HI1        0.0000 
     14 C26        37.8090   -7.1590  -16.9770 C.ar      1 3HI1        0.0000 
     15 C28        35.8300   -2.6200  -15.3180 C.ar      1 3HI1        0.0000 
     16 O7         33.3420   -3.2190   -6.7120 O.co2     1 3HI1        0.0000 
     17 C36        32.2940   -3.5660   -6.1270 C.2       1 3HI1        0.0000 
     18 O6         31.5610   -2.7490   -5.5180 O.co2     1 3HI1        0.0000 
     19 C35        31.9170   -5.0200   -6.1750 C.3       1 3HI1        0.0000 
     20 C11        31.2690   -5.3980   -7.5090 C.3       1 3HI1        0.0000 
     21 O3         29.9880   -4.7970   -7.6710 O.3       1 3HI1        0.0000 
     22 C9         30.7920   -7.4770   -8.8950 C.3       1 3HI1        0.0000 
     23 O4         30.3900   -8.8290   -8.7220 O.3       1 3HI1        0.0000 
     24 C27        32.3410   -4.7660  -12.3820 C.ar      1 3HI1        0.0000 
     25 C30        31.0300   -2.3610  -11.9630 C.ar      1 3HI1        0.0000 
     26 F1         30.4070   -1.1990  -11.7500 F         1 3HI1        0.0000 
     27 C18        31.3910   -4.3320  -13.2990 C.ar      1 3HI1        0.0000 
     28 C12        33.9170   -8.0850  -12.4920 C.2       1 3HI1        0.0000 
     29 C14        34.5000   -9.7380  -10.7640 C.3       1 3HI1        0.0000 
     30 C2         34.8110   -7.3240  -13.2660 C.2       1 3HI1        0.0000 
     31 C1         34.3200   -6.0470  -13.2890 C.2       1 3HI1        0.0000 
     32 C31        34.8630   -4.8510  -13.9820 C.ar      1 3HI1        0.0000 
     33 C25        35.5180   -3.8540  -13.2750 C.ar      1 3HI1        0.0000 
     34 C19        35.1710   -3.6190  -16.0340 C.ar      1 3HI1        0.0000 
     35 C16        34.6740   -4.7300  -15.3560 C.ar      1 3HI1        0.0000 
     36 C3         36.0680   -7.8270  -13.8970 C.2       1 3HI1        0.0000 
     37 O1         36.8770   -8.4050  -13.1760 O.2       1 3HI1        0.0000 
     38 N2         36.2350   -7.7300  -15.2130 N.am      1 3HI1        0.0000 
     39 C32        37.4700   -7.9510  -15.8710 C.ar      1 3HI1        0.0000 
     40 O2         36.9850   -6.2000  -17.4100 O.3       1 3HI1        0.0000 
     41 C23        39.0180   -7.3580  -17.6510 C.ar      1 3HI1        0.0000 
     42 C29        39.8920   -8.3530  -17.2180 C.ar      1 3HI1        0.0000 
     43 H          34.9737   -9.8772  -12.8337 H         1 3HI1        0.0000 
     44 H          31.4603   -8.6843  -11.3725 H         1 3HI1        0.0000 
     45 H          30.8627   -7.0228  -11.5226 H         1 3HI1        0.0000 
     46 H          32.4837   -6.3931   -9.6625 H         1 3HI1        0.0000 
     47 H          32.7702   -8.1267   -9.4339 H         1 3HI1        0.0000 
     48 H          30.3166   -7.1969   -6.8189 H         1 3HI1        0.0000 
     49 H          32.0477   -7.3697   -7.1554 H         1 3HI1        0.0000 
     50 H          30.0291   -2.7958  -13.7602 H         1 3HI1        0.0000 
     51 H          38.1102   -9.5419  -14.6477 H         1 3HI1        0.0000 
     52 H          40.2105   -9.8781  -15.8023 H         1 3HI1        0.0000 
     53 H          33.3355   -4.3250  -10.5841 H         1 3HI1        0.0000 
     54 H          36.5003   -2.0025  -13.4245 H         1 3HI1        0.0000 
     55 H          32.1901   -2.2284  -10.2191 H         1 3HI1        0.0000 
     56 H          36.1869   -1.7894  -15.8119 H         1 3HI1        0.0000 
     57 H          31.2137   -5.2478   -5.3661 H         1 3HI1        0.0000 
     58 H          32.8092   -5.6396   -6.0301 H         1 3HI1        0.0000 
     59 H          31.9471   -5.1301   -8.2994 H         1 3HI1        0.0000 
     60 H          30.0181   -6.8805   -9.3310 H         1 3HI1        0.0000 
     61 H          31.1750   -4.8968  -14.1266 H         1 3HI1        0.0000 
     62 H          35.6420   -3.9381  -12.2585 H         1 3HI1        0.0000 
     63 H          35.0541   -3.5363  -17.0464 H         1 3HI1        0.0000 
     64 H          34.1671   -5.4611  -15.8714 H         1 3HI1        0.0000 
     65 H          35.4158   -7.4736  -15.8382 H         1 3HI1        0.0000 
     66 H          39.2575   -6.7748  -18.4577 H         1 3HI1        0.0000 
     67 H          40.7829   -8.5034  -17.7085 H         1 3HI1        0.0000 
     68 H          32.7083  -10.2810  -13.6163 H         1 3HI1        0.0000 
     69 H          33.0390  -11.3420  -12.4539 H         1 3HI1        0.0000 
     70 H          32.0732  -10.0923  -12.1509 H         1 3HI1        0.0000 
     71 H          34.7379  -10.6902  -10.5722 H         1 3HI1        0.0000 
     72 H          35.2908   -9.1813  -10.5097 H         1 3HI1        0.0000 
     73 H          33.7559   -9.4910  -10.1432 H         1 3HI1        0.0000 
     74 H          29.3645   -5.3695   -7.1385 H         1 3HI1        0.0000 
     75 H          30.0579   -9.1171   -9.6202 H         1 3HI1        0.0000 
     76 H          37.5624   -5.6226  -16.8326 H         1 3HI1        0.0000 
@<TRIPOS>BOND
     1    2    1 1    
     2    4    1 1    
     3   28    1 1    
     4   24    2 1    
     5   31    2 2    
     6    7    3 1    
     7   28    3 1    
     8   29    3 1    
     9   43    3 1    
    10    5    4 1    
    11   44    4 1    
    12   45    4 1    
    13   22    5 1    
    14   46    5 1    
    15   47    5 1    
    16   20    6 1    
    17   22    6 1    
    18   48    6 1    
    19   49    6 1    
    20   68    7 1    
    21   69    7 1    
    22   70    7 1    
    23   25    8 ar   
    24   27    8 ar   
    25   50    8 1    
    26   10    9 ar   
    27   39    9 ar   
    28   51    9 1    
    29   42   10 ar   
    30   52   10 1    
    31   13   11 ar   
    32   24   11 ar   
    33   53   11 1    
    34   15   12 ar   
    35   33   12 ar   
    36   54   12 1    
    37   25   13 ar   
    38   55   13 1    
    39   39   14 ar   
    40   40   14 1    
    41   41   14 ar   
    42   34   15 ar   
    43   56   15 1    
    44   17   16 ar   
    45   18   17 ar   
    46   19   17 1    
    47   20   19 1    
    48   57   19 1    
    49   58   19 1    
    50   21   20 1    
    51   59   20 1    
    52   74   21 1    
    53   23   22 1    
    54   60   22 1    
    55   75   23 1    
    56   27   24 ar   
    57   26   25 1    
    58   61   27 1    
    59   30   28 2    
    60   71   29 1    
    61   72   29 1    
    62   73   29 1    
    63   31   30 1    
    64   36   30 1    
    65   32   31 1    
    66   33   32 ar   
    67   35   32 ar   
    68   62   33 1    
    69   35   34 ar   
    70   63   34 1    
    71   64   35 1    
    72   37   36 2    
    73   38   36 am   
    74   39   38 1    
    75   65   38 1    
    76   76   40 1    
    77   42   41 ar   
    78   66   41 1    
    79   67   42 1    
@<TRIPOS>SUBSTRUCTURE
     1 3HI1        1 GROUP   
@<TRIPOS>SET

