#    Name: 3RLJ_1_CAVITY_N1_ALL.mol2
#    Modification time : Mon Mar 10 20:47:43 2014

@<TRIPOS>MOLECULE
3RLJ_1_CAVITY_N1_ALL.mol2
   45     0     4     0     0
SMALL
NO_CHARGES


@<TRIPOS>ATOM
      1 CA         30.9147    2.0873    4.9324 C.3       3 GLY6        0.0000 
      2 N          29.9433    1.3634    4.0480 N.2       1 ALA2        0.0000 
      3 CA         28.9719    0.6394    3.1636 C.3       3 GLY6        0.0000 
      4 CA         28.0004   -0.0845    2.2792 C.3       3 GLY6        0.0000 
      5 CA         29.7735    2.6382    5.7350 C.3       3 GLY6        0.0000 
      6 N          29.7110    3.8308    4.8275 N.2       1 ALA2        0.0000 
      7 CA         28.8646    0.7215    5.7582 C.3       3 GLY6        0.0000 
      8 DU         28.8021    1.9142    4.8506 H         4 CUB7        0.0000 
      9 N          28.7395    3.1069    3.9431 N.2       1 ALA2        0.0000 
     10 CA         27.8932   -0.0024    4.8737 C.3       3 GLY6        0.0000 
     11 DU         27.8306    1.1903    3.9662 H         4 CUB7        0.0000 
     12 CA         27.7681    2.3829    3.0587 C.3       3 GLY6        0.0000 
     13 CA         26.9218   -0.7263    3.9893 C.3       3 GLY6        0.0000 
     14 CA         26.8592    0.4663    3.0818 C.3       3 GLY6        0.0000 
     15 CA         26.7966    1.6590    2.1742 C.3       3 GLY6        0.0000 
     16 CA         27.6609    2.4651    5.6532 C.3       3 GLY6        0.0000 
     17 CA         27.5983    3.6577    4.7457 C.3       3 GLY6        0.0000 
     18 CA         27.5357    4.8504    3.8381 C.3       3 GLY6        0.0000 
     19 CA         27.4732    6.0431    2.9306 C.3       3 GLY6        0.0000 
     20 CA         26.6894    1.7411    4.7688 C.3       3 GLY6        0.0000 
     21 DU         26.6269    2.9338    3.8612 H         4 CUB7        0.0000 
     22 CA         26.5643    4.1265    2.9537 C.3       3 GLY6        0.0000 
     23 CZ         26.5017    5.3191    2.0462 C.ar      2 PHE5        0.0000 
     24 CA         25.7180    1.0172    3.8844 C.3       3 GLY6        0.0000 
     25 CZ         25.6554    2.2099    2.9768 C.ar      2 PHE5        0.0000 
     26 CA         24.7465    0.2932    2.9999 C.3       3 GLY6        0.0000 
     27 CZ         24.6840    1.4859    2.0924 C.ar      2 PHE5        0.0000 
     28 CA         26.3945    5.4013    4.6407 C.3       3 GLY6        0.0000 
     29 N          26.3319    6.5939    3.7332 N.2       1 ALA2        0.0000 
     30 CA         25.4856    3.4847    4.6638 C.3       3 GLY6        0.0000 
     31 CZ         25.4231    4.6773    3.7563 C.ar      2 PHE5        0.0000 
     32 CZ         25.3605    5.8700    2.8488 C.ar      2 PHE5        0.0000 
     33 CA         24.5768    1.5680    4.6870 C.3       3 GLY6        0.0000 
     34 CZ         24.5142    2.7607    3.7794 C.ar      2 PHE5        0.0000 
     35 CZ         24.4516    3.9534    2.8719 C.ar      2 PHE5        0.0000 
     36 CA         23.5428    2.0368    2.8950 C.3       3 GLY6        0.0000 
     37 CA         24.3444    4.0355    5.4664 C.3       3 GLY6        0.0000 
     38 CA         24.2818    5.2282    4.5589 C.3       3 GLY6        0.0000 
     39 N          24.2193    6.4208    3.6514 N.2       1 ALA2        0.0000 
     40 CA         23.3730    3.3116    4.5820 C.3       3 GLY6        0.0000 
     41 CZ         23.3104    4.5042    3.6745 C.ar      2 PHE5        0.0000 
     42 CZ         23.2478    5.6969    2.7669 C.ar      2 PHE5        0.0000 
     43 CA         22.4015    2.5876    3.6976 C.3       3 GLY6        0.0000 
     44 CA         22.3390    3.7803    2.7901 C.3       3 GLY6        0.0000 
     45 N          22.1692    5.0551    4.4771 N.2       1 ALA2        0.0000 
@<TRIPOS>BOND
@<TRIPOS>SUBSTRUCTURE
     1 ALA2        2 GROUP   
     2 PHE5       23 GROUP   
     3 GLY6        1 GROUP   
     4 CUB7        8 GROUP   
@<TRIPOS>SET

