#    Name: 3rlj_RLJ_1_INTS_M
#    Modification time : Tue Mar 25 11:38:36 2014

@<TRIPOS>MOLECULE
3rlj_RLJ_1_INTS_M
   99     0     9     0     0
SMALL
NO_CHARGES


@<TRIPOS>ATOM
      1 CA         28.5470    6.8190    2.6540 C.3       3 GLC5        0.0000 
      2 CA         28.0400    4.8800    3.5090 C.3       9 GLL5        0.0000 
      3 CA         29.0540    8.7580    1.7990 C.3       6 GLP5        0.0000 
      4 CA         24.5030    1.7945    5.7695 C.3       3 GLC5        0.0000 
      5 CA         23.7090    2.5460    3.9970 C.3       9 GLL5        0.0000 
      6 CA         25.2970    1.0430    7.5420 C.3       6 GLP5        0.0000 
      7 CA         23.1125    1.1075    4.7025 C.3       3 GLC5        0.0000 
      8 CA         22.5160   -0.3310    5.4080 C.3       6 GLP5        0.0000 
      9 CA         27.5450    7.1150    2.1200 C.3       3 GLC5        0.0000 
     10 CA         27.0690    5.8740    3.4780 C.3       9 GLL5        0.0000 
     11 CA         28.0210    8.3560    0.7620 C.3       6 GLP5        0.0000 
     12 CA         24.4425    2.5765    6.5035 C.3       3 GLC5        0.0000 
     13 CA         23.5880    4.1100    5.4650 C.3       9 GLL5        0.0000 
     14 CA         21.6670    4.6630    5.0195 C.3       3 GLC5        0.0000 
     15 CA         23.0210    4.4890    3.4140 C.3       9 GLL5        0.0000 
     16 CA         20.3130    4.8370    6.6250 C.3       6 GLP5        0.0000 
     17 CA         21.8755    5.9820    3.2520 C.3       3 GLC5        0.0000 
     18 CA         20.7300    7.4750    3.0900 C.3       6 GLP5        0.0000 
     19 CA         25.8110    2.1485    5.7425 C.3       3 GLC5        0.0000 
     20 CA         26.3250    3.2540    3.9430 C.3       9 GLL5        0.0000 
     21 CA         24.6135    6.5525    5.5910 C.3       3 GLC5        0.0000 
     22 CA         24.7960    6.6450    3.6630 C.3       9 GLL5        0.0000 
     23 CA         24.4310    6.4600    7.5190 C.3       6 GLP5        0.0000 
     24 CA         22.7630    7.0600    3.3765 C.3       3 GLC5        0.0000 
     25 CA         24.6080    5.9405    1.9435 C.3       3 GLC5        0.0000 
     26 CA         24.4200    5.2360    0.2240 C.3       6 GLP5        0.0000 
     27 N          23.4720    8.9195    3.2575 N.am      2 SEC2        0.0000 
     28 N          24.0660    7.5180    3.6440 N.am      8 SEL2        0.0000 
     29 N          22.8780   10.3210    2.8710 N.am      5 SEP2        0.0000 
     30 O          29.8300    3.5405    3.1695 O.2       1 ALC1        0.0000 
     31 O          28.6350    2.6490    3.7740 O.2       7 ALL1        0.0000 
     32 O          31.0250    4.4320    2.5650 O.2       4 ALP1        0.0000 
     33 O          32.0115    0.9120    3.2925 O.2       1 ALC1        0.0000 
     34 O          30.8100    1.3560    3.4930 O.2       7 ALL1        0.0000 
     35 O          33.2130    0.4680    3.0920 O.2       4 ALP1        0.0000 
     36 CA         30.3500   -1.2895    1.4425 C.3       3 GLC5        0.0000 
     37 CA         29.5750   -0.7060    3.0900 C.3       9 GLL5        0.0000 
     38 CA         31.1250   -1.8730   -0.2050 C.3       6 GLP5        0.0000 
     39 CA         27.5955   -1.1225    2.2365 C.3       3 GLC5        0.0000 
     40 CA         25.6160   -1.5390    1.3830 C.3       6 GLP5        0.0000 
     41 CA         28.9655   -2.5985    2.2520 C.3       3 GLC5        0.0000 
     42 CA         28.3560   -4.4910    1.4140 C.3       6 GLP5        0.0000 
     43 CA         28.3410   -0.0395    6.5200 C.3       3 GLC5        0.0000 
     44 CA         30.0640    0.0970    5.3940 C.3       9 GLL5        0.0000 
     45 CA         26.6180   -0.1760    7.6460 C.3       6 GLP5        0.0000 
     46 CA         30.5680   -1.5125    6.0180 C.3       3 GLC5        0.0000 
     47 CA         31.0720   -3.1220    6.6420 C.3       6 GLP5        0.0000 
     48 CA         31.8325    0.7740    5.9105 C.3       3 GLC5        0.0000 
     49 CA         33.6010    1.4510    6.4270 C.3       6 GLP5        0.0000 
     50 CA         31.6450   -1.4010    9.6740 C.3       3 GLC5        0.0000 
     51 CA         30.1110   -0.4250    9.4360 C.3       9 GLL5        0.0000 
     52 CA         33.1790   -2.3770    9.9120 C.3       6 GLP5        0.0000 
     53 CA         30.0495   -1.8110   11.1245 C.3       3 GLC5        0.0000 
     54 CA         29.9880   -3.1970   12.8130 C.3       6 GLP5        0.0000 
     55 CA         31.9830   -1.2495    8.2790 C.3       3 GLC5        0.0000 
     56 CA         30.3380   -0.1820    8.0850 C.3       9 GLL5        0.0000 
     57 CA         33.6280   -2.3170    8.4730 C.3       6 GLP5        0.0000 
     58 CA         29.9385    1.8910   11.7915 C.3       3 GLC5        0.0000 
     59 CA         29.2460    0.3130   11.6100 C.3       9 GLL5        0.0000 
     60 CA         30.6310    3.4690   11.9730 C.3       6 GLP5        0.0000 
     61 CA         27.7545   -1.0730   11.4870 C.3       3 GLC5        0.0000 
     62 CA         26.2630   -2.4590   11.3640 C.3       6 GLP5        0.0000 
     63 CA         30.8185    0.4570   13.0250 C.3       3 GLC5        0.0000 
     64 CA         32.3910    0.6010   14.4400 C.3       6 GLP5        0.0000 
     65 CA         29.6170   -1.4420   12.2115 C.3       3 GLC5        0.0000 
     66 CA         27.7860    3.8840    1.6480 C.3       3 GLC5        0.0000 
     67 CA         27.6680    3.5620    3.7430 C.3       9 GLL5        0.0000 
     68 CA         27.7180    3.5470   -0.3300 C.3       6 GLP5        0.0000 
     69 CA         29.1112    5.8785    4.5578 C.3       3 GLC5        0.0000 
     70 CA         30.6680    6.3800    5.6220 C.3       6 GLP5        0.0000 
     71 CA         27.5145    4.5240    5.5310 C.3       3 GLC5        0.0000 
     72 CA         27.1750    4.8270    7.4360 C.3       6 GLP5        0.0000 
     73 CA         26.7862    6.1757    5.4313 C.3       3 GLC5        0.0000 
     74 CA         25.7300    5.5610    3.6830 C.3       9 GLL5        0.0000 
     75 CA         27.1730    6.6340    7.2820 C.3       6 GLP5        0.0000 
     76 CA         24.0838    5.2198    6.1747 C.3       3 GLC5        0.0000 
     77 CA         22.3242    3.0299    5.8424 C.3       3 GLC5        0.0000 
     78 CA         20.9560    2.4060    6.9040 C.3       6 GLP5        0.0000 
     79 CA         23.6815    3.8781    2.0061 C.3       3 GLC5        0.0000 
     80 CA         23.9540    3.9130    0.2570 C.3       6 GLP5        0.0000 
     81 CA         21.7330    2.8481    3.3686 C.3       3 GLC5        0.0000 
     82 CA         20.0570    1.8530    2.9820 C.3       6 GLP5        0.0000 
     83 CA         26.5048    4.2875    5.6835 C.3       3 GLC5        0.0000 
     84 CA         25.3440    4.2420    3.9190 C.3       9 GLL5        0.0000 
     85 CA         29.8205    1.2275    1.8267 C.3       3 GLC5        0.0000 
     86 CA         29.7450    0.5320    3.9730 C.3       9 GLL5        0.0000 
     87 CA         29.9810    2.5420    0.1220 C.3       6 GLP5        0.0000 
     88 CA         28.1103    0.6595    7.7737 C.3       3 GLC5        0.0000 
     89 CA         29.9250    1.0180    7.5120 C.3       9 GLL5        0.0000 
     90 CA         31.2198    2.2855    7.2378 C.3       3 GLC5        0.0000 
     91 CA         32.8370    3.0760    6.5740 C.3       6 GLP5        0.0000 
     92 CA         28.1702    3.3390    8.2007 C.3       3 GLC5        0.0000 
     93 CA         29.2800    1.9720    8.2910 C.3       9 GLL5        0.0000 
     94 CA         27.9387    0.4778    8.7862 C.3       3 GLC5        0.0000 
     95 CA         29.0510    1.7300    9.6400 C.3       9 GLL5        0.0000 
     96 CA         28.4213   -0.2397    8.2033 C.3       3 GLC5        0.0000 
     97 CA         30.5966   -1.5627    7.6296 C.3       3 GLC5        0.0000 
     98 CA         32.1573    0.4338    8.4533 C.3       3 GLC5        0.0000 
     99 CA         34.0900    1.1710    8.1460 C.3       6 GLP5        0.0000 
@<TRIPOS>BOND
@<TRIPOS>SUBSTRUCTURE
     1 ALC1       30 GROUP        1 X    ALC  0     ROOT ALC X 1
     2 SEC2       27 GROUP        1 X    SEC  0     **** SEC X 2
     3 GLC5        1 GROUP        1 X    GLC  0     **** GLC X 6
     4 ALP1       32 GROUP        1 Y    ALP  0     ROOT ALP Y 8
     5 SEP2       29 GROUP        1 Y    SEP  0     **** SEP Y 9
     6 GLP5        3 GROUP        1 Y    GLP  0     **** GLP Y 13
     7 ALL1       31 GROUP        1 Z    ALL  0     ROOT ALL Z 15
     8 SEL2       28 GROUP        1 Z    SEL  0     **** SEL Z 16
     9 GLL5        2 GROUP        1 Z    GLL  0     **** GLL Z 20
@<TRIPOS>SET

