#    Name: 3rlj_RLJ_1_ligand
#    Modification time : Tue Mar 25 11:38:36 2014

@<TRIPOS>MOLECULE
3rlj_RLJ_1_ligand
   42    43     1     0     0
SMALL
NO_CHARGES


@<TRIPOS>ATOM
      1 C1         28.0400    4.8800    3.5090 C.ar      1 RLJ1        0.0000 
      2 F1         23.7090    2.5460    3.9970 F         1 RLJ1        0.0000 
      3 C2         27.0690    5.8740    3.4780 C.ar      1 RLJ1        0.0000 
      4 F2         23.5880    4.1100    5.4650 F         1 RLJ1        0.0000 
      5 C3         25.7300    5.5610    3.6830 C.ar      1 RLJ1        0.0000 
      6 F3         23.0210    4.4890    3.4140 F         1 RLJ1        0.0000 
      7 C4         25.3440    4.2420    3.9190 C.ar      1 RLJ1        0.0000 
      8 C5         27.6680    3.5620    3.7430 C.ar      1 RLJ1        0.0000 
      9 C6         26.3250    3.2540    3.9430 C.ar      1 RLJ1        0.0000 
     10 C7         23.8850    3.8490    4.1960 C.3       1 RLJ1        0.0000 
     11 C8         24.7960    6.6450    3.6630 C.1       1 RLJ1        0.0000 
     12 N8         24.0660    7.5180    3.6440 N.1       1 RLJ1        0.0000 
     13 N9         28.6350    2.6490    3.7740 N.am      1 RLJ1        0.0000 
     14 C10        28.4510    1.3490    3.9920 C.2       1 RLJ1        0.0000 
     15 O10        27.3630    0.8200    4.2160 O.2       1 RLJ1        0.0000 
     16 C11        29.7450    0.5320    3.9730 C.3       1 RLJ1        0.0000 
     17 O11        30.8100    1.3560    3.4930 O.3       1 RLJ1        0.0000 
     18 C12        29.5750   -0.7060    3.0900 C.3       1 RLJ1        0.0000 
     19 C13        30.0640    0.0970    5.3940 C.3       1 RLJ1        0.0000 
     20 O14        30.1330    1.2850    6.1950 O.3       1 RLJ1        0.0000 
     21 C16        29.9250    1.0180    7.5120 C.ar      1 RLJ1        0.0000 
     22 C17        29.2800    1.9720    8.2910 C.ar      1 RLJ1        0.0000 
     23 C18        29.0510    1.7300    9.6400 C.ar      1 RLJ1        0.0000 
     24 C19        29.4680    0.5330   10.2130 C.ar      1 RLJ1        0.0000 
     25 C20        30.1110   -0.4250    9.4360 C.ar      1 RLJ1        0.0000 
     26 C21        30.3380   -0.1820    8.0850 C.ar      1 RLJ1        0.0000 
     27 C22        29.2460    0.3130   11.6100 C.1       1 RLJ1        0.0000 
     28 N22        29.0680    0.1510   12.7220 N.1       1 RLJ1        0.0000 
     29 H          29.0270    5.1187    3.3597 H         1 RLJ1        0.0000 
     30 H          27.3442    6.8532    3.3012 H         1 RLJ1        0.0000 
     31 H          26.0496    2.2688    4.1133 H         1 RLJ1        0.0000 
     32 H          29.6492    2.9891    3.6094 H         1 RLJ1        0.0000 
     33 H          31.0093   -0.4367    5.3829 H         1 RLJ1        0.0000 
     34 H          29.2770   -0.5706    5.7308 H         1 RLJ1        0.0000 
     35 H          28.9721    2.8579    7.8679 H         1 RLJ1        0.0000 
     36 H          28.5731    2.4357   10.2157 H         1 RLJ1        0.0000 
     37 H          30.4175   -1.3095    9.8584 H         1 RLJ1        0.0000 
     38 H          30.8117   -0.8897    7.5081 H         1 RLJ1        0.0000 
     39 H          30.4069   -1.2603    3.0634 H         1 RLJ1        0.0000 
     40 H          28.8388   -1.2979    3.4181 H         1 RLJ1        0.0000 
     41 H          29.3555   -0.4613    2.1456 H         1 RLJ1        0.0000 
     42 H          31.6125    0.7595    3.4791 H         1 RLJ1        0.0000 
@<TRIPOS>BOND
     1    3    1 ar   
     2    8    1 ar   
     3   29    1 1    
     4   10    2 1    
     5    5    3 ar   
     6   30    3 1    
     7   10    4 1    
     8    7    5 ar   
     9   11    5 1    
    10   10    6 1    
    11    9    7 ar   
    12   10    7 1    
    13    9    8 ar   
    14   13    8 1    
    15   31    9 1    
    16   12   11 3    
    17   14   13 am   
    18   32   13 1    
    19   15   14 2    
    20   16   14 1    
    21   17   16 1    
    22   18   16 1    
    23   19   16 1    
    24   42   17 1    
    25   39   18 1    
    26   40   18 1    
    27   41   18 1    
    28   20   19 1    
    29   33   19 1    
    30   34   19 1    
    31   21   20 1    
    32   22   21 ar   
    33   26   21 ar   
    34   23   22 ar   
    35   35   22 1    
    36   24   23 ar   
    37   36   23 1    
    38   25   24 ar   
    39   27   24 1    
    40   26   25 ar   
    41   37   25 1    
    42   38   26 1    
    43   28   27 3    
@<TRIPOS>SUBSTRUCTURE
     1 RLJ1        1 GROUP   
@<TRIPOS>SET

