#    Name: 3geg_NAD_2_INTS_M
#    Modification time : Tue Mar 25 07:40:40 2014

@<TRIPOS>MOLECULE
3geg_NAD_2_INTS_M
   98     0    12     0     0
SMALL
NO_CHARGES


@<TRIPOS>ATOM
      1 NZ         42.0230   62.9330   22.5245 N.4       3 LYC4        0.0000 
      2 NZ         42.1250   63.0780   24.2440 N.4      11 LYL4        0.0000 
      3 NZ         42.9400   61.9390   20.7700 N.4       7 LYP4        0.0000 
      4 N          42.9100   62.4200   23.0475 N.am      2 SEC2        0.0000 
      5 N          42.1250   63.0780   24.2440 N.am     10 SEL2        0.0000 
      6 N          43.6950   61.7620   21.8510 N.am      6 SEP2        0.0000 
      7 N          42.0230   62.9330   22.5245 N.am      2 SEC2        0.0000 
      8 N          41.9210   62.7880   20.8050 N.am      6 SEP2        0.0000 
      9 N          39.3690   64.7165   25.5765 N.am      2 SEC2        0.0000 
     10 N          40.7970   64.1780   25.9910 N.am     10 SEL2        0.0000 
     11 N          37.9410   65.2550   25.1620 N.am      6 SEP2        0.0000 
     12 CA         44.2790   68.4800   22.7350 C.3       4 GLC5        0.0000 
     13 CA         43.4410   66.8120   22.9580 C.3      12 GLL5        0.0000 
     14 CA         45.1170   70.1480   22.5120 C.3       8 GLP5        0.0000 
     15 CA         40.4670   66.7490   22.8705 C.3       4 GLC5        0.0000 
     16 CA         42.3780   66.2640   22.0220 C.3      12 GLL5        0.0000 
     17 CA         38.5560   67.2340   23.7190 C.3       8 GLP5        0.0000 
     18 O          41.8665   67.8995   20.2240 O.2       1 ALC1        0.0000 
     19 O          41.4150   67.2670   21.7850 O.2       9 ALL1        0.0000 
     20 O          42.3180   68.5320   18.6630 O.2       5 ALP1        0.0000 
     21 O          41.8795   68.4175   21.1905 O.2       1 ALC1        0.0000 
     22 O          42.3440   69.5680   20.5960 O.2       5 ALP1        0.0000 
     23 O          42.3295   67.3470   19.1360 O.2       1 ALC1        0.0000 
     24 O          42.3410   66.1620   19.6090 O.2       9 ALL1        0.0000 
     25 CA         44.7260   68.5015   21.6650 C.3       4 GLC5        0.0000 
     26 CA         44.3350   66.8550   20.8180 C.3      12 GLL5        0.0000 
     27 CA         47.3945   65.9540   16.1105 C.3       4 GLC5        0.0000 
     28 CA         48.2150   66.4850   17.8720 C.3      12 GLL5        0.0000 
     29 CA         46.5740   65.4230   14.3490 C.3       8 GLP5        0.0000 
     30 CA         48.6435   67.4700   16.0345 C.3       4 GLC5        0.0000 
     31 CA         49.0720   68.4550   14.1970 C.3       8 GLP5        0.0000 
     32 CA         49.7800   67.4305   18.4055 C.3       4 GLC5        0.0000 
     33 CA         51.3450   68.3760   18.9390 C.3       8 GLP5        0.0000 
     34 O          49.7285   65.9375   16.3395 O.2       1 ALC1        0.0000 
     35 O          49.1360   65.6280   17.4460 O.2       9 ALL1        0.0000 
     36 O          50.3210   66.2470   15.2330 O.2       5 ALP1        0.0000 
     37 N          49.3315   68.3880   16.7340 N.am      2 SEC2        0.0000 
     38 N          48.1620   67.7720   17.3640 N.am     10 SEL2        0.0000 
     39 N          50.5010   69.0040   16.1040 N.am      6 SEP2        0.0000 
     40 CA         45.6140   69.7265   17.8160 C.3       4 GLC5        0.0000 
     41 CA         47.1700   68.6330   17.7860 C.3      12 GLL5        0.0000 
     42 CA         44.0580   70.8200   17.8460 C.3       8 GLP5        0.0000 
     43 CA         45.9505   67.6815   16.6495 C.3       4 GLC5        0.0000 
     44 CA         44.7310   66.7300   15.5130 C.3       8 GLP5        0.0000 
     45 CA         48.1210   68.5440   15.9915 C.3       4 GLC5        0.0000 
     46 CA         48.7765   69.6545   18.1715 C.3       4 GLC5        0.0000 
     47 CA         50.3830   70.6760   18.5570 C.3       8 GLP5        0.0000 
     48 N          45.0830   68.5060   17.6350 N.am      2 SEC2        0.0000 
     49 N          46.2350   68.2180   18.7160 N.am     10 SEL2        0.0000 
     50 N          43.9310   68.7940   16.5540 N.am      6 SEP2        0.0000 
     51 N          42.0015   67.0040   28.5515 N.am      2 SEC2        0.0000 
     52 N          42.8260   65.8050   27.8300 N.am     10 SEL2        0.0000 
     53 N          41.1770   68.2030   29.2730 N.am      6 SEP2        0.0000 
     54 CA         47.9130   66.9170   29.8740 C.3       4 GLC5        0.0000 
     55 CA         47.0110   66.0060   28.4420 C.3      12 GLL5        0.0000 
     56 CA         48.8150   67.8280   31.3060 C.3       8 GLP5        0.0000 
     57 N          50.4345   64.9945   28.1595 N.am      2 SEC2        0.0000 
     58 N          49.2370   65.6790   27.6170 N.am     10 SEL2        0.0000 
     59 N          51.6320   64.3100   28.7020 N.am      6 SEP2        0.0000 
     60 O          48.7250   66.7215   26.9870 O.2       1 ALC1        0.0000 
     61 O          49.2370   65.6790   27.6170 O.2       9 ALL1        0.0000 
     62 O          48.2130   67.7640   26.3570 O.2       5 ALP1        0.0000 
     63 CA         50.0730   63.3785   28.7145 C.3       4 GLC5        0.0000 
     64 CA         48.0120   63.8390   28.5280 C.3      12 GLL5        0.0000 
     65 CA         52.1340   62.9180   28.9010 C.3       8 GLP5        0.0000 
     66 N          50.4385   63.7430   28.5445 N.am      2 SEC2        0.0000 
     67 N          49.2450   63.1760   28.3870 N.am     10 SEL2        0.0000 
     68 O          49.2475   61.9735   28.8655 O.2       1 ALC1        0.0000 
     69 O          49.2450   63.1760   28.3870 O.2       9 ALL1        0.0000 
     70 O          49.2500   60.7710   29.3440 O.2       5 ALP1        0.0000 
     71 CA         48.3080   66.1175   30.6150 C.3       4 GLC5        0.0000 
     72 CA         47.8010   64.4070   29.9240 C.3      12 GLL5        0.0000 
     73 CA         45.1180   64.7280   31.3840 C.3       4 GLC5        0.0000 
     74 CA         46.0160   63.0150   30.9420 C.3      12 GLL5        0.0000 
     75 CA         44.2200   66.4410   31.8260 C.3       8 GLP5        0.0000 
     76 N          43.0130   60.9870   33.9415 N.am      2 SEC2        0.0000 
     77 N          43.8460   60.4360   32.6750 N.am     10 SEL2        0.0000 
     78 N          42.1800   61.5380   35.2080 N.am      6 SEP2        0.0000 
     79 O          41.8805   61.9075   31.9750 O.2       1 ALC1        0.0000 
     80 O          43.3130   62.0810   31.0130 O.2       9 ALL1        0.0000 
     81 O          40.4480   61.7340   32.9370 O.2       5 ALP1        0.0000 
     82 CA         48.6655   64.1435   33.1670 C.3       4 GLC5        0.0000 
     83 CA         48.2570   62.7940   31.6950 C.3      12 GLL5        0.0000 
     84 CA         49.0740   65.4930   34.6390 C.3       8 GLP5        0.0000 
     85 CA         45.7553   66.6227   17.2623 C.3       4 GLC5        0.0000 
     86 CA         46.2860   66.9580   19.2170 C.3      12 GLL5        0.0000 
     87 CA         47.8128   67.4652   20.6172 C.3       4 GLC5        0.0000 
     88 CA         48.8460   68.4150   22.2230 C.3       8 GLP5        0.0000 
     89 CA         45.2788   66.2545   29.9590 C.3       4 GLC5        0.0000 
     90 CA         45.6640   66.1300   27.7420 C.3      12 GLL5        0.0000 
     91 CA         49.0263   64.2280   26.6288 C.3       4 GLC5        0.0000 
     92 CA         47.9550   65.0910   27.6750 C.3      12 GLL5        0.0000 
     93 CA         50.0690   63.9910   25.1560 C.3       8 GLP5        0.0000 
     94 CA         47.0445   63.2110   33.9360 C.3       4 GLC5        0.0000 
     95 CA         47.8720   61.8220   32.6110 C.3      12 GLL5        0.0000 
     96 CA         46.8830   64.7910   35.2230 C.3       8 GLP5        0.0000 
     97 CA         49.6142   61.9295   32.4405 C.3       4 GLC5        0.0000 
     98 CA         51.1640   61.5510   32.7280 C.3       8 GLP5        0.0000 
@<TRIPOS>BOND
@<TRIPOS>SUBSTRUCTURE
     1 ALC1       18 GROUP        1 X    ALC  0     ROOT ALC X 1
     2 SEC2        4 GROUP        1 X    SEC  0     **** SEC X 2
     3 LYC4        1 GROUP        1 X    LYC  0     **** LYC X 4
     4 GLC5       12 GROUP        1 X    GLC  0     **** GLC X 6
     5 ALP1       20 GROUP        1 Y    ALP  0     ROOT ALP Y 8
     6 SEP2        6 GROUP        1 Y    SEP  0     **** SEP Y 9
     7 LYP4        3 GROUP        1 Y    LYP  0     **** LYP Y 11
     8 GLP5       14 GROUP        1 Y    GLP  0     **** GLP Y 13
     9 ALL1       19 GROUP        1 Z    ALL  0     ROOT ALL Z 15
    10 SEL2        5 GROUP        1 Z    SEL  0     **** SEL Z 16
    11 LYL4        2 GROUP        1 Z    LYL  0     **** LYL Z 18
    12 GLL5       13 GROUP        1 Z    GLL  0     **** GLL Z 20
@<TRIPOS>SET

