#    Name: 3geg_NAD_2_ligand
#    Modification time : Tue Mar 25 07:40:40 2014

@<TRIPOS>MOLECULE
3geg_NAD_2_ligand
   70    74     1     0     0
SMALL
NO_CHARGES


@<TRIPOS>ATOM
      1 PA         42.1090   64.1110   25.3070 P.3       1 NAD248      0.0000 
      2 O1A        42.1250   63.0780   24.2440 O.co2     1 NAD248      0.0000 
      3 O2A        40.7970   64.1780   25.9910 O.co2     1 NAD248      0.0000 
      4 O5B        42.4650   65.5490   24.6760 O.3       1 NAD248      0.0000 
      5 C5B        43.7050   65.8010   24.0610 C.3       1 NAD248      0.0000 
      6 C4B        43.4410   66.8120   22.9580 C.3       1 NAD248      0.0000 
      7 O4B        44.6120   67.0280   22.1940 O.3       1 NAD248      0.0000 
      8 C3B        42.3780   66.2640   22.0220 C.3       1 NAD248      0.0000 
      9 O3B        41.4150   67.2670   21.7850 O.3       1 NAD248      0.0000 
     10 C2B        43.1310   65.9270   20.7510 C.3       1 NAD248      0.0000 
     11 O2B        42.3410   66.1620   19.6090 O.3       1 NAD248      0.0000 
     12 C1B        44.3350   66.8550   20.8180 C.3       1 NAD248      0.0000 
     13 N9A        45.5050   66.2920   20.1240 N.pl3     1 NAD248      0.0000 
     14 C8A        46.0070   65.0240   20.2630 C.2       1 NAD248      0.0000 
     15 N7A        47.0860   64.9050   19.4580 N.2       1 NAD248      0.0000 
     16 C5A        47.2730   66.0730   18.8060 C.ar      1 NAD248      0.0000 
     17 C6A        48.2150   66.4850   17.8720 C.ar      1 NAD248      0.0000 
     18 N6A        49.1360   65.6280   17.4460 N.pl3     1 NAD248      0.0000 
     19 N1A        48.1620   67.7720   17.3640 N.ar      1 NAD248      0.0000 
     20 C2A        47.1700   68.6330   17.7860 C.ar      1 NAD248      0.0000 
     21 N3A        46.2350   68.2180   18.7160 N.ar      1 NAD248      0.0000 
     22 C4A        46.2860   66.9580   19.2170 C.ar      1 NAD248      0.0000 
     23 O3         43.3340   63.8050   26.3110 O.3       1 NAD248      0.0000 
     24 PN         43.5600   64.5220   27.7400 P.3       1 NAD248      0.0000 
     25 O1N        43.3860   63.5070   28.8060 O.co2     1 NAD248      0.0000 
     26 O2N        42.8260   65.8050   27.8300 O.co2     1 NAD248      0.0000 
     27 O5D        45.1370   64.8300   27.6340 O.3       1 NAD248      0.0000 
     28 C5D        45.6640   66.1300   27.7420 C.3       1 NAD248      0.0000 
     29 C4D        47.0110   66.0060   28.4420 C.3       1 NAD248      0.0000 
     30 O4D        46.8310   65.4200   29.7210 O.3       1 NAD248      0.0000 
     31 C3D        47.9550   65.0910   27.6750 C.3       1 NAD248      0.0000 
     32 O3D        49.2370   65.6790   27.6170 O.3       1 NAD248      0.0000 
     33 C2D        48.0120   63.8390   28.5280 C.3       1 NAD248      0.0000 
     34 O2D        49.2450   63.1760   28.3870 O.3       1 NAD248      0.0000 
     35 C1D        47.8010   64.4070   29.9240 C.3       1 NAD248      0.0000 
     36 N1N        47.3380   63.3710   30.8660 N.pl3     1 NAD248      0.0000 
     37 C2N        46.0160   63.0150   30.9420 C.ar      1 NAD248      0.0000 
     38 C3N        45.6080   62.0350   31.8470 C.ar      1 NAD248      0.0000 
     39 C7N        44.2000   61.5120   31.8280 C.2       1 NAD248      0.0000 
     40 O7N        43.8460   60.4360   32.6750 O.2       1 NAD248      0.0000 
     41 N7N        43.3130   62.0810   31.0130 N.am      1 NAD248      0.0000 
     42 C4N        46.5400   61.4400   32.6870 C.ar      1 NAD248      0.0000 
     43 C5N        47.8720   61.8220   32.6110 C.ar      1 NAD248      0.0000 
     44 C6N        48.2570   62.7940   31.6950 C.ar      1 NAD248      0.0000 
     45 H          44.1314   64.9120   23.6046 H         1 NAD248      0.0000 
     46 H          44.4286   66.2346   24.7458 H         1 NAD248      0.0000 
     47 H          43.0721   67.7159   23.3935 H         1 NAD248      0.0000 
     48 H          41.9871   65.3785   22.4388 H         1 NAD248      0.0000 
     49 H          43.4862   64.9247   20.8384 H         1 NAD248      0.0000 
     50 H          44.0478   67.7934   20.3689 H         1 NAD248      0.0000 
     51 H          45.6456   64.3446   20.8372 H         1 NAD248      0.0000 
     52 H          49.0713   64.6974   17.8063 H         1 NAD248      0.0000 
     53 H          49.8109   65.9908   16.8035 H         1 NAD248      0.0000 
     54 H          47.1245   69.5931   17.4058 H         1 NAD248      0.0000 
     55 H          45.0366   66.7856   28.3423 H         1 NAD248      0.0000 
     56 H          45.8348   66.5925   26.7721 H         1 NAD248      0.0000 
     57 H          47.4615   66.9739   28.5163 H         1 NAD248      0.0000 
     58 H          47.5339   64.8610   26.7479 H         1 NAD248      0.0000 
     59 H          47.1595   63.2459   28.2862 H         1 NAD248      0.0000 
     60 H          48.7341   64.8308   30.2407 H         1 NAD248      0.0000 
     61 H          45.3152   63.4655   30.3347 H         1 NAD248      0.0000 
     62 H          43.6559   62.8259   30.4407 H         1 NAD248      0.0000 
     63 H          42.3842   61.7120   31.0469 H         1 NAD248      0.0000 
     64 H          46.2455   60.7230   33.3590 H         1 NAD248      0.0000 
     65 H          48.5697   61.3898   33.2272 H         1 NAD248      0.0000 
     66 H          49.2537   63.0761   31.6491 H         1 NAD248      0.0000 
     67 H          41.9257   68.0255   21.3803 H         1 NAD248      0.0000 
     68 H          42.7825   66.9283   19.1422 H         1 NAD248      0.0000 
     69 H          49.0701   66.6649   27.6275 H         1 NAD248      0.0000 
     70 H          49.0894   62.2594   28.7552 H         1 NAD248      0.0000 
@<TRIPOS>BOND
     1    2    1 ar   
     2    3    1 ar   
     3    4    1 1    
     4   23    1 1    
     5    5    4 1    
     6    6    5 1    
     7   45    5 1    
     8   46    5 1    
     9    7    6 1    
    10    8    6 1    
    11   47    6 1    
    12   12    7 1    
    13    9    8 1    
    14   10    8 1    
    15   48    8 1    
    16   67    9 1    
    17   11   10 1    
    18   12   10 1    
    19   49   10 1    
    20   68   11 1    
    21   13   12 1    
    22   50   12 1    
    23   14   13 1    
    24   22   13 1    
    25   15   14 2    
    26   51   14 1    
    27   16   15 1    
    28   17   16 ar   
    29   22   16 ar   
    30   18   17 1    
    31   19   17 ar   
    32   52   18 1    
    33   53   18 1    
    34   20   19 ar   
    35   21   20 ar   
    36   54   20 1    
    37   22   21 ar   
    38   24   23 1    
    39   25   24 ar   
    40   26   24 ar   
    41   27   24 1    
    42   28   27 1    
    43   29   28 1    
    44   55   28 1    
    45   56   28 1    
    46   30   29 1    
    47   31   29 1    
    48   57   29 1    
    49   35   30 1    
    50   32   31 1    
    51   33   31 1    
    52   58   31 1    
    53   69   32 1    
    54   34   33 1    
    55   35   33 1    
    56   59   33 1    
    57   70   34 1    
    58   36   35 1    
    59   60   35 1    
    60   37   36 ar   
    61   44   36 ar   
    62   38   37 ar   
    63   61   37 1    
    64   39   38 1    
    65   42   38 ar   
    66   40   39 2    
    67   41   39 am   
    68   62   41 1    
    69   63   41 1    
    70   43   42 ar   
    71   64   42 1    
    72   44   43 ar   
    73   65   43 1    
    74   66   44 1    
@<TRIPOS>SUBSTRUCTURE
     1 NAD248      1 GROUP   
@<TRIPOS>SET

