#    Name: 3kmr_EQN_1_INTS_M
#    Modification time : Mon Mar 24 19:48:56 2014

@<TRIPOS>MOLECULE
3kmr_EQN_1_INTS_M
   82     0    12     0     0
SMALL
NO_CHARGES


@<TRIPOS>ATOM
      1 CA         -9.9125  -14.0985  -13.5115 C.3       4 GLC5        0.0000 
      2 CA        -10.2330  -12.1840  -13.3630 C.3      12 GLL5        0.0000 
      3 CA         -9.5920  -16.0130  -13.6600 C.3       8 GLP5        0.0000 
      4 CA         -8.4920  -12.5160  -13.8115 C.3       4 GLC5        0.0000 
      5 CA         -6.7510  -12.8480  -14.2600 C.3       8 GLP5        0.0000 
      6 CA        -10.0075  -11.2175  -11.5585 C.3       4 GLC5        0.0000 
      7 CA         -9.7820  -10.2510   -9.7540 C.3       8 GLP5        0.0000 
      8 CA        -10.7850  -10.2495  -11.6180 C.3       4 GLC5        0.0000 
      9 CA        -11.7880  -10.2480  -13.4820 C.3      12 GLL5        0.0000 
     10 CA        -12.0600   -8.7725  -14.7915 C.3       4 GLC5        0.0000 
     11 CA        -12.3320   -7.2970  -16.1010 C.3       8 GLP5        0.0000 
     12 CA        -11.4510   -8.3480  -12.7980 C.3       4 GLC5        0.0000 
     13 CA        -11.1140   -6.4480  -12.1140 C.3       8 GLP5        0.0000 
     14 CA        -13.5345  -10.0300  -14.1025 C.3       4 GLC5        0.0000 
     15 CA        -15.2810   -9.8120  -14.7230 C.3       8 GLP5        0.0000 
     16 CA        -11.7000   -8.8830  -17.0135 C.3       4 GLC5        0.0000 
     17 CA        -11.0680  -10.4690  -17.9260 C.3      12 GLL5        0.0000 
     18 CA         -9.7990  -10.2275  -19.5905 C.3       4 GLC5        0.0000 
     19 CA         -8.5300   -9.9860  -21.2550 C.3       8 GLP5        0.0000 
     20 CA        -11.5085   -9.5715  -19.8285 C.3       4 GLC5        0.0000 
     21 CA        -11.9490   -8.6740  -21.7310 C.3       8 GLP5        0.0000 
     22 CA         -7.9685  -12.4330  -15.8685 C.3       4 GLC5        0.0000 
     23 CA         -9.1860  -12.0180  -17.4770 C.3      12 GLL5        0.0000 
     24 CA         -8.8580  -11.0020  -19.3660 C.3       4 GLC5        0.0000 
     25 CA         -9.4955  -12.8530  -19.3955 C.3       4 GLC5        0.0000 
     26 CA         -9.8050  -13.6880  -21.3140 C.3       8 GLP5        0.0000 
     27 NZ         -2.8125   -3.6595   -7.8810 N.4       3 LYC4        0.0000 
     28 NZ         -4.1990   -4.1180   -8.1230 N.4      11 LYL4        0.0000 
     29 NZ         -1.2140   -2.0760   -6.9540 N.4       7 LYP4        0.0000 
     30 N          -2.8125   -3.6595   -7.8810 N.am      2 SEC2        0.0000 
     31 N          -4.1990   -4.1180   -8.1230 N.am     10 SEL2        0.0000 
     32 N          -1.4260   -3.2010   -7.6390 N.am      6 SEP2        0.0000 
     33 N          -4.0355   -3.9770   -6.6605 N.am      2 SEC2        0.0000 
     34 N          -3.8720   -3.8360   -5.1980 N.am      6 SEP2        0.0000 
     35 N          -3.0440   -5.9375   -6.3675 N.am      2 SEC2        0.0000 
     36 N          -4.2850   -6.0020   -7.0080 N.am     10 SEL2        0.0000 
     37 N          -1.8030   -5.8730   -5.7270 N.am      6 SEP2        0.0000 
     38 N          -4.0785   -4.9190   -6.1030 N.am      2 SEC2        0.0000 
     39 CA         -5.6660   -3.0495  -10.5240 C.3       4 GLC5        0.0000 
     40 CA         -5.5810   -5.2620  -10.3530 C.3      12 GLL5        0.0000 
     41 CA         -5.7510   -0.8370  -10.6950 C.3       8 GLP5        0.0000 
     42 CA         -5.6185   -8.8530   -7.8025 C.3       4 GLC5        0.0000 
     43 CA         -5.9180   -7.2260   -8.9900 C.3      12 GLL5        0.0000 
     44 CA         -5.3190  -10.4800   -6.6150 C.3       8 GLP5        0.0000 
     45 CA         -7.9695   -6.5700  -16.6555 C.3       4 GLC5        0.0000 
     46 CA         -7.9320   -8.3710  -15.7840 C.3      12 GLL5        0.0000 
     47 CA         -8.0070   -4.7690  -17.5270 C.3       8 GLP5        0.0000 
     48 CA         -9.4760   -9.7570  -11.8710 C.3       4 GLC5        0.0000 
     49 CA         -9.1700   -9.2630  -13.9880 C.3      12 GLL5        0.0000 
     50 CA        -13.6420  -10.9610  -14.9105 C.3       4 GLC5        0.0000 
     51 CA        -12.0030  -12.1100  -15.0980 C.3      12 GLL5        0.0000 
     52 O          -8.1015   -9.0510  -11.4320 O.2       1 ALC1        0.0000 
     53 O          -7.5220   -7.7920  -12.2170 O.2       9 ALL1        0.0000 
     54 O          -8.6810  -10.3100  -10.6470 O.2       5 ALP1        0.0000 
     55 CA         -8.7830  -11.3825  -14.2360 C.3       4 GLC5        0.0000 
     56 CA        -11.0110  -11.2830  -14.3330 C.3      12 GLL5        0.0000 
     57 CA         -6.5550  -11.4820  -14.1390 C.3       8 GLP5        0.0000 
     58 CA        -12.7220  -11.2915  -17.7293 C.3       4 GLC5        0.0000 
     59 CA        -10.4360  -11.3670  -16.8510 C.3      12 GLL5        0.0000 
     60 CA        -14.6920  -11.6650  -18.0700 C.3       8 GLP5        0.0000 
     61 CA         -7.1780   -4.6263   -9.5563 C.3       4 GLC5        0.0000 
     62 CA         -6.2810   -5.8750  -11.4120 C.3      12 GLL5        0.0000 
     63 CA         -8.4250   -3.6840   -8.2300 C.3       8 GLP5        0.0000 
     64 CA         -8.0770   -5.5413  -12.0985 C.3       4 GLC5        0.0000 
     65 CA         -9.6020   -4.5650  -12.8650 C.3       8 GLP5        0.0000 
     66 CA         -4.5080   -5.2252  -11.9698 C.3       4 GLC5        0.0000 
     67 CA         -3.0850   -4.8820  -13.0570 C.3       8 GLP5        0.0000 
     68 CA        -10.7157   -8.5272  -16.2152 C.3       4 GLC5        0.0000 
     69 CA         -8.6160   -9.2890  -16.5410 C.3      12 GLL5        0.0000 
     70 CA        -10.9307   -8.5165  -15.2323 C.3       4 GLC5        0.0000 
     71 CA         -9.8890  -10.2090  -14.7390 C.3      12 GLL5        0.0000 
     72 CA         -9.9115   -7.6308  -13.1668 C.3       4 GLC5        0.0000 
     73 CA        -13.1837  -11.9817  -16.9145 C.3       4 GLC5        0.0000 
     74 CA        -10.3863  -13.8924  -17.1340 C.3       4 GLC5        0.0000 
     75 CA        -11.3480  -12.4870  -16.4200 C.3      12 GLL5        0.0000 
     76 CA        -10.1930  -15.6950  -17.4760 C.3       8 GLP5        0.0000 
     77 CA         -7.9530   -8.4230   -9.4284 C.3       4 GLC5        0.0000 
     78 CA         -6.8230   -7.1600  -11.2520 C.3      12 GLL5        0.0000 
     79 CA         -9.3580   -9.5030   -8.4750 C.3       8 GLP5        0.0000 
     80 CA         -7.3035   -6.0015   -8.3646 C.3       4 GLC5        0.0000 
     81 CA         -6.6280   -7.8260  -10.0330 C.3      12 GLL5        0.0000 
     82 CA         -8.7740   -5.2720   -7.4000 C.3       8 GLP5        0.0000 
@<TRIPOS>BOND
@<TRIPOS>SUBSTRUCTURE
     1 ALC1       52 GROUP        1 X    ALC  0     ROOT ALC X 1
     2 SEC2       30 GROUP        1 X    SEC  0     **** SEC X 2
     3 LYC4       27 GROUP        1 X    LYC  0     **** LYC X 4
     4 GLC5        1 GROUP        1 X    GLC  0     **** GLC X 6
     5 ALP1       54 GROUP        1 Y    ALP  0     ROOT ALP Y 8
     6 SEP2       32 GROUP        1 Y    SEP  0     **** SEP Y 9
     7 LYP4       29 GROUP        1 Y    LYP  0     **** LYP Y 11
     8 GLP5        3 GROUP        1 Y    GLP  0     **** GLP Y 13
     9 ALL1       53 GROUP        1 Z    ALL  0     ROOT ALL Z 15
    10 SEL2       31 GROUP        1 Z    SEL  0     **** SEL Z 16
    11 LYL4       28 GROUP        1 Z    LYL  0     **** LYL Z 18
    12 GLL5        2 GROUP        1 Z    GLL  0     **** GLL Z 20
@<TRIPOS>SET

