#    Name: 3kmr_EQN_1_ligand
#    Modification time : Mon Mar 24 19:48:56 2014

@<TRIPOS>MOLECULE
3kmr_EQN_1_ligand
   50    52     1     0     0
SMALL
NO_CHARGES


@<TRIPOS>ATOM
      1 CAA       -10.2330  -12.1840  -13.3630 C.3       1 EQN1        0.0000 
      2 CAB       -11.7880  -10.2480  -13.4820 C.3       1 EQN1        0.0000 
      3 CAC       -11.0680  -10.4690  -17.9260 C.3       1 EQN1        0.0000 
      4 CAD        -9.1860  -12.0180  -17.4770 C.3       1 EQN1        0.0000 
      5 OAE        -4.1990   -4.1180   -8.1230 O.co2     1 EQN1        0.0000 
      6 OAF        -6.8470   -6.5530  -14.0660 O.2       1 EQN1        0.0000 
      7 OAG        -4.2850   -6.0020   -7.0080 O.co2     1 EQN1        0.0000 
      8 CAH        -6.2810   -5.8750  -11.4120 C.ar      1 EQN1        0.0000 
      9 CAI        -6.6280   -7.8260  -10.0330 C.ar      1 EQN1        0.0000 
     10 CAJ        -5.5810   -5.2620  -10.3530 C.ar      1 EQN1        0.0000 
     11 CAK        -5.9180   -7.2260   -8.9900 C.ar      1 EQN1        0.0000 
     12 CAL        -7.9320   -8.3710  -15.7840 C.ar      1 EQN1        0.0000 
     13 CAM        -8.6160   -9.2890  -16.5410 C.ar      1 EQN1        0.0000 
     14 CAN        -9.1700   -9.2630  -13.9880 C.ar      1 EQN1        0.0000 
     15 CAO       -12.0030  -12.1100  -15.0980 C.3       1 EQN1        0.0000 
     16 CAP       -11.3480  -12.4870  -16.4200 C.3       1 EQN1        0.0000 
     17 NAQ        -7.5220   -7.7920  -12.2170 N.am      1 EQN1        0.0000 
     18 CAR        -4.5830   -5.2900   -7.9920 C.2       1 EQN1        0.0000 
     19 CAS        -7.5100   -7.4440  -13.5440 C.2       1 EQN1        0.0000 
     20 CAT        -6.8230   -7.1600  -11.2520 C.ar      1 EQN1        0.0000 
     21 CAU        -5.3930   -5.9360   -9.1470 C.ar      1 EQN1        0.0000 
     22 CAV        -8.2480   -8.3640  -14.4510 C.ar      1 EQN1        0.0000 
     23 CAW        -9.5830  -10.2260  -16.1180 C.ar      1 EQN1        0.0000 
     24 CAX        -9.8890  -10.2090  -14.7390 C.ar      1 EQN1        0.0000 
     25 CAY       -11.0110  -11.2830  -14.3330 C.3       1 EQN1        0.0000 
     26 CAZ       -10.4360  -11.3670  -16.8510 C.3       1 EQN1        0.0000 
     27 H          -6.3933   -5.3783  -12.3014 H         1 EQN1        0.0000 
     28 H          -7.0162   -8.7744   -9.9070 H         1 EQN1        0.0000 
     29 H          -5.2095   -4.3121  -10.4774 H         1 EQN1        0.0000 
     30 H          -5.7795   -7.7292   -8.1063 H         1 EQN1        0.0000 
     31 H          -7.2511   -7.7514  -16.1788 H         1 EQN1        0.0000 
     32 H          -8.3943   -9.3080  -17.6056 H         1 EQN1        0.0000 
     33 H          -9.3787   -9.2558  -12.9269 H         1 EQN1        0.0000 
     34 H         -12.2403  -13.0063  -14.5501 H         1 EQN1        0.0000 
     35 H         -12.8933  -11.5360  -15.2929 H         1 EQN1        0.0000 
     36 H         -12.1168  -12.6440  -17.1674 H         1 EQN1        0.0000 
     37 H         -10.7757  -13.3977  -16.2880 H         1 EQN1        0.0000 
     38 H          -8.1325   -8.6258  -11.9369 H         1 EQN1        0.0000 
     39 H          -9.7039  -12.8810  -13.8469 H         1 EQN1        0.0000 
     40 H          -9.5881  -11.6606  -12.8061 H         1 EQN1        0.0000 
     41 H         -10.8425  -12.6641  -12.7322 H         1 EQN1        0.0000 
     42 H         -11.1737   -9.6888  -12.9252 H         1 EQN1        0.0000 
     43 H         -12.3185   -9.6212  -14.0527 H         1 EQN1        0.0000 
     44 H         -12.4307  -10.6895  -12.8559 H         1 EQN1        0.0000 
     45 H         -10.4382   -9.7542  -18.2300 H         1 EQN1        0.0000 
     46 H         -11.3328  -10.9907  -18.7370 H         1 EQN1        0.0000 
     47 H         -11.8912  -10.0110  -17.5904 H         1 EQN1        0.0000 
     48 H          -8.5183  -11.3337  -17.7702 H         1 EQN1        0.0000 
     49 H          -8.7205  -12.6242  -16.8321 H         1 EQN1        0.0000 
     50 H          -9.4160  -12.5664  -18.2809 H         1 EQN1        0.0000 
@<TRIPOS>BOND
     1   25    1 1    
     2   39    1 1    
     3   40    1 1    
     4   41    1 1    
     5   25    2 1    
     6   42    2 1    
     7   43    2 1    
     8   44    2 1    
     9   26    3 1    
    10   45    3 1    
    11   46    3 1    
    12   47    3 1    
    13   26    4 1    
    14   48    4 1    
    15   49    4 1    
    16   50    4 1    
    17   18    5 ar   
    18   19    6 2    
    19   18    7 ar   
    20   10    8 ar   
    21   20    8 ar   
    22   27    8 1    
    23   11    9 ar   
    24   20    9 ar   
    25   28    9 1    
    26   21   10 ar   
    27   29   10 1    
    28   21   11 ar   
    29   30   11 1    
    30   13   12 ar   
    31   22   12 ar   
    32   31   12 1    
    33   23   13 ar   
    34   32   13 1    
    35   22   14 ar   
    36   24   14 ar   
    37   33   14 1    
    38   16   15 1    
    39   25   15 1    
    40   34   15 1    
    41   35   15 1    
    42   26   16 1    
    43   36   16 1    
    44   37   16 1    
    45   19   17 am   
    46   20   17 1    
    47   38   17 1    
    48   21   18 1    
    49   22   19 1    
    50   24   23 ar   
    51   26   23 1    
    52   25   24 1    
@<TRIPOS>SUBSTRUCTURE
     1 EQN1        1 GROUP   
@<TRIPOS>SET

