#    Name: 4BS4_1_CAVITY_N1_6.mol2
#    Modification time : Tue Mar 11 20:25:43 2014

@<TRIPOS>MOLECULE
4BS4_1_CAVITY_N1_6.mol2
   69     0     6     0     0
SMALL
NO_CHARGES


@<TRIPOS>ATOM
      1 OG        -41.3209  -14.8446   14.6307 O.2       1 SER1        0.0000 
      2 CA        -41.2017  -13.6870   13.6843 C.3       5 GLY6        0.0000 
      3 CA        -41.0825  -12.5294   12.7379 C.3       5 GLY6        0.0000 
      4 CZ        -39.6437  -12.8767   12.4942 C.ar      4 PHE5        0.0000 
      5 CA        -40.9633  -11.3717   11.7915 C.3       5 GLY6        0.0000 
      6 CZ        -39.5246  -11.7191   11.5478 C.ar      4 PHE5        0.0000 
      7 N         -40.8441  -10.2141   10.8451 N.2       2 ALA2        0.0000 
      8 N         -39.4054  -10.5614   10.6014 N.2       2 ALA2        0.0000 
      9 N         -37.9666  -10.9087   10.3577 N.2       2 ALA2        0.0000 
     10 N         -39.2862   -9.4038    9.6550 N.2       2 ALA2        0.0000 
     11 N         -37.8474   -9.7511    9.4113 N.2       2 ALA2        0.0000 
     12 NZ        -40.9137  -13.9562   15.7686 N.2       3 LYS4        0.0000 
     13 CZ        -39.4749  -14.3036   15.5250 C.ar      4 PHE5        0.0000 
     14 CA        -40.7945  -12.7986   14.8222 C.3       5 GLY6        0.0000 
     15 CZ        -39.3557  -13.1459   14.5786 C.ar      4 PHE5        0.0000 
     16 CZ        -39.2366  -11.9883   13.6322 C.ar      4 PHE5        0.0000 
     17 N         -40.5561  -10.4833   12.9294 N.2       2 ALA2        0.0000 
     18 N         -39.1174  -10.8307   12.6858 N.2       2 ALA2        0.0000 
     19 OG        -38.9486  -12.2575   15.7165 O.2       1 SER1        0.0000 
     20 N         -38.8294  -11.0999   14.7701 N.2       2 ALA2        0.0000 
     21 CA        -42.6416  -12.3408    3.2624 C.3       5 GLY6        0.0000 
     22 CA        -38.0374  -13.6520    4.6158 C.3       5 GLY6        0.0000 
     23 O         -36.5986  -13.9993    4.3722 O.2       2 ALA2        0.0000 
     24 CA        -35.1599  -14.3467    4.1285 C.3       5 GLY6        0.0000 
     25 N         -42.2345  -11.4524    4.4004 N.2       2 ALA2        0.0000 
     26 CA        -40.7957  -11.7997    4.1567 C.3       5 GLY6        0.0000 
     27 CA        -39.3570  -12.1471    3.9131 C.3       5 GLY6        0.0000 
     28 CA        -37.9182  -12.4944    3.6694 C.3       5 GLY6        0.0000 
     29 N         -42.1153  -10.2948    3.4540 N.2       2 ALA2        0.0000 
     30 DU        -40.6765  -10.6421    3.2103 H         6 CUB7        0.0000 
     31 CA        -40.5077  -12.0690    6.2411 C.3       5 GLY6        0.0000 
     32 CA        -39.0690  -12.4163    5.9975 C.3       5 GLY6        0.0000 
     33 CA        -37.6302  -12.7636    5.7538 C.3       5 GLY6        0.0000 
     34 N         -40.3885  -10.9113    5.2947 N.2       2 ALA2        0.0000 
     35 CA        -38.9498  -11.2587    5.0511 C.3       5 GLY6        0.0000 
     36 CA        -37.5110  -11.6060    4.8074 C.3       5 GLY6        0.0000 
     37 CA        -36.0723  -11.9533    4.5637 C.3       5 GLY6        0.0000 
     38 CA        -34.6335  -12.3006    4.3201 C.3       5 GLY6        0.0000 
     39 N         -41.7081   -9.4064    4.5920 N.2       2 ALA2        0.0000 
     40 CZ        -40.2694   -9.7537    4.3483 C.ar      4 PHE5        0.0000 
     41 CZ        -38.8306  -10.1010    4.1047 C.ar      4 PHE5        0.0000 
     42 CZ        -37.3919  -10.4483    3.8610 C.ar      4 PHE5        0.0000 
     43 CZ        -40.1502   -8.5961    3.4019 C.ar      4 PHE5        0.0000 
     44 CZ        -40.2197  -12.3382    8.3255 C.ar      4 PHE5        0.0000 
     45 CA        -38.7810  -12.6855    8.0818 C.3       5 GLY6        0.0000 
     46 O         -37.3422  -13.0329    7.8382 O.2       2 ALA2        0.0000 
     47 CA        -41.5393  -10.8333    7.6227 C.3       5 GLY6        0.0000 
     48 DU        -40.1005  -11.1806    7.3791 H         6 CUB7        0.0000 
     49 CA        -38.6618  -11.5279    7.1354 C.3       5 GLY6        0.0000 
     50 O         -37.2230  -11.8752    6.8918 O.2       2 ALA2        0.0000 
     51 N         -39.9814  -10.0229    6.4327 N.2       2 ALA2        0.0000 
     52 CZ        -38.5426  -10.3703    6.1890 C.ar      4 PHE5        0.0000 
     53 CA        -37.1039  -10.7176    5.9454 C.3       5 GLY6        0.0000 
     54 N         -41.3009   -8.5180    5.7299 N.2       2 ALA2        0.0000 
     55 CZ        -39.8622   -8.8653    5.4863 C.ar      4 PHE5        0.0000 
     56 OG        -41.7280  -15.7330   13.4927 O.2       1 SER1        0.0000 
     57 CA        -41.3705  -12.2601   10.6535 C.3       5 GLY6        0.0000 
     58 CZ        -39.9317  -12.6074   10.4098 C.ar      4 PHE5        0.0000 
     59 CA        -41.2513  -11.1025    9.7071 C.3       5 GLY6        0.0000 
     60 CZ        -39.8125  -11.4498    9.4634 C.ar      4 PHE5        0.0000 
     61 CZ        -38.3738  -11.7971    9.2198 C.ar      4 PHE5        0.0000 
     62 CA        -36.9350  -12.1445    8.9761 C.3       5 GLY6        0.0000 
     63 N         -41.1321   -9.9449    8.7607 N.2       2 ALA2        0.0000 
     64 N         -39.6934  -10.2922    8.5170 N.2       2 ALA2        0.0000 
     65 CA        -38.2546  -10.6395    8.2734 C.3       5 GLY6        0.0000 
     66 CA        -36.8159  -10.9868    8.0297 C.3       5 GLY6        0.0000 
     67 N         -39.5742   -9.1345    7.5706 N.2       2 ALA2        0.0000 
     68 OG        -38.1354   -9.4819    7.3270 O.2       1 SER1        0.0000 
     69 CZ        -39.4550   -7.9769    6.6242 C.ar      4 PHE5        0.0000 
@<TRIPOS>BOND
@<TRIPOS>SUBSTRUCTURE
     1 SER1        1 GROUP   
     2 ALA2        7 GROUP   
     3 LYS4       12 GROUP   
     4 PHE5        4 GROUP   
     5 GLY6        2 GROUP   
     6 CUB7       30 GROUP   
@<TRIPOS>SET

