#    Name: 4bs4_A64_1_INTS_M
#    Modification time : Tue Mar 25 08:20:31 2014

@<TRIPOS>MOLECULE
4bs4_A64_1_INTS_M
   57     0     6     0     0
SMALL
NO_CHARGES


@<TRIPOS>ATOM
      1 CA        -36.3655  -10.3725    6.4055 C.3       2 GLC5        0.0000 
      2 CA        -38.1700  -11.0450    5.7030 C.3       6 GLL5        0.0000 
      3 CA        -34.5610   -9.7000    7.1080 C.3       4 GLP5        0.0000 
      4 CA        -37.8515   -9.2410    4.7925 C.3       2 GLC5        0.0000 
      5 CA        -37.5330   -7.4370    3.8820 C.3       4 GLP5        0.0000 
      6 CA        -36.6285   -9.9045    7.8435 C.3       2 GLC5        0.0000 
      7 CA        -38.6960  -10.1090    8.5790 C.3       6 GLL5        0.0000 
      8 CA        -41.1640  -11.3935   13.0525 C.3       2 GLC5        0.0000 
      9 CA        -39.3130  -11.5760   12.0380 C.3       6 GLL5        0.0000 
     10 CA        -43.0150  -11.2110   14.0670 C.3       4 GLP5        0.0000 
     11 CA        -38.1340  -12.7660   11.8855 C.3       2 GLC5        0.0000 
     12 CA        -36.9550  -13.9560   11.7330 C.3       4 GLP5        0.0000 
     13 CA        -39.7050  -15.5585   16.3020 C.3       2 GLC5        0.0000 
     14 CA        -41.1250  -14.3250   15.5680 C.3       6 GLL5        0.0000 
     15 CA        -38.2850  -16.7920   17.0360 C.3       4 GLP5        0.0000 
     16 CA        -40.4410  -10.8380   16.9250 C.3       2 GLC5        0.0000 
     17 CA        -39.5770  -12.5420   16.1390 C.3       6 GLL5        0.0000 
     18 CA        -41.3050   -9.1340   17.7110 C.3       4 GLP5        0.0000 
     19 CA        -37.3790  -12.4595   16.3085 C.3       2 GLC5        0.0000 
     20 CA        -35.1810  -12.3770   16.4780 C.3       4 GLP5        0.0000 
     21 N         -36.6765   -9.6320   14.7165 N.am      1 SEC2        0.0000 
     22 N         -37.8650  -10.5000   15.0840 N.am      5 SEL2        0.0000 
     23 N         -35.4880   -8.7640   14.3490 N.am      3 SEP2        0.0000 
     24 N         -37.1650  -10.5780   16.3750 N.am      1 SEC2        0.0000 
     25 N         -36.4650  -10.6560   17.6660 N.am      3 SEP2        0.0000 
     26 CA        -37.2215  -11.8765   12.1870 C.3       2 GLC5        0.0000 
     27 CA        -38.5420  -10.8360   12.9210 C.3       6 GLL5        0.0000 
     28 CA        -35.9010  -12.9170   11.4530 C.3       4 GLP5        0.0000 
     29 CA        -38.7945   -8.4200    4.9115 C.3       2 GLC5        0.0000 
     30 CA        -40.0560   -9.4030    5.9410 C.3       6 GLL5        0.0000 
     31 CA        -40.8360   -7.4530    6.4860 C.3       2 GLC5        0.0000 
     32 CA        -41.6160   -5.5030    7.0310 C.3       4 GLP5        0.0000 
     33 CA        -39.0335  -12.9898    6.2045 C.3       2 GLC5        0.0000 
     34 CA        -39.5640  -10.7880    6.3130 C.3       6 GLL5        0.0000 
     35 CA        -39.2000  -15.0630    6.4010 C.3       4 GLP5        0.0000 
     36 CA        -39.5278  -13.2592    7.2580 C.3       2 GLC5        0.0000 
     37 CA        -39.4980  -10.9430    7.8020 C.3       6 GLL5        0.0000 
     38 CA        -37.1752   -8.7160    9.4525 C.3       2 GLC5        0.0000 
     39 CA        -35.6900   -7.2300    9.6340 C.3       4 GLP5        0.0000 
     40 CA        -37.4380  -11.8648   10.8627 C.3       2 GLC5        0.0000 
     41 CA        -38.6250  -10.2950    9.9630 C.3       6 GLL5        0.0000 
     42 CA        -41.9163  -12.1845    9.1950 C.3       2 GLC5        0.0000 
     43 CA        -40.1600  -12.1560    9.8020 C.3       6 GLL5        0.0000 
     44 CA        -43.6460  -12.3070    9.2750 C.3       4 GLP5        0.0000 
     45 CA        -39.2258   -9.2885   12.4582 C.3       2 GLC5        0.0000 
     46 CA        -39.5240   -7.3710   12.4370 C.3       4 GLP5        0.0000 
     47 CA        -41.8125  -12.3562   14.0315 C.3       2 GLC5        0.0000 
     48 CA        -40.1940  -12.9900   13.7870 C.3       6 GLL5        0.0000 
     49 CA        -41.8902  -12.5860   15.0585 C.3       2 GLC5        0.0000 
     50 CA        -41.4742  -14.6100   17.9300 C.3       2 GLC5        0.0000 
     51 CA        -42.1830  -15.2590   19.8100 C.3       4 GLP5        0.0000 
     52 CA        -39.3457  -12.7008   18.0292 C.3       2 GLC5        0.0000 
     53 CA        -40.4060  -13.5970   16.5320 C.3       6 GLL5        0.0000 
     54 CA        -38.7000  -12.3320   19.7230 C.3       4 GLP5        0.0000 
     55 CA        -39.1038  -14.3842   17.2127 C.3       2 GLC5        0.0000 
     56 CA        -38.2160  -15.6990   18.0900 C.3       4 GLP5        0.0000 
     57 CA        -41.2717  -11.7922   14.7692 C.3       2 GLC5        0.0000 
@<TRIPOS>BOND
@<TRIPOS>SUBSTRUCTURE
     1 SEC2       21 GROUP        1 X    SEC  0     ROOT SEC X 2
     2 GLC5        1 GROUP        1 X    GLC  0     **** GLC X 6
     3 SEP2       23 GROUP        1 Y    SEP  0     ROOT SEP Y 9
     4 GLP5        3 GROUP        1 Y    GLP  0     **** GLP Y 13
     5 SEL2       22 GROUP        1 Z    SEL  0     ROOT SEL Z 16
     6 GLL5        2 GROUP        1 Z    GLL  0     **** GLL Z 20
@<TRIPOS>SET

