#    Name: 4bs4_A64_1_ligand
#    Modification time : Tue Mar 25 08:20:31 2014

@<TRIPOS>MOLECULE
4bs4_A64_1_ligand
   36    38     1     0     0
SMALL
NO_CHARGES


@<TRIPOS>ATOM
      1 CAS       -38.1700  -11.0450    5.7030 C.3       1 A642165     0.0000 
      2 CAP       -39.4980  -10.9430    7.8020 C.ar      1 A642165     0.0000 
      3 CAO       -38.6960  -10.1090    8.5790 C.ar      1 A642165     0.0000 
      4 CAN       -38.6250  -10.2950    9.9630 C.ar      1 A642165     0.0000 
      5 CAL       -40.2130  -11.9680    8.4280 C.ar      1 A642165     0.0000 
      6 CAM       -40.1600  -12.1560    9.8020 C.ar      1 A642165     0.0000 
      7 CAK       -39.3250  -11.3300   10.5820 C.ar      1 A642165     0.0000 
      8 CAI       -39.3130  -11.5760   12.0380 C.2       1 A642165     0.0000 
      9 OAJ       -40.0750  -12.6350   12.4750 O.3       1 A642165     0.0000 
     10 CAF       -40.1940  -12.9900   13.7870 C.ar      1 A642165     0.0000 
     11 CAA       -41.0260  -14.0130   14.2050 C.ar      1 A642165     0.0000 
     12 CAB       -41.1250  -14.3250   15.5680 C.ar      1 A642165     0.0000 
     13 CAC       -40.4060  -13.5970   16.5320 C.ar      1 A642165     0.0000 
     14 CAD       -39.5770  -12.5420   16.1390 C.ar      1 A642165     0.0000 
     15 CAE       -39.4800  -12.2050   14.8040 C.ar      1 A642165     0.0000 
     16 CAG       -38.5810  -11.1250   14.2900 C.2       1 A642165     0.0000 
     17 OAQ       -37.8650  -10.5000   15.0840 O.2       1 A642165     0.0000 
     18 CAH       -38.5420  -10.8360   12.9210 C.2       1 A642165     0.0000 
     19 C1        -39.5640  -10.7880    6.3130 C.3       1 A642165     0.0000 
     20 C         -40.0560   -9.4030    5.9410 C.3       1 A642165     0.0000 
     21 H         -38.1556   -9.3561    8.1362 H         1 A642165     0.0000 
     22 H         -38.0466   -9.6571   10.5323 H         1 A642165     0.0000 
     23 H         -40.7963  -12.6015    7.8476 H         1 A642165     0.0000 
     24 H         -40.7170  -12.8834   10.2536 H         1 A642165     0.0000 
     25 H         -41.5756  -14.5498   13.5219 H         1 A642165     0.0000 
     26 H         -41.7342  -15.1002   15.8700 H         1 A642165     0.0000 
     27 H         -40.4919  -13.8426   17.5235 H         1 A642165     0.0000 
     28 H         -39.0443  -12.0235   16.8486 H         1 A642165     0.0000 
     29 H         -37.9423  -10.0772   12.5779 H         1 A642165     0.0000 
     30 H         -40.2441  -11.5234    5.9068 H         1 A642165     0.0000 
     31 H         -37.4871  -10.4045    6.0542 H         1 A642165     0.0000 
     32 H         -37.8396  -11.9666    5.9068 H         1 A642165     0.0000 
     33 H         -38.1768  -10.9495    4.7076 H         1 A642165     0.0000 
     34 H         -39.4423   -8.6883    6.2765 H         1 A642165     0.0000 
     35 H         -40.1263   -9.2875    4.9502 H         1 A642165     0.0000 
     36 H         -40.9609   -9.2153    6.3229 H         1 A642165     0.0000 
@<TRIPOS>BOND
     1   19    1 1    
     2   31    1 1    
     3   32    1 1    
     4   33    1 1    
     5    3    2 ar   
     6    5    2 ar   
     7   19    2 1    
     8    4    3 ar   
     9   21    3 1    
    10    7    4 ar   
    11   22    4 1    
    12    6    5 ar   
    13   23    5 1    
    14    7    6 ar   
    15   24    6 1    
    16    8    7 1    
    17    9    8 1    
    18   18    8 2    
    19   10    9 1    
    20   11   10 ar   
    21   15   10 ar   
    22   12   11 ar   
    23   25   11 1    
    24   13   12 ar   
    25   26   12 1    
    26   14   13 ar   
    27   27   13 1    
    28   15   14 ar   
    29   28   14 1    
    30   16   15 1    
    31   17   16 2    
    32   18   16 1    
    33   29   18 1    
    34   20   19 1    
    35   30   19 1    
    36   34   20 1    
    37   35   20 1    
    38   36   20 1    
@<TRIPOS>SUBSTRUCTURE
     1 A642165     1 GROUP   
@<TRIPOS>SET

