#    Name: 3TCG_5_CAVITY_N1_6.mol2
#    Modification time : Tue Mar 11 03:24:05 2014

@<TRIPOS>MOLECULE
3TCG_5_CAVITY_N1_6.mol2
   98     0     6     0     0
SMALL
NO_CHARGES


@<TRIPOS>ATOM
      1 CA         13.4276    1.4317   52.7630 C.3       5 GLY6        0.0000 
      2 O          14.4306    0.7108   51.9119 O.2       2 ALA2        0.0000 
      3 O          15.4335   -0.0101   51.0608 O.2       2 ALA2        0.0000 
      4 N          16.4365   -0.7310   50.2097 N.2       2 ALA2        0.0000 
      5 O          11.1343    7.9442   47.1882 O.2       2 ALA2        0.0000 
      6 CZ         10.7616    6.6487   47.8463 C.ar      4 PHE5        0.0000 
      7 N          11.7646    5.9279   46.9951 N.2       2 ALA2        0.0000 
      8 CZ         10.3889    5.3533   48.5043 C.ar      4 PHE5        0.0000 
      9 CZ         11.3919    4.6324   47.6532 C.ar      4 PHE5        0.0000 
     10 N          12.3948    3.9116   46.8020 N.2       2 ALA2        0.0000 
     11 N          13.3978    3.1907   45.9509 N.2       2 ALA2        0.0000 
     12 O          11.0192    3.3370   48.3112 O.2       2 ALA2        0.0000 
     13 CA         12.0221    2.6161   47.4601 C.3       5 GLY6        0.0000 
     14 CA         13.0251    1.8952   46.6089 C.3       5 GLY6        0.0000 
     15 O           9.4528    9.7320   46.3361 O.2       2 ALA2        0.0000 
     16 O          10.4558    9.0111   45.4849 O.2       2 ALA2        0.0000 
     17 CA          9.0801    8.4366   46.9941 C.3       5 GLY6        0.0000 
     18 CZ         10.0831    7.7157   46.1430 C.ar      4 PHE5        0.0000 
     19 CA          8.7074    7.1411   47.6521 C.3       5 GLY6        0.0000 
     20 N           9.7104    6.4202   46.8010 N.2       2 ALA2        0.0000 
     21 N          10.7133    5.6994   45.9499 N.2       2 ALA2        0.0000 
     22 CA         20.6601    2.8914   49.4751 C.3       5 GLY6        0.0000 
     23 OG         21.6630    2.1705   48.6240 O.2       1 SER1        0.0000 
     24 N          17.2785    3.7586   52.6865 N.2       2 ALA2        0.0000 
     25 N          18.2815    3.0378   51.8353 N.2       2 ALA2        0.0000 
     26 OG         19.2844    2.3169   50.9842 O.2       1 SER1        0.0000 
     27 OG         21.2903    0.8751   49.2820 O.2       1 SER1        0.0000 
     28 O          14.4974    4.3686   48.8926 O.2       2 ALA2        0.0000 
     29 OG         15.5003    3.6477   48.0415 O.2       1 SER1        0.0000 
     30 CZ         13.1217    3.7940   50.4017 C.ar      4 PHE5        0.0000 
     31 CZ         14.1247    3.0731   49.5506 C.ar      4 PHE5        0.0000 
     32 OG         15.1276    2.3522   48.6995 O.2       1 SER1        0.0000 
     33 CZ         16.1306    1.6314   47.8484 C.ar      4 PHE5        0.0000 
     34 CA         12.7490    2.4986   51.0597 C.3       5 GLY6        0.0000 
     35 CA         13.7520    1.7777   50.2086 C.3       5 GLY6        0.0000 
     36 DU         14.7549    1.0568   49.3575 H         6 CUB7        0.0000 
     37 CZ         15.7579    0.3359   48.5064 C.ar      4 PHE5        0.0000 
     38 OG          8.7742   10.7989   44.6328 O.2       1 SER1        0.0000 
     39 O           9.7772   10.0780   43.7816 O.2       2 ALA2        0.0000 
     40 N          13.4461    4.1401   47.8473 N.2       2 ALA2        0.0000 
     41 OG         14.4491    3.4192   46.9962 O.2       1 SER1        0.0000 
     42 OG         15.4520    2.6983   46.1451 O.2       1 SER1        0.0000 
     43 CZ         12.0705    3.5655   49.3565 C.ar      4 PHE5        0.0000 
     44 CA         13.0734    2.8446   48.5053 C.3       5 GLY6        0.0000 
     45 CA         14.0764    2.1237   47.6542 C.3       5 GLY6        0.0000 
     46 CZ         15.0793    1.4029   46.8031 C.ar      4 PHE5        0.0000 
     47 CA         11.6978    2.2701   50.0145 C.3       5 GLY6        0.0000 
     48 CA         12.7007    1.5492   49.1634 C.3       5 GLY6        0.0000 
     49 CA         13.7037    0.8283   48.3122 C.3       5 GLY6        0.0000 
     50 OG         14.7066    0.1074   47.4611 O.2       1 SER1        0.0000 
     51 CZ         16.7608   -0.3849   47.6553 C.ar      4 PHE5        0.0000 
     52 CA         13.3793    0.4823   50.8667 C.3       5 GLY6        0.0000 
     53 N          14.3822   -0.2386   50.0155 N.2       2 ALA2        0.0000 
     54 O          15.5487    4.5971   49.9379 O.2       2 ALA2        0.0000 
     55 N          15.9028    3.1841   54.1956 N.2       2 ALA2        0.0000 
     56 O          16.9058    2.4632   53.3445 O.2       2 ALA2        0.0000 
     57 OG         17.9088    1.7423   52.4934 O.2       1 SER1        0.0000 
     58 OG         18.6058    3.3838   49.2809 O.2       1 SER1        0.0000 
     59 OG         19.6088    2.6629   48.4298 O.2       1 SER1        0.0000 
     60 CZ         20.6118    1.9420   47.5787 C.ar      4 PHE5        0.0000 
     61 CA          9.3377    5.1248   47.4590 C.3       5 GLY6        0.0000 
     62 N          10.3406    4.4039   46.6079 N.2       2 ALA2        0.0000 
     63 N          11.3436    3.6831   45.7568 N.2       2 ALA2        0.0000 
     64 O          12.3465    2.9622   44.9056 O.2       2 ALA2        0.0000 
     65 NZ          8.4015    9.5035   45.2908 N.2       3 LYS4        0.0000 
     66 CZ          9.4045    8.7826   44.4397 C.ar      4 PHE5        0.0000 
     67 NZ          8.0288    8.2081   45.9488 N.2       3 LYS4        0.0000 
     68 N           8.6591    6.1917   45.7557 N.2       2 ALA2        0.0000 
     69 CZ          9.6620    5.4709   44.9046 C.ar      4 PHE5        0.0000 
     70 CZ         10.6650    4.7500   44.0535 C.ar      4 PHE5        0.0000 
     71 N           9.2893    4.1754   45.5626 N.2       2 ALA2        0.0000 
     72 CZ         14.1730    4.0225   51.4470 C.ar      4 PHE5        0.0000 
     73 DU         15.1760    3.3016   50.5959 H         6 CUB7        0.0000 
     74 OG         16.1789    2.5807   49.7448 O.2       1 SER1        0.0000 
     75 OG         17.1819    1.8599   48.8937 O.2       1 SER1        0.0000 
     76 CA         12.7973    3.4480   52.9561 C.3       5 GLY6        0.0000 
     77 CA         13.8003    2.7271   52.1050 C.3       5 GLY6        0.0000 
     78 DU         14.8033    2.0062   51.2539 H         6 CUB7        0.0000 
     79 DU         15.8062    1.2853   50.4028 H         6 CUB7        0.0000 
     80 N          16.8092    0.5644   49.5517 N.2       2 ALA2        0.0000 
     81 N          17.8121   -0.1564   48.7006 N.2       2 ALA2        0.0000 
     82 N          18.8151   -0.8773   47.8494 N.2       2 ALA2        0.0000 
     83 O          15.2243    4.2510   52.4923 O.2       2 ALA2        0.0000 
     84 N          16.2272    3.5301   51.6412 N.2       2 ALA2        0.0000 
     85 N          17.2302    2.8093   50.7901 N.2       2 ALA2        0.0000 
     86 OG         18.2331    2.0884   49.9389 O.2       1 SER1        0.0000 
     87 CZ         19.2361    1.3675   49.0878 C.ar      4 PHE5        0.0000 
     88 CZ         20.2391    0.6466   48.2367 C.ar      4 PHE5        0.0000 
     89 CZ         21.2420   -0.0743   47.3856 C.ar      4 PHE5        0.0000 
     90 OG         13.8486    3.6765   54.0014 O.2       1 SER1        0.0000 
     91 DU         14.8516    2.9556   53.1503 H         6 CUB7        0.0000 
     92 O          15.8545    2.2347   52.2992 O.2       2 ALA2        0.0000 
     93 CA         16.8575    1.5138   51.4481 C.3       5 GLY6        0.0000 
     94 CA         17.8604    0.7929   50.5970 C.3       5 GLY6        0.0000 
     95 N          18.8634    0.0721   49.7458 N.2       2 ALA2        0.0000 
     96 N          20.8693   -1.3697   48.0436 N.2       2 ALA2        0.0000 
     97 O          14.4789    1.6602   53.8083 O.2       2 ALA2        0.0000 
     98 CA         17.4877   -0.5025   51.2550 C.3       5 GLY6        0.0000 
@<TRIPOS>BOND
@<TRIPOS>SUBSTRUCTURE
     1 SER1       23 GROUP   
     2 ALA2        2 GROUP   
     3 LYS4       65 GROUP   
     4 PHE5        6 GROUP   
     5 GLY6        1 GROUP   
     6 CUB7       36 GROUP   
@<TRIPOS>SET

