#    Name: 3tcg_LYS_GLY_GLU_5_INTS_M
#    Modification time : Mon Mar 24 19:31:47 2014

@<TRIPOS>MOLECULE
3tcg_LYS_GLY_GLU_5_INTS_M
   59     0     9     0     0
SMALL
NO_CHARGES


@<TRIPOS>ATOM
      1 O           8.7450    2.6225   41.9705 O.2       1 ALC1        0.0000 
      2 O           7.7150    3.3990   42.7440 O.2       7 ALL1        0.0000 
      3 O           9.7750    1.8460   41.1970 O.2       4 ALP1        0.0000 
      4 O           6.5335    3.1005   41.7465 O.2       1 ALC1        0.0000 
      5 O           5.3520    2.8020   40.7490 O.2       4 ALP1        0.0000 
      6 O           6.8075    2.2900   42.4390 O.2       1 ALC1        0.0000 
      7 O           5.9000    1.1810   42.1340 O.2       4 ALP1        0.0000 
      8 CA          5.8515    3.8605   43.6670 C.3       3 GLC5        0.0000 
      9 CA          7.9000    3.1050   44.1880 C.3       9 GLL5        0.0000 
     10 CA          3.8030    4.6160   43.1460 C.3       6 GLP5        0.0000 
     11 CA          7.5370    4.8010   43.2380 C.3       3 GLC5        0.0000 
     12 CA          7.1740    6.4970   42.2880 C.3       6 GLP5        0.0000 
     13 N          11.1710    3.2600   43.1565 N.am      2 SEC2        0.0000 
     14 N          10.2230    3.6420   44.1430 N.am      8 SEL2        0.0000 
     15 N          12.1190    2.8780   42.1700 N.am      5 SEP2        0.0000 
     16 CA          9.5060    0.8770   45.8675 C.3       3 GLC5        0.0000 
     17 CA          8.0810    1.5990   44.3550 C.3       9 GLL5        0.0000 
     18 CA         10.9310    0.1550   47.3800 C.3       6 GLP5        0.0000 
     19 CA         10.0165    1.0735   43.6505 C.3       3 GLC5        0.0000 
     20 CA         11.9520    0.5480   42.9460 C.3       6 GLP5        0.0000 
     21 CA          8.2565    0.7090   47.3260 C.3       3 GLC5        0.0000 
     22 CA          7.4150    1.0370   45.5420 C.3       9 GLL5        0.0000 
     23 CA          9.0980    0.3810   49.1100 C.3       6 GLP5        0.0000 
     24 CA          9.2930   -0.1570   46.5245 C.3       3 GLC5        0.0000 
     25 CA          7.6550   -0.4690   45.6690 C.3       9 GLL5        0.0000 
     26 CA          4.9470   -0.6825   43.8575 C.3       3 GLC5        0.0000 
     27 CA          6.7760   -1.2770   44.7390 C.3       9 GLL5        0.0000 
     28 CA          3.1180   -0.0880   42.9760 C.3       6 GLP5        0.0000 
     29 O           6.8190   -3.9350   44.7580 O.2       1 ALC1        0.0000 
     30 O           6.7260   -2.7150   45.1440 O.2       7 ALL1        0.0000 
     31 O           6.9120   -5.1550   44.3720 O.2       4 ALP1        0.0000 
     32 O           7.7420    4.7205   46.2930 O.2       1 ALC1        0.0000 
     33 O           9.0350    4.5840   45.8020 O.2       7 ALL1        0.0000 
     34 O           6.4490    4.8570   46.7840 O.2       4 ALP1        0.0000 
     35 CA          8.8205    4.5335   47.7540 C.3       3 GLC5        0.0000 
     36 CA         10.1960    5.2650   46.3850 C.3       9 GLL5        0.0000 
     37 CA          7.4450    3.8020   49.1230 C.3       6 GLP5        0.0000 
     38 CA          9.8890    6.0130   44.5280 C.3       3 GLC5        0.0000 
     39 CA          9.5820    6.7610   42.6710 C.3       6 GLP5        0.0000 
     40 N           9.6405    2.6940   48.5405 N.am      2 SEC2        0.0000 
     41 N          10.5010    3.5860   48.0660 N.am      8 SEL2        0.0000 
     42 N           8.7800    1.8020   49.0150 N.am      5 SEP2        0.0000 
     43 O          12.8210    5.2410   45.9545 O.2       1 ALC1        0.0000 
     44 O          12.3460    4.3880   47.0560 O.2       7 ALL1        0.0000 
     45 O          13.2960    6.0940   44.8530 O.2       4 ALP1        0.0000 
     46 CA         12.4470    4.6550   49.2080 C.3       3 GLC5        0.0000 
     47 CA         13.2770    3.4910   47.7340 C.3       9 GLL5        0.0000 
     48 CA         11.6170    5.8190   50.6820 C.3       6 GLP5        0.0000 
     49 CA         16.1170    2.6395   46.1465 C.3       3 GLC5        0.0000 
     50 CA         13.9880    2.6400   46.6800 C.3       9 GLL5        0.0000 
     51 CA         18.2460    2.6390   45.6130 C.3       6 GLP5        0.0000 
     52 CA         16.7720    1.6075   46.5665 C.3       3 GLC5        0.0000 
     53 CA         15.2530    1.8950   47.1080 C.3       9 GLL5        0.0000 
     54 CA         18.2910    1.3200   46.0250 C.3       6 GLP5        0.0000 
     55 CA          6.1273   -1.0063   46.6886 C.3       3 GLC5        0.0000 
     56 CA          5.0990   -1.5160   48.2050 C.3       6 GLP5        0.0000 
     57 CA         12.2817    1.6102   47.2935 C.3       3 GLC5        0.0000 
     58 CA         14.0407    1.3827   45.3960 C.3       3 GLC5        0.0000 
     59 CA         13.4610    0.4980   43.8980 C.3       6 GLP5        0.0000 
@<TRIPOS>BOND
@<TRIPOS>SUBSTRUCTURE
     1 ALC1        1 GROUP        1 X    ALC  0     ROOT ALC X 1
     2 SEC2       13 GROUP        1 X    SEC  0     **** SEC X 2
     3 GLC5        8 GROUP        1 X    GLC  0     **** GLC X 6
     4 ALP1        3 GROUP        1 Y    ALP  0     ROOT ALP Y 8
     5 SEP2       15 GROUP        1 Y    SEP  0     **** SEP Y 9
     6 GLP5       10 GROUP        1 Y    GLP  0     **** GLP Y 13
     7 ALL1        2 GROUP        1 Z    ALL  0     ROOT ALL Z 15
     8 SEL2       14 GROUP        1 Z    SEL  0     **** SEL Z 16
     9 GLL5        9 GROUP        1 Z    GLL  0     **** GLL Z 20
@<TRIPOS>SET

