#    Name: 3tcg_LYS_GLY_GLU_5_ligand
#    Modification time : Mon Mar 24 19:31:47 2014

@<TRIPOS>MOLECULE
3tcg_LYS_GLY_GLU_5_ligand
   47    46     3     0     0
SMALL
NO_CHARGES


@<TRIPOS>ATOM
      1 N           7.7150    3.3990   42.7440 N.4       1 LYS1        0.0000
      2 CA          7.9000    3.1050   44.1880 C.3       1 LYS1        0.0000
      3 C           9.1550    3.8150   44.7180 C.2       1 LYS1        0.0000
      4 O          10.2230    3.6420   44.1430 O.2       1 LYS1        0.0000
      5 CB          8.0810    1.5990   44.3550 C.3       1 LYS1        0.0000
      6 CG          7.4150    1.0370   45.5420 C.3       1 LYS1        0.0000
      7 CD          7.6550   -0.4690   45.6690 C.3       1 LYS1        0.0000
      8 CE          6.7760   -1.2770   44.7390 C.3       1 LYS1        0.0000
      9 NZ          6.7260   -2.7150   45.1440 N.4       1 LYS1        0.0000
     10 HA          7.0556    3.4186   44.7498 H         1 LYS1        0.0000
     11 HB2         9.1699    1.3859   44.3911 H         1 LYS1        0.0000
     12 HB3         7.7047    1.1038   43.4354 H         1 LYS1        0.0000
     13 HG2         6.3306    1.2090   45.4927 H         1 LYS1        0.0000
     14 HG3         7.7843    1.5219   46.4565 H         1 LYS1        0.0000
     15 HD2         7.4643   -0.7711   46.7067 H         1 LYS1        0.0000
     16 HD3         8.7096   -0.6787   45.4494 H         1 LYS1        0.0000
     17 HE2         7.1653   -1.1932   43.7170 H         1 LYS1        0.0000
     18 HE3         5.7639   -0.8543   44.7471 H         1 LYS1        0.0000
     19 HNCA        7.6095    4.3789   42.5750 H         1 LYS1        0.0000
     20 H           8.4945    3.0899   42.1992 H         1 LYS1        0.0000
     21 H           6.9022    2.9487   42.3745 H         1 LYS1        0.0000
     22 HZ1         7.0688   -3.3163   44.4222 H         1 LYS1        0.0000
     23 HZ2         7.2784   -2.8908   45.9588 H         1 LYS1        0.0000
     24 HZ3         5.7935   -3.0098   45.3529 H         1 LYS1        0.0000
     25 N           9.0350    4.5840   45.8020 N.am      2 GLY2        0.0000
     26 CA         10.1960    5.2650   46.3850 C.3       2 GLY2        0.0000
     27 C          11.0330    4.3350   47.2440 C.2       2 GLY2        0.0000
     28 O          10.5010    3.5860   48.0660 O.2       2 GLY2        0.0000
     29 HNCA        8.1307    4.7391   46.2824 H         2 GLY2        0.0000
     30 HA2         9.8706    6.1145   47.0078 H         2 GLY2        0.0000
     31 HA3        10.8393    5.6768   45.5900 H         2 GLY2        0.0000
     32 N          12.3460    4.3880   47.0560 N.am      3 GLU3        0.0000
     33 CA         13.2770    3.4910   47.7340 C.3       3 GLU3        0.0000
     34 C          14.2770    4.3170   48.5400 C.2       3 GLU3        0.0000
     35 O          14.7430    3.8930   49.5950 O.2       3 GLU3        0.0000
     36 CB         13.9880    2.6400   46.6800 C.3       3 GLU3        0.0000
     37 CG         15.2530    1.8950   47.1080 C.3       3 GLU3        0.0000
     38 CD         15.0620    0.9260   48.2580 C.2       3 GLU3        0.0000
     39 OE1        15.9360    0.9030   49.1630 O.co2     3 GLU3        0.0000
     40 OE2        14.0660    0.1690   48.2520 O.co2     3 GLU3        0.0000
     41 HNCA       12.7864    5.0821   46.4058 H         3 GLU3        0.0000
     42 HA         12.7472    2.8379   48.4014 H         3 GLU3        0.0000
     43 H          14.4839    5.2351   48.0792 H         3 GLU3        0.0000
     44 HB2        14.2402    3.2943   45.8088 H         3 GLU3        0.0000
     45 HB3        13.2582    1.8952   46.2760 H         3 GLU3        0.0000
     46 HG2        16.0243    2.6394   47.3855 H         3 GLU3        0.0000
     47 HG3        15.6520    1.3455   46.2334 H         3 GLU3        0.0000
@<TRIPOS>BOND
     1    2    1 1
     2   19    1 1
     3   20    1 1
     4   21    1 1
     5    3    2 1
     6    5    2 1
     7   10    2 1
     8    4    3 2
     9    6    5 1
    10   11    5 1
    11   12    5 1
    12    7    6 1
    13   13    6 1
    14   14    6 1
    15    8    7 1
    16   15    7 1
    17   16    7 1
    18    9    8 1
    19   17    8 1
    20   18    8 1
    21   22    9 1
    22   23    9 1
    23   24    9 1
    24   26   25 1
    25   29   25 1
    26   27   26 1
    27   30   26 1
    28   31   26 1
    29   28   27 2
    30   33   32 1
    31   41   32 1
    32   34   33 1
    33   36   33 1
    34   42   33 1
    35   35   34 2
    36   43   34 1
    37   37   36 1
    38   44   36 1
    39   45   36 1
    40   38   37 1
    41   46   37 1
    42   47   37 1
    43   39   38 ar
    44   40   38 ar
    45   25    3 am
    46   32   27 am
@<TRIPOS>SUBSTRUCTURE
     1 LYS1        1 RESIDUE
     2 GLY2       25 RESIDUE
     3 GLU3       32 RESIDUE
@<TRIPOS>SET

