#    Name: 3r8i_XCX_1_INTS_M
#    Modification time : Tue Mar 25 11:15:34 2014

@<TRIPOS>MOLECULE
3r8i_XCX_1_INTS_M
   80     0     6     0     0
SMALL
NO_CHARGES


@<TRIPOS>ATOM
      1 CA         22.7625    8.6530   16.9890 C.3       2 GLC5        0.0000 
      2 CA         21.2620    7.3880   17.4110 C.3       6 GLL5        0.0000 
      3 CA         24.2630    9.9180   16.5670 C.3       4 GLP5        0.0000 
      4 CA         20.2385    8.1165   15.5760 C.3       2 GLC5        0.0000 
      5 CA         19.2150    8.8450   13.7410 C.3       4 GLP5        0.0000 
      6 CA         19.0115    8.3505   15.6785 C.3       2 GLC5        0.0000 
      7 CA         18.8080    7.8560   17.6160 C.3       6 GLL5        0.0000 
      8 CA         18.2995    9.6470   17.3040 C.3       2 GLC5        0.0000 
      9 CA         17.7910   11.4380   16.9920 C.3       4 GLP5        0.0000 
     10 CA         17.1695    7.8170   18.0280 C.3       2 GLC5        0.0000 
     11 CA         15.5310    7.7780   18.4400 C.3       4 GLP5        0.0000 
     12 N          21.8185    6.4840   20.0650 N.am      1 SEC2        0.0000 
     13 N          21.0300    7.5110   20.0340 N.am      5 SEL2        0.0000 
     14 N          22.6070    5.4570   20.0960 N.am      3 SEP2        0.0000 
     15 N          20.7850    6.3505   21.1420 N.am      1 SEC2        0.0000 
     16 N          20.5400    5.1900   22.2500 N.am      3 SEP2        0.0000 
     17 N          18.4230    5.5780   20.9655 N.am      1 SEC2        0.0000 
     18 N          19.1800    6.2780   20.1730 N.am      5 SEL2        0.0000 
     19 N          17.6660    4.8780   21.7580 N.am      3 SEP2        0.0000 
     20 N          19.8600    5.7340   21.2115 N.am      1 SEC2        0.0000 
     21 CA         16.4460   10.5440    5.9955 C.3       2 GLC5        0.0000 
     22 CA         17.0530   11.6190    7.6270 C.3       6 GLL5        0.0000 
     23 CA         15.8390    9.4690    4.3640 C.3       4 GLP5        0.0000 
     24 CA         16.6775    6.5805   17.2635 C.3       2 GLC5        0.0000 
     25 CA         17.8240    5.3830   16.0870 C.3       6 GLL5        0.0000 
     26 CA         19.8115    9.6180    6.9845 C.3       2 GLC5        0.0000 
     27 CA         18.9180   10.5610    8.7280 C.3       6 GLL5        0.0000 
     28 CA         20.7050    8.6750    5.2410 C.3       4 GLP5        0.0000 
     29 CA         15.4325    9.2065    6.9350 C.3       2 GLC5        0.0000 
     30 CA         16.2380   10.5520    7.9870 C.3       6 GLL5        0.0000 
     31 CA         14.6270    7.8610    5.8830 C.3       4 GLP5        0.0000 
     32 CA         11.9540    6.3750    7.6045 C.3       2 GLC5        0.0000 
     33 CA         10.5580    5.7630    9.2370 C.3       6 GLL5        0.0000 
     34 CA         13.3500    6.9870    5.9720 C.3       4 GLP5        0.0000 
     35 CA         11.4465    6.9165   11.8115 C.3       2 GLC5        0.0000 
     36 CA         11.3940    5.9210   10.5080 C.3       6 GLL5        0.0000 
     37 CA         11.4990    7.9120   13.1150 C.3       4 GLP5        0.0000 
     38 CA         12.4995    3.7530    9.2770 C.3       2 GLC5        0.0000 
     39 CA         13.6100    5.4100    9.3870 C.3       6 GLL5        0.0000 
     40 CA         11.3890    2.0960    9.1670 C.3       4 GLP5        0.0000 
     41 CA         15.7345    4.0100    8.4165 C.3       2 GLC5        0.0000 
     42 CA         15.0660    5.8680    9.2720 C.3       6 GLL5        0.0000 
     43 CA         16.4030    2.1520    7.5610 C.3       4 GLP5        0.0000 
     44 CA         16.7640    3.2725   11.9410 C.3       2 GLC5        0.0000 
     45 CA         17.6310    4.9690   12.3080 C.3       6 GLL5        0.0000 
     46 CA         15.8970    1.5760   11.5740 C.3       4 GLP5        0.0000 
     47 CA         14.3590    6.8620   11.8680 C.3       2 GLC5        0.0000 
     48 CA         15.6980    5.9760   10.6610 C.3       6 GLL5        0.0000 
     49 CA         13.0200    7.7480   13.0750 C.3       4 GLP5        0.0000 
     50 CA         15.7975    3.7760   11.1175 C.3       2 GLC5        0.0000 
     51 CA          8.9097    4.3880    8.3490 C.3       2 GLC5        0.0000 
     52 CA          7.9710    3.2410    7.2870 C.3       4 GLP5        0.0000 
     53 CA          8.7568    6.4785    7.9970 C.3       2 GLC5        0.0000 
     54 CA          7.6650    7.4220    6.5830 C.3       4 GLP5        0.0000 
     55 CA         16.3828    3.8035   16.4405 C.3       2 GLC5        0.0000 
     56 CA         17.3230    5.2450   14.7990 C.3       6 GLL5        0.0000 
     57 CA         15.1920    2.2930   17.4380 C.3       4 GLP5        0.0000 
     58 CA         18.0098   12.0756   10.0539 C.3       2 GLC5        0.0000 
     59 CA         17.6990   13.0610   11.8380 C.3       4 GLP5        0.0000 
     60 CA         19.3000    9.2858   10.5478 C.3       2 GLC5        0.0000 
     61 CA         20.0890    8.5440   12.1850 C.3       4 GLP5        0.0000 
     62 CA         11.0051    3.9120    9.5633 C.3       2 GLC5        0.0000 
     63 CA         13.1150    6.8313   11.4372 C.3       2 GLC5        0.0000 
     64 CA         13.2800    6.4507    7.8858 C.3       2 GLC5        0.0000 
     65 CA         12.8100    6.4190   10.2120 C.3       6 GLL5        0.0000 
     66 CA         15.6080    6.4945    8.1517 C.3       2 GLC5        0.0000 
     67 CA         15.8340    7.0670    6.3370 C.3       4 GLP5        0.0000 
     68 CA         18.9945    7.0058   11.9890 C.3       2 GLC5        0.0000 
     69 CA         18.1690    5.9660   11.2780 C.3       6 GLL5        0.0000 
     70 CA         19.1375    4.2462   11.2355 C.3       2 GLC5        0.0000 
     71 CA         20.3750    3.0250   10.6780 C.3       4 GLP5        0.0000 
     72 CA         20.2100    4.4674   13.0785 C.3       2 GLC5        0.0000 
     73 CA         19.5620    5.3090   13.9230 C.3       6 GLL5        0.0000 
     74 CA         21.4180    3.6450   12.0170 C.3       4 GLP5        0.0000 
     75 CA         20.2314   10.5481    8.6608 C.3       2 GLC5        0.0000 
     76 CA         18.1040    9.4940    9.0930 C.3       6 GLL5        0.0000 
     77 CA         22.0830   10.8040    8.5940 C.3       4 GLP5        0.0000 
     78 CA         16.6343    8.2803    7.6212 C.3       2 GLC5        0.0000 
     79 CA         18.9541    7.0942   14.3734 C.3       2 GLC5        0.0000 
     80 CA         18.1920    5.2020   13.7110 C.3       6 GLL5        0.0000 
@<TRIPOS>BOND
@<TRIPOS>SUBSTRUCTURE
     1 SEC2       12 GROUP        1 X    SEC  0     ROOT SEC X 2
     2 GLC5        1 GROUP        1 X    GLC  0     **** GLC X 6
     3 SEP2       14 GROUP        1 Y    SEP  0     ROOT SEP Y 9
     4 GLP5        3 GROUP        1 Y    GLP  0     **** GLP Y 13
     5 SEL2       13 GROUP        1 Z    SEL  0     ROOT SEL Z 16
     6 GLL5        2 GROUP        1 Z    GLL  0     **** GLL Z 20
@<TRIPOS>SET

