#    Name: 3r8i_XCX_1_ligand
#    Modification time : Tue Mar 25 11:15:35 2014

@<TRIPOS>MOLECULE
3r8i_XCX_1_ligand
   65    67     1     0     0
SMALL
NO_CHARGES


@<TRIPOS>ATOM
      1 N1V        18.3400    8.3930    9.8040 N.2       1 XCX1        0.0000 
      2 N2E        17.0350    6.5830   10.5750 N.pl3     1 XCX1        0.0000 
      3 CAA         9.1390    5.3070    9.5850 C.3       1 XCX1        0.0000 
      4 CAB        21.2620    7.3880   17.4110 C.3       1 XCX1        0.0000 
      5 CAC        18.8080    7.8560   17.6160 C.3       1 XCX1        0.0000 
      6 OAD        21.0300    7.5110   20.0340 O.co2     1 XCX1        0.0000 
      7 OAE        19.1800    6.2780   20.1730 O.co2     1 XCX1        0.0000 
      8 CAF        18.3930   11.6200    7.9960 C.ar      1 XCX1        0.0000 
      9 CAG        17.0530   11.6190    7.6270 C.ar      1 XCX1        0.0000 
     10 CAH        19.5620    5.3090   13.9230 C.ar      1 XCX1        0.0000 
     11 CAI        17.3230    5.2450   14.7990 C.ar      1 XCX1        0.0000 
     12 CAJ        20.0620    5.4460   15.2150 C.ar      1 XCX1        0.0000 
     13 CAK        17.8240    5.3830   16.0870 C.ar      1 XCX1        0.0000 
     14 CAL        18.9180   10.5610    8.7280 C.ar      1 XCX1        0.0000 
     15 CAM        16.2380   10.5520    7.9870 C.ar      1 XCX1        0.0000 
     16 CAN        10.5580    5.7630    9.2370 C.3       1 XCX1        0.0000 
     17 CAO        11.3940    5.9210   10.5080 C.3       1 XCX1        0.0000 
     18 CAP        12.8100    6.4190   10.2120 C.3       1 XCX1        0.0000 
     19 CAQ        13.6100    5.4100    9.3870 C.3       1 XCX1        0.0000 
     20 CAR        15.0660    5.8680    9.2720 C.3       1 XCX1        0.0000 
     21 CAS        17.6310    4.9690   12.3080 C.3       1 XCX1        0.0000 
     22 CAT        15.6980    5.9760   10.6610 C.3       1 XCX1        0.0000 
     23 CAU        18.1690    5.9660   11.2780 C.3       1 XCX1        0.0000 
     24 OAW        19.6800    5.5650   17.5720 O.3       1 XCX1        0.0000 
     25 OAX        16.2020    8.3600    9.2240 O.3       1 XCX1        0.0000 
     26 CAY        20.0610    6.8960   19.5360 C.2       1 XCX1        0.0000 
     27 CAZ        18.1920    5.2020   13.7110 C.ar      1 XCX1        0.0000 
     28 CBA        19.1950    5.4800   16.3000 C.ar      1 XCX1        0.0000 
     29 CBB        17.2020    7.7130    9.8940 C.2       1 XCX1        0.0000 
     30 CBC        18.1040    9.4940    9.0930 C.ar      1 XCX1        0.0000 
     31 CBD        16.7650    9.4930    8.7180 C.ar      1 XCX1        0.0000 
     32 CBF        19.9400    6.9040   18.0100 C.3       1 XCX1        0.0000 
     33 H          18.9992   12.4078    7.7264 H         1 XCX1        0.0000 
     34 H          16.6660   12.4043    7.0899 H         1 XCX1        0.0000 
     35 H          20.2091    5.2869   13.1227 H         1 XCX1        0.0000 
     36 H          16.3077    5.1742   14.6460 H         1 XCX1        0.0000 
     37 H          21.0777    5.5223   15.3656 H         1 XCX1        0.0000 
     38 H          17.1776    5.4138   16.8892 H         1 XCX1        0.0000 
     39 H          19.9103   10.5664    9.0003 H         1 XCX1        0.0000 
     40 H          15.2474   10.5456    7.7134 H         1 XCX1        0.0000 
     41 H          10.5110    6.7159    8.7172 H         1 XCX1        0.0000 
     42 H          11.0235    5.0243    8.5904 H         1 XCX1        0.0000 
     43 H          11.4538    4.9554   11.0198 H         1 XCX1        0.0000 
     44 H          10.8977    6.6305   11.1774 H         1 XCX1        0.0000 
     45 H          13.3297    6.6025   11.1561 H         1 XCX1        0.0000 
     46 H          12.7503    7.3631    9.6641 H         1 XCX1        0.0000 
     47 H          13.1786    5.3342    8.3950 H         1 XCX1        0.0000 
     48 H          13.5763    4.4411    9.8729 H         1 XCX1        0.0000 
     49 H          15.0994    6.8382    8.7858 H         1 XCX1        0.0000 
     50 H          15.6225    5.1485    8.6792 H         1 XCX1        0.0000 
     51 H          17.8837    3.9512   11.9853 H         1 XCX1        0.0000 
     52 H          16.5370    5.0463   12.3420 H         1 XCX1        0.0000 
     53 H          15.0394    6.5797   11.2925 H         1 XCX1        0.0000 
     54 H          15.7564    4.9718   11.0912 H         1 XCX1        0.0000 
     55 H          18.7564    6.7168   11.8005 H         1 XCX1        0.0000 
     56 H          18.8108    5.4300   10.5834 H         1 XCX1        0.0000 
     57 H           9.1382    4.4307   10.0668 H         1 XCX1        0.0000 
     58 H           8.6712    5.9658   10.1742 H         1 XCX1        0.0000 
     59 H           8.5747    5.1925    8.7674 H         1 XCX1        0.0000 
     60 H          22.0221    6.7846   17.6523 H         1 XCX1        0.0000 
     61 H          21.2249    7.4277   16.4125 H         1 XCX1        0.0000 
     62 H          21.5018    8.3042   17.7320 H         1 XCX1        0.0000 
     63 H          18.9729    8.7856   17.9456 H         1 XCX1        0.0000 
     64 H          18.6983    7.9120   16.6236 H         1 XCX1        0.0000 
     65 H          17.9288    7.5633   17.9920 H         1 XCX1        0.0000 
@<TRIPOS>BOND
     1   29    1 2    
     2   30    1 1    
     3   22    2 1    
     4   23    2 1    
     5   29    2 1    
     6   16    3 1    
     7   57    3 1    
     8   58    3 1    
     9   59    3 1    
    10   32    4 1    
    11   60    4 1    
    12   61    4 1    
    13   62    4 1    
    14   32    5 1    
    15   63    5 1    
    16   64    5 1    
    17   65    5 1    
    18   26    6 ar   
    19   26    7 ar   
    20    9    8 ar   
    21   14    8 ar   
    22   33    8 1    
    23   15    9 ar   
    24   34    9 1    
    25   12   10 ar   
    26   27   10 ar   
    27   35   10 1    
    28   13   11 ar   
    29   27   11 ar   
    30   36   11 1    
    31   28   12 ar   
    32   37   12 1    
    33   28   13 ar   
    34   38   13 1    
    35   30   14 ar   
    36   39   14 1    
    37   31   15 ar   
    38   40   15 1    
    39   17   16 1    
    40   41   16 1    
    41   42   16 1    
    42   18   17 1    
    43   43   17 1    
    44   44   17 1    
    45   19   18 1    
    46   45   18 1    
    47   46   18 1    
    48   20   19 1    
    49   47   19 1    
    50   48   19 1    
    51   22   20 1    
    52   49   20 1    
    53   50   20 1    
    54   23   21 1    
    55   27   21 1    
    56   51   21 1    
    57   52   21 1    
    58   53   22 1    
    59   54   22 1    
    60   55   23 1    
    61   56   23 1    
    62   28   24 1    
    63   32   24 1    
    64   29   25 1    
    65   31   25 1    
    66   32   26 1    
    67   31   30 ar   
@<TRIPOS>SUBSTRUCTURE
     1 XCX1        1 GROUP   
@<TRIPOS>SET

