#    Name: 3O8H_1_CAVITY_N1_ALL.mol2
#    Modification time : Tue Mar 11 19:16:32 2014

@<TRIPOS>MOLECULE
3O8H_1_CAVITY_N1_ALL.mol2
   58     0     5     0     0
SMALL
NO_CHARGES


@<TRIPOS>ATOM
      1 CA         34.3715   61.7949   14.1964 C.3       4 GLY6        0.0000 
      2 CA         33.6622   60.5462   13.7632 C.3       4 GLY6        0.0000 
      3 CA         34.1535   60.7535   12.3612 C.3       4 GLY6        0.0000 
      4 N          32.9529   59.2975   13.3301 N.2       2 ALA2        0.0000 
      5 N          33.4442   59.5048   11.9281 N.2       2 ALA2        0.0000 
      6 N          33.9354   59.7120   10.5260 N.2       2 ALA2        0.0000 
      7 CA         35.0543   65.3044   13.3497 C.3       4 GLY6        0.0000 
      8 CZ         35.5456   65.5117   11.9476 C.ar      3 PHE5        0.0000 
      9 OG         33.8538   63.8484   14.3186 O.2       1 SER1        0.0000 
     10 CA         34.3450   64.0557   12.9166 C.3       4 GLY6        0.0000 
     11 OG         33.1445   62.5997   13.8855 O.2       1 SER1        0.0000 
     12 CA         33.6357   62.8070   12.4834 C.3       4 GLY6        0.0000 
     13 OG         31.9440   61.1437   14.8544 O.2       1 SER1        0.0000 
     14 N          32.4352   61.3510   13.4523 N.2       2 ALA2        0.0000 
     15 CA         32.9264   61.5583   12.0503 C.3       4 GLY6        0.0000 
     16 CA         33.4177   61.7656   10.6482 C.3       4 GLY6        0.0000 
     17 N          31.7259   60.1023   13.0192 N.2       2 ALA2        0.0000 
     18 CA         32.2171   60.3096   11.6171 C.3       4 GLY6        0.0000 
     19 CA         32.7084   60.5169   10.2151 C.3       4 GLY6        0.0000 
     20 CA         33.1996   60.7242    8.8131 C.3       4 GLY6        0.0000 
     21 CZ         34.5366   67.3580   13.4719 C.ar      3 PHE5        0.0000 
     22 CZ         35.0279   67.5653   12.0699 C.ar      3 PHE5        0.0000 
     23 CZ         33.8273   66.1093   13.0388 C.ar      3 PHE5        0.0000 
     24 CZ         34.3186   66.3165   11.6367 C.ar      3 PHE5        0.0000 
     25 OG         32.6268   64.6533   14.0077 O.2       1 SER1        0.0000 
     26 CZ         33.1180   64.8605   12.6056 C.ar      3 PHE5        0.0000 
     27 N          33.6093   65.0678   11.2036 N.2       2 ALA2        0.0000 
     28 OG         31.9175   63.4045   13.5745 O.2       1 SER1        0.0000 
     29 DU         32.4087   63.6118   12.1725 H         5 CUB7        0.0000 
     30 N          32.9000   63.8191   10.7705 N.2       2 ALA2        0.0000 
     31 N          31.2082   62.1558   13.1414 N.2       2 ALA2        0.0000 
     32 N          31.6994   62.3631   11.7394 N.2       2 ALA2        0.0000 
     33 CA         32.1907   62.5704   10.3373 C.3       4 GLY6        0.0000 
     34 CA         31.4814   61.3217    9.9042 C.3       4 GLY6        0.0000 
     35 OG         34.0189   69.4115   13.5941 O.2       1 SER1        0.0000 
     36 CZ         33.3096   68.1628   13.1610 C.ar      3 PHE5        0.0000 
     37 CZ         33.8008   68.3701   11.7589 C.ar      3 PHE5        0.0000 
     38 O          34.2921   68.5774   10.3569 O.2       2 ALA2        0.0000 
     39 CZ         32.6003   66.9141   12.7279 C.ar      3 PHE5        0.0000 
     40 CA         33.0915   67.1214   11.3258 C.3       4 GLY6        0.0000 
     41 CA         31.8910   65.6654   12.2947 C.3       4 GLY6        0.0000 
     42 CA         32.3822   65.8727   10.8927 C.3       4 GLY6        0.0000 
     43 O          30.6905   64.2094   13.2636 O.2       2 ALA2        0.0000 
     44 CA         31.1817   64.4167   11.8616 C.3       4 GLY6        0.0000 
     45 CZ         33.9924   71.6723   12.3143 C.ar      3 PHE5        0.0000 
     46 OG         32.7919   70.2163   13.2832 O.2       1 SER1        0.0000 
     47 OG         33.2831   70.4236   11.8812 O.2       1 SER1        0.0000 
     48 CA         33.7743   70.6309   10.4791 C.3       4 GLY6        0.0000 
     49 CA         32.0826   68.9676   12.8501 C.3       4 GLY6        0.0000 
     50 CA         32.5738   69.1749   11.4480 C.3       4 GLY6        0.0000 
     51 CA         31.8645   67.9262   11.0149 C.3       4 GLY6        0.0000 
     52 OG         32.2742   72.2699   13.4054 O.2       1 SER1        0.0000 
     53 N          32.7654   72.4772   12.0034 N.2       2 ALA2        0.0000 
     54 CZ         33.2566   72.6845   10.6013 C.ar      3 PHE5        0.0000 
     55 CA         31.5649   71.0212   12.9723 C.3       4 GLY6        0.0000 
     56 CZ         32.0561   71.2285   11.5702 C.ar      3 PHE5        0.0000 
     57 CZ         32.5473   71.4357   10.1682 C.ar      3 PHE5        0.0000 
     58 CZ         31.3468   69.9797   11.1371 C.ar      3 PHE5        0.0000 
@<TRIPOS>BOND
@<TRIPOS>SUBSTRUCTURE
     1 SER1        9 GROUP   
     2 ALA2        4 GROUP   
     3 PHE5        8 GROUP   
     4 GLY6        1 GROUP   
     5 CUB7       29 GROUP   
@<TRIPOS>SET

