#    Name: 3o8h_O8H_1_INTS_M
#    Modification time : Tue Mar 25 03:22:29 2014

@<TRIPOS>MOLECULE
3o8h_O8H_1_INTS_M
   77     0     6     0     0
SMALL
NO_CHARGES


@<TRIPOS>ATOM
      1 CA         29.0970   82.8705    5.7820 C.3       2 GLC5        0.0000 
      2 CA         28.0540   82.1680    7.4520 C.3       6 GLL5        0.0000 
      3 CA         30.1400   83.5730    4.1120 C.3       4 GLP5        0.0000 
      4 CA         26.6465   84.9210    7.4365 C.3       2 GLC5        0.0000 
      5 CA         27.2350   82.9970    8.2180 C.3       6 GLL5        0.0000 
      6 CA         26.0580   86.8450    6.6550 C.3       4 GLP5        0.0000 
      7 CA         22.8205   82.7805    9.4670 C.3       2 GLC5        0.0000 
      8 CA         24.6180   83.8490    9.6750 C.3       6 GLL5        0.0000 
      9 CA         21.0230   81.7120    9.2590 C.3       4 GLP5        0.0000 
     10 CA         23.0185   84.9825    8.8095 C.3       2 GLC5        0.0000 
     11 CA         21.4190   86.1160    7.9440 C.3       4 GLP5        0.0000 
     12 CA         24.8355   85.5295    8.7120 C.3       2 GLC5        0.0000 
     13 CA         25.0530   87.2100    7.7490 C.3       4 GLP5        0.0000 
     14 CA         25.5095   85.3810   10.6135 C.3       2 GLC5        0.0000 
     15 CA         26.4010   86.9130   11.5520 C.3       4 GLP5        0.0000 
     16 CA         24.9285   82.4770   10.8330 C.3       2 GLC5        0.0000 
     17 CA         25.2390   81.1050   11.9910 C.3       4 GLP5        0.0000 
     18 CA         25.7590   78.9690    5.9510 C.3       2 GLC5        0.0000 
     19 CA         26.2030   80.6000    7.2680 C.3       6 GLL5        0.0000 
     20 CA         25.3150   77.3380    4.6340 C.3       4 GLP5        0.0000 
     21 CA         27.3215   77.3630    7.4435 C.3       2 GLC5        0.0000 
     22 CA         28.9240   78.2280    7.9430 C.3       6 GLL5        0.0000 
     23 CA         25.7190   76.4980    6.9440 C.3       4 GLP5        0.0000 
     24 CA         27.8645   79.0665    9.2355 C.3       2 GLC5        0.0000 
     25 CA         26.8050   79.9050   10.5280 C.3       4 GLP5        0.0000 
     26 CA         30.0775   74.2655    9.9380 C.3       2 GLC5        0.0000 
     27 CA         31.2630   75.2630   11.1590 C.3       6 GLL5        0.0000 
     28 CA         28.8920   73.2680    8.7170 C.3       4 GLP5        0.0000 
     29 CA         29.7230   75.7055   12.2995 C.3       2 GLC5        0.0000 
     30 CA         28.1830   76.1480   13.4400 C.3       4 GLP5        0.0000 
     31 N          33.6945   74.5500    8.5720 N.am      1 SEC2        0.0000 
     32 N          32.3400   74.4860    9.1550 N.am      5 SEL2        0.0000 
     33 N          35.0490   74.6140    7.9890 N.am      3 SEP2        0.0000 
     34 CA         31.4165   72.1415    9.6880 C.3       2 GLC5        0.0000 
     35 CA         33.2680   72.1130   10.1070 C.3       6 GLL5        0.0000 
     36 CA         29.5650   72.1700    9.2690 C.3       4 GLP5        0.0000 
     37 CA         32.6165   68.8295    9.6250 C.3       2 GLC5        0.0000 
     38 CA         33.2430   70.6690   10.6330 C.3       6 GLL5        0.0000 
     39 CA         31.9900   66.9900    8.6170 C.3       4 GLP5        0.0000 
     40 CA         31.2610   71.2155   10.6115 C.3       2 GLC5        0.0000 
     41 CA         29.2790   71.7620   10.5900 C.3       4 GLP5        0.0000 
     42 CA         34.2920   72.7700   12.0405 C.3       2 GLC5        0.0000 
     43 CA         32.1400   72.7990   12.3710 C.3       6 GLL5        0.0000 
     44 CA         36.4440   72.7410   11.7100 C.3       4 GLP5        0.0000 
     45 CA         30.4875   70.4795   13.4130 C.3       2 GLC5        0.0000 
     46 CA         32.2430   71.3060   12.7750 C.3       6 GLL5        0.0000 
     47 CA         28.7320   69.6530   14.0510 C.3       4 GLP5        0.0000 
     48 CA         35.3230   65.6010    9.7090 C.3       2 GLC5        0.0000 
     49 CA         33.6620   65.1600   10.9830 C.3       6 GLL5        0.0000 
     50 CA         36.9840   66.0420    8.4350 C.3       4 GLP5        0.0000 
     51 CA         31.5120   64.1145   10.0300 C.3       2 GLC5        0.0000 
     52 CA         33.5020   63.8210   10.8530 C.3       6 GLL5        0.0000 
     53 CA         29.5220   64.4080    9.2070 C.3       4 GLP5        0.0000 
     54 CA         34.0505   64.8490   14.9915 C.3       2 GLC5        0.0000 
     55 CA         33.0030   64.2680   13.1630 C.3       6 GLL5        0.0000 
     56 CA         35.0980   65.4300   16.8200 C.3       4 GLP5        0.0000 
     57 CA         29.4958   82.6377    8.8175 C.3       2 GLC5        0.0000 
     58 CA         31.3470   82.6930    9.8000 C.3       4 GLP5        0.0000 
     59 CA         30.9578   79.3833    8.4325 C.3       2 GLC5        0.0000 
     60 CA         32.4840   80.8400    8.4350 C.3       4 GLP5        0.0000 
     61 CA         30.4287   77.1917    6.8410 C.3       2 GLC5        0.0000 
     62 CA         29.9390   77.6250    8.9170 C.3       6 GLL5        0.0000 
     63 CA         31.4260   76.4570    5.2520 C.3       4 GLP5        0.0000 
     64 CA         29.4967   75.3560    8.2643 C.3       2 GLC5        0.0000 
     65 CA         29.1100   73.6590    7.2920 C.3       4 GLP5        0.0000 
     66 CA         34.2918   71.1205    8.8970 C.3       2 GLC5        0.0000 
     67 CA         35.3280   70.8500    7.4240 C.3       4 GLP5        0.0000 
     68 CA         30.7353   71.9073   11.5815 C.3       2 GLC5        0.0000 
     69 CA         31.2052   73.1407   13.9340 C.3       2 GLC5        0.0000 
     70 CA         30.2190   74.2290   15.2950 C.3       4 GLP5        0.0000 
     71 CA         34.8951   71.8713   11.4817 C.3       2 GLC5        0.0000 
     72 CA         33.4370   70.6120   12.1370 C.3       6 GLL5        0.0000 
     73 CA         32.7588   65.8009    9.9196 C.3       2 GLC5        0.0000 
     74 CA         25.7902   81.7222    5.9486 C.3       2 GLC5        0.0000 
     75 CA         25.2620   81.8870    4.1440 C.3       4 GLP5        0.0000 
     76 CA         34.8781   63.2662   11.3931 C.3       2 GLC5        0.0000 
     77 CA         36.4290   62.4400   11.0510 C.3       4 GLP5        0.0000 
@<TRIPOS>BOND
@<TRIPOS>SUBSTRUCTURE
     1 SEC2       31 GROUP        1 X    SEC  0     ROOT SEC X 2
     2 GLC5        1 GROUP        1 X    GLC  0     **** GLC X 6
     3 SEP2       33 GROUP        1 Y    SEP  0     ROOT SEP Y 9
     4 GLP5        3 GROUP        1 Y    GLP  0     **** GLP Y 13
     5 SEL2       32 GROUP        1 Z    SEL  0     ROOT SEL Z 16
     6 GLL5        2 GROUP        1 Z    GLL  0     **** GLL Z 20
@<TRIPOS>SET

