#    Name: 3o8h_O8H_1_ligand
#    Modification time : Tue Mar 25 03:22:29 2014

@<TRIPOS>MOLECULE
3o8h_O8H_1_ligand
   58    62     1     0     0
SMALL
NO_CHARGES


@<TRIPOS>ATOM
      1 C07        28.0540   82.1680    7.4520 C.ar      1 O8H217      0.0000 
      2 C05        27.2350   82.9970    8.2180 C.ar      1 O8H217      0.0000 
      3 C04        25.9040   82.6300    8.5020 C.ar      1 O8H217      0.0000 
      4 I01        24.6180   83.8490    9.6750 I         1 O8H217      0.0000 
      5 C02        25.3820   81.4300    8.0250 C.ar      1 O8H217      0.0000 
      6 C10        26.2030   80.6000    7.2680 C.ar      1 O8H217      0.0000 
      7 C09        27.5150   80.9710    6.9840 C.ar      1 O8H217      0.0000 
      8 S12        28.4690   79.9030    6.0280 S.o2      1 O8H217      0.0000 
      9 O13        27.6110   78.9090    5.3390 O.2       1 O8H217      0.0000 
     10 O16        29.1270   80.7600    4.9980 O.2       1 O8H217      0.0000 
     11 N14        29.5920   79.1080    6.9720 N.pl3     1 O8H217      0.0000 
     12 C17        28.9240   78.2280    7.9430 C.3       1 O8H217      0.0000 
     13 C20        29.9390   77.6250    8.9170 C.2       1 O8H217      0.0000 
     14 C24        29.8280   76.4810    9.5560 C.2       1 O8H217      0.0000 
     15 N21        31.0940   78.1370    9.3240 N.2       1 O8H217      0.0000 
     16 N22        31.6430   77.3740   10.1170 N.2       1 O8H217      0.0000 
     17 N23        30.9270   76.3990   10.2960 N.pl3     1 O8H217      0.0000 
     18 C26        31.2630   75.2630   11.1590 C.3       1 O8H217      0.0000 
     19 C29        32.0750   74.2450   10.3470 C.2       1 O8H217      0.0000 
     20 O31        32.3400   74.4860    9.1550 O.2       1 O8H217      0.0000 
     21 N30        32.4690   73.0740   10.9200 N.am      1 O8H217      0.0000 
     22 C43        33.2680   72.1130   10.1070 C.3       1 O8H217      0.0000 
     23 C40        33.2430   70.6690   10.6330 C.3       1 O8H217      0.0000 
     24 C32        32.1400   72.7990   12.3710 C.3       1 O8H217      0.0000 
     25 C35        32.2430   71.3060   12.7750 C.3       1 O8H217      0.0000 
     26 C38        33.4370   70.6120   12.1370 C.3       1 O8H217      0.0000 
     27 C46        33.4820   69.1730   12.6070 C.2       1 O8H217      0.0000 
     28 N50        33.4450   68.0780   11.8410 N.2       1 O8H217      0.0000 
     29 O47        33.5820   68.8120   13.9170 O.3       1 O8H217      0.0000 
     30 N48        33.5880   67.3910   13.9060 N.2       1 O8H217      0.0000 
     31 C49        33.5000   66.9830   12.6320 C.2       1 O8H217      0.0000 
     32 C51        33.4440   65.6450   12.2000 C.2       1 O8H217      0.0000 
     33 C52        33.6620   65.1600   10.9830 C.2       1 O8H217      0.0000 
     34 C54        33.5020   63.8210   10.8530 C.2       1 O8H217      0.0000 
     35 C56        33.1420   63.1210   11.9420 C.2       1 O8H217      0.0000 
     36 S58        33.0030   64.2680   13.1630 S.3       1 O8H217      0.0000 
     37 H          29.0098   82.4278    7.2427 H         1 O8H217      0.0000 
     38 H          27.6001   83.8876    8.5829 H         1 O8H217      0.0000 
     39 H          24.4195   81.1662    8.2264 H         1 O8H217      0.0000 
     40 H          25.8376   79.7027    6.9141 H         1 O8H217      0.0000 
     41 H          30.4670   79.2664    6.8264 H         1 O8H217      0.0000 
     42 H          28.4097   77.4079    7.4315 H         1 O8H217      0.0000 
     43 H          28.1811   78.7854    8.5226 H         1 O8H217      0.0000 
     44 H          29.1182   75.8454    9.5046 H         1 O8H217      0.0000 
     45 H          30.3651   74.7701   11.5236 H         1 O8H217      0.0000 
     46 H          31.8648   75.5809   12.0069 H         1 O8H217      0.0000 
     47 H          34.3231   72.4439   10.0623 H         1 O8H217      0.0000 
     48 H          32.8991   72.1048    9.0637 H         1 O8H217      0.0000 
     49 H          34.0367   70.1012   10.1400 H         1 O8H217      0.0000 
     50 H          32.2834   70.2155   10.3705 H         1 O8H217      0.0000 
     51 H          31.1154   73.1437   12.5896 H         1 O8H217      0.0000 
     52 H          32.8184   73.3777   13.0201 H         1 O8H217      0.0000 
     53 H          31.3205   70.8010   12.4731 H         1 O8H217      0.0000 
     54 H          32.3231   71.2467   13.8646 H         1 O8H217      0.0000 
     55 H          34.3245   71.1185   12.4059 H         1 O8H217      0.0000 
     56 H          33.9303   65.7409   10.1961 H         1 O8H217      0.0000 
     57 H          33.6527   63.3595    9.9466 H         1 O8H217      0.0000 
     58 H          32.9711   62.2766   12.1697 H         1 O8H217      0.0000 
@<TRIPOS>BOND
     1    2    1 ar   
     2    7    1 ar   
     3   37    1 1    
     4    3    2 ar   
     5   38    2 1    
     6    4    3 1    
     7    5    3 ar   
     8    6    5 ar   
     9   39    5 1    
    10    7    6 ar   
    11   40    6 1    
    12    8    7 1    
    13    9    8 2    
    14   10    8 2    
    15   11    8 1    
    16   12   11 1    
    17   41   11 1    
    18   13   12 1    
    19   42   12 1    
    20   43   12 1    
    21   14   13 2    
    22   15   13 1    
    23   17   14 1    
    24   44   14 1    
    25   16   15 2    
    26   17   16 1    
    27   18   17 1    
    28   19   18 1    
    29   45   18 1    
    30   46   18 1    
    31   20   19 2    
    32   21   19 am   
    33   22   21 1    
    34   24   21 1    
    35   23   22 1    
    36   47   22 1    
    37   48   22 1    
    38   26   23 1    
    39   49   23 1    
    40   50   23 1    
    41   25   24 1    
    42   51   24 1    
    43   52   24 1    
    44   26   25 1    
    45   53   25 1    
    46   54   25 1    
    47   27   26 1    
    48   55   26 1    
    49   28   27 2    
    50   29   27 1    
    51   31   28 1    
    52   30   29 1    
    53   31   30 2    
    54   32   31 1    
    55   33   32 2    
    56   36   32 1    
    57   34   33 1    
    58   56   33 1    
    59   35   34 2    
    60   57   34 1    
    61   36   35 1    
    62   58   35 1    
@<TRIPOS>SUBSTRUCTURE
     1 O8H217      1 GROUP   
@<TRIPOS>SET

