#    Name: 1uay_ADN_2_INTS_M
#    Modification time : Tue Mar 25 06:26:43 2014

@<TRIPOS>MOLECULE
1uay_ADN_2_INTS_M
   54     0     9     0     0
SMALL
NO_CHARGES


@<TRIPOS>ATOM
      1 N          20.9545   20.2175   43.8240 N.am      2 SEC2        0.0000 
      2 N          19.9300   21.1820   42.9820 N.am      8 SEL2        0.0000 
      3 N          21.9790   19.2530   44.6660 N.am      5 SEP2        0.0000 
      4 O          18.9515   20.9600   41.9025 O.2       1 ALC1        0.0000 
      5 O          19.9300   21.1820   42.9820 O.2       7 ALL1        0.0000 
      6 O          17.9730   20.7380   40.8230 O.2       4 ALP1        0.0000 
      7 CA         17.3585   19.8980   44.1115 C.3       3 GLC5        0.0000 
      8 CA         18.0860   21.5150   44.4400 C.3       9 GLL5        0.0000 
      9 CA         16.6310   18.2810   43.7830 C.3       6 GLP5        0.0000 
     10 CA         19.1700   19.5845   44.2660 C.3       3 GLC5        0.0000 
     11 CA         20.2540   17.6540   44.0920 C.3       6 GLP5        0.0000 
     12 N          20.4545   19.9905   45.0050 N.am      2 SEC2        0.0000 
     13 N          18.9300   20.7280   45.3440 N.am      8 SEL2        0.0000 
     14 N          15.9315   23.5065   44.1080 N.am      2 SEC2        0.0000 
     15 N          16.0720   22.5490   45.1340 N.am      8 SEL2        0.0000 
     16 N          15.7910   24.4640   43.0820 N.am      5 SEP2        0.0000 
     17 O          15.5020   21.3085   45.3940 O.2       1 ALC1        0.0000 
     18 O          16.0720   22.5490   45.1340 O.2       7 ALL1        0.0000 
     19 O          14.9320   20.0680   45.6540 O.2       4 ALP1        0.0000 
     20 O          15.8185   21.4895   47.8000 O.2       1 ALC1        0.0000 
     21 O          16.8210   22.3970   47.8170 O.2       7 ALL1        0.0000 
     22 O          14.8160   20.5820   47.7830 O.2       4 ALP1        0.0000 
     23 CA         17.4620   19.5090   45.1935 C.3       3 GLC5        0.0000 
     24 CA         18.2930   20.7370   46.6040 C.3       9 GLL5        0.0000 
     25 CA         19.0555   18.7680   45.9415 C.3       3 GLC5        0.0000 
     26 CA         19.8180   16.7990   45.2790 C.3       6 GLP5        0.0000 
     27 CA         19.2735   16.2560   51.2320 C.3       3 GLC5        0.0000 
     28 CA         20.2360   17.6730   49.9550 C.3       9 GLL5        0.0000 
     29 CA         18.3110   14.8390   52.5090 C.3       6 GLP5        0.0000 
     30 CA         20.8845   16.0530   49.2480 C.3       3 GLC5        0.0000 
     31 CA         21.5330   14.4330   48.5410 C.3       6 GLP5        0.0000 
     32 O          21.1840   16.3495   51.7375 O.2       1 ALC1        0.0000 
     33 O          21.2440   17.4260   50.7950 O.2       7 ALL1        0.0000 
     34 O          21.1240   15.2730   52.6800 O.2       4 ALP1        0.0000 
     35 N          19.3340   15.3170   50.2185 N.am      2 SEC2        0.0000 
     36 N          19.1940   16.7510   49.8510 N.am      8 SEL2        0.0000 
     37 N          19.4740   13.8830   50.5860 N.am      5 SEP2        0.0000 
     38 CA         16.2745   17.2815   48.5155 C.3       3 GLC5        0.0000 
     39 CA         18.1390   16.9750   48.9980 C.3       9 GLL5        0.0000 
     40 CA         14.4100   17.5880   48.0330 C.3       6 GLP5        0.0000 
     41 CA         17.8520   18.5260   50.2275 C.3       3 GLC5        0.0000 
     42 CA         17.5650   20.0770   51.4570 C.3       6 GLP5        0.0000 
     43 CA         18.2250   15.9070   50.7535 C.3       3 GLC5        0.0000 
     44 CA         18.7465   15.3410   48.2760 C.3       3 GLC5        0.0000 
     45 CA         19.3540   13.7070   47.5540 C.3       6 GLP5        0.0000 
     46 CA         18.9785   16.8870   47.1385 C.3       3 GLC5        0.0000 
     47 N          16.5495   18.5145   49.0430 N.am      2 SEC2        0.0000 
     48 N          17.9790   18.0630   48.1810 N.am      8 SEL2        0.0000 
     49 N          15.1200   18.9660   49.9050 N.am      5 SEP2        0.0000 
     50 CA         19.7097   17.8607   46.9988 C.3       3 GLC5        0.0000 
     51 CA         20.1740   18.8740   49.1350 C.3       9 GLL5        0.0000 
     52 CA         22.1290   18.1492   48.9745 C.3       3 GLC5        0.0000 
     53 CA         24.0530   18.0250   48.4040 C.3       6 GLP5        0.0000 
     54 CA         18.5910   19.3496   50.1903 C.3       3 GLC5        0.0000 
@<TRIPOS>BOND
@<TRIPOS>SUBSTRUCTURE
     1 ALC1        4 GROUP        1 X    ALC  0     ROOT ALC X 1
     2 SEC2        1 GROUP        1 X    SEC  0     **** SEC X 2
     3 GLC5        7 GROUP        1 X    GLC  0     **** GLC X 6
     4 ALP1        6 GROUP        1 Y    ALP  0     ROOT ALP Y 8
     5 SEP2        3 GROUP        1 Y    SEP  0     **** SEP Y 9
     6 GLP5        9 GROUP        1 Y    GLP  0     **** GLP Y 13
     7 ALL1        5 GROUP        1 Z    ALL  0     ROOT ALL Z 15
     8 SEL2        2 GROUP        1 Z    SEL  0     **** SEL Z 16
     9 GLL5        8 GROUP        1 Z    GLL  0     **** GLL Z 20
@<TRIPOS>SET

