#    Name: 1uay_ADN_2_ligand
#    Modification time : Tue Mar 25 06:26:44 2014

@<TRIPOS>MOLECULE
1uay_ADN_2_ligand
   32    34     1     0     0
SMALL
NO_CHARGES


@<TRIPOS>ATOM
      1 O5'        19.9300   21.1820   42.9820 O.3       1 ADN1002     0.0000 
      2 C5'        19.2240   22.2230   43.6640 C.3       1 ADN1002     0.0000 
      3 C4'        18.0860   21.5150   44.4400 C.3       1 ADN1002     0.0000 
      4 O4'        18.9300   20.7280   45.3440 O.3       1 ADN1002     0.0000 
      5 C3'        17.4990   22.5900   45.3800 C.3       1 ADN1002     0.0000 
      6 O3'        16.0720   22.5490   45.1340 O.3       1 ADN1002     0.0000 
      7 C2'        17.8300   22.1750   46.8320 C.3       1 ADN1002     0.0000 
      8 O2'        16.8210   22.3970   47.8170 O.3       1 ADN1002     0.0000 
      9 C1'        18.2930   20.7370   46.6040 C.3       1 ADN1002     0.0000 
     10 N9         19.1740   20.1530   47.6240 N.pl3     1 ADN1002     0.0000 
     11 C8         20.3970   20.6980   48.0900 C.2       1 ADN1002     0.0000 
     12 N7         21.0120   19.9800   48.9810 N.2       1 ADN1002     0.0000 
     13 C5         20.1740   18.8740   49.1350 C.ar      1 ADN1002     0.0000 
     14 C6         20.2360   17.6730   49.9550 C.ar      1 ADN1002     0.0000 
     15 N6         21.2440   17.4260   50.7950 N.pl3     1 ADN1002     0.0000 
     16 N1         19.1940   16.7510   49.8510 N.ar      1 ADN1002     0.0000 
     17 C2         18.1390   16.9750   48.9980 C.ar      1 ADN1002     0.0000 
     18 N3         17.9790   18.0630   48.1810 N.ar      1 ADN1002     0.0000 
     19 C4         19.0290   18.9710   48.3020 C.ar      1 ADN1002     0.0000 
     20 H          18.7689   22.9246   42.9852 H         1 ADN1002     0.0000 
     21 H          19.8404   22.7351   44.3837 H         1 ADN1002     0.0000 
     22 H          17.4737   21.0437   43.9010 H         1 ADN1002     0.0000 
     23 H          17.9290   23.5091   45.1522 H         1 ADN1002     0.0000 
     24 H          18.7725   22.7367   47.0607 H         1 ADN1002     0.0000 
     25 H          17.3711   20.1233   46.5256 H         1 ADN1002     0.0000 
     26 H          20.7136   21.5789   47.7209 H         1 ADN1002     0.0000 
     27 H          21.7273   18.2264   51.1497 H         1 ADN1002     0.0000 
     28 H          21.4251   16.4628   50.9939 H         1 ADN1002     0.0000 
     29 H          17.3676   16.2240   48.9711 H         1 ADN1002     0.0000 
     30 H          19.6850   21.2913   42.0187 H         1 ADN1002     0.0000 
     31 H          15.7909   21.6255   45.3949 H         1 ADN1002     0.0000 
     32 H          16.1561   21.6635   47.6761 H         1 ADN1002     0.0000 
@<TRIPOS>BOND
     1    2    1 1    
     2   30    1 1    
     3    3    2 1    
     4   20    2 1    
     5   21    2 1    
     6    4    3 1    
     7    5    3 1    
     8   22    3 1    
     9    9    4 1    
    10    6    5 1    
    11    7    5 1    
    12   23    5 1    
    13   31    6 1    
    14    8    7 1    
    15    9    7 1    
    16   24    7 1    
    17   32    8 1    
    18   10    9 1    
    19   25    9 1    
    20   11   10 1    
    21   19   10 1    
    22   12   11 2    
    23   26   11 1    
    24   13   12 1    
    25   14   13 ar   
    26   19   13 ar   
    27   15   14 1    
    28   16   14 ar   
    29   27   15 1    
    30   28   15 1    
    31   17   16 ar   
    32   18   17 ar   
    33   29   17 1    
    34   19   18 ar   
@<TRIPOS>SUBSTRUCTURE
     1 ADN1002     1 GROUP   
@<TRIPOS>SET

