#    Name: 4a9i_P9I_2_INTS_M
#    Modification time : Tue Mar 25 05:18:33 2014

@<TRIPOS>MOLECULE
4a9i_P9I_2_INTS_M
   35     0     6     0     0
SMALL
NO_CHARGES


@<TRIPOS>ATOM
      1 N          38.7885    6.7340    0.0130 N.am      1 SEC2        0.0000 
      2 N          39.6740    7.3350    1.2110 N.am      5 SEL2        0.0000 
      3 N          37.9030    6.1330   -1.1850 N.am      3 SEP2        0.0000 
      4 CA         38.3545    6.1905    4.5265 C.3       2 GLC5        0.0000 
      5 CA         39.6350    7.2150    3.5710 C.3       6 GLL5        0.0000 
      6 CA         37.0740    5.1660    5.4820 C.3       4 GLP5        0.0000 
      7 CA         44.2245    4.1205    5.9455 C.3       2 GLC5        0.0000 
      8 CA         46.0760    4.6940    5.0670 C.3       6 GLL5        0.0000 
      9 CA         42.3730    3.5470    6.8240 C.3       4 GLP5        0.0000 
     10 CA         41.0493    8.6110    3.2890 C.3       2 GLC5        0.0000 
     11 CA         40.2520    6.9810    2.2210 C.3       6 GLL5        0.0000 
     12 CA         42.1550   10.1240    3.6820 C.3       4 GLP5        0.0000 
     13 CA         39.9322    4.9875    2.7425 C.3       2 GLC5        0.0000 
     14 CA         39.9210    2.8770    2.5890 C.3       4 GLP5        0.0000 
     15 CA         42.0805    8.1258    3.1513 C.3       2 GLC5        0.0000 
     16 CA         41.5430    6.3080    2.1370 C.3       6 GLL5        0.0000 
     17 CA         43.2553    7.2145   -1.3465 C.3       2 GLC5        0.0000 
     18 CA         41.5360    5.9940   -0.4050 C.3       6 GLL5        0.0000 
     19 CA         44.6100    8.6930   -1.7570 C.3       4 GLP5        0.0000 
     20 CA         44.1827    6.7547   -1.1755 C.3       2 GLC5        0.0000 
     21 CA         43.4960    4.8700   -1.2230 C.3       6 GLL5        0.0000 
     22 CA         45.0233    6.2545    1.1167 C.3       2 GLC5        0.0000 
     23 CA         44.0150    4.7630    0.0350 C.3       6 GLL5        0.0000 
     24 CA         46.3970    7.4910    1.6520 C.3       4 GLP5        0.0000 
     25 CA         42.8050    4.1193    4.2568 C.3       2 GLC5        0.0000 
     26 CA         44.7740    4.7660    3.1710 C.3       6 GLL5        0.0000 
     27 CA         41.7180    3.0430    5.5290 C.3       4 GLP5        0.0000 
     28 CA         45.1445    6.3432    2.3182 C.3       2 GLC5        0.0000 
     29 CA         42.4690    5.9470    3.1040 C.3       6 GLL5        0.0000 
     30 CA         47.4798    5.1225    3.1650 C.3       2 GLC5        0.0000 
     31 CA         48.4190    5.9670    1.5620 C.3       4 GLP5        0.0000 
     32 CA         47.3257    4.8387    2.1950 C.3       2 GLC5        0.0000 
     33 CA         46.7940    3.4730    3.1630 C.3       6 GLL5        0.0000 
     34 CA         41.3164    4.2924    2.4021 C.3       2 GLC5        0.0000 
     35 CA         43.2840    5.2730    1.1280 C.3       6 GLL5        0.0000 
@<TRIPOS>BOND
@<TRIPOS>SUBSTRUCTURE
     1 SEC2        1 GROUP        1 X    SEC  0     ROOT SEC X 2
     2 GLC5        4 GROUP        1 X    GLC  0     **** GLC X 6
     3 SEP2        3 GROUP        1 Y    SEP  0     ROOT SEP Y 9
     4 GLP5        6 GROUP        1 Y    GLP  0     **** GLP Y 13
     5 SEL2        2 GROUP        1 Z    SEL  0     ROOT SEL Z 16
     6 GLL5        5 GROUP        1 Z    GLL  0     **** GLL Z 20
@<TRIPOS>SET

