#    Name: 4a9i_P9I_2_ligand
#    Modification time : Tue Mar 25 05:18:33 2014

@<TRIPOS>MOLECULE
4a9i_P9I_2_ligand
   31    33     1     0     0
SMALL
NO_CHARGES


@<TRIPOS>ATOM
      1 O          39.6740    7.3350    1.2110 O.3       1 P9I1188     0.0000 
      2 C2         40.2520    6.9810    2.2210 C.2       1 P9I1188     0.0000 
      3 C1         39.6350    7.2150    3.5710 C.3       1 P9I1188     0.0000 
      4 C3         41.5430    6.3080    2.1370 C.2       1 P9I1188     0.0000 
      5 N2         42.0520    5.8880    0.8810 N.pl3     1 P9I1188     0.0000 
      6 C15        41.5360    5.9940   -0.4050 C.ar      1 P9I1188     0.0000 
      7 C14        42.2650    5.4780   -1.4670 C.ar      1 P9I1188     0.0000 
      8 C13        43.4960    4.8700   -1.2230 C.ar      1 P9I1188     0.0000 
      9 C12        44.0150    4.7630    0.0350 C.ar      1 P9I1188     0.0000 
     10 C11        43.2840    5.2730    1.1280 C.ar      1 P9I1188     0.0000 
     11 C5         43.5510    5.3030    2.4920 C.2       1 P9I1188     0.0000 
     12 C4         42.4690    5.9470    3.1040 C.2       1 P9I1188     0.0000 
     13 C6         44.7740    4.7660    3.1710 C.ar      1 P9I1188     0.0000 
     14 N1         44.9760    5.1550    4.4420 N.ar      1 P9I1188     0.0000 
     15 C10        46.0760    4.6940    5.0670 C.ar      1 P9I1188     0.0000 
     16 C9         47.0050    3.8620    4.4690 C.ar      1 P9I1188     0.0000 
     17 C8         46.7940    3.4730    3.1630 C.ar      1 P9I1188     0.0000 
     18 C7         45.6710    3.9480    2.4930 C.ar      1 P9I1188     0.0000 
     19 H          40.6332    6.4453   -0.5652 H         1 P9I1188     0.0000 
     20 H          41.9044    5.5417   -2.4237 H         1 P9I1188     0.0000 
     21 H          44.0291    4.4876   -2.0383 H         1 P9I1188     0.0000 
     22 H          44.9232    4.3209    0.2048 H         1 P9I1188     0.0000 
     23 H          42.3884    6.1087    4.0413 H         1 P9I1188     0.0000 
     24 H          46.2536    4.9764    6.0755 H         1 P9I1188     0.0000 
     25 H          47.8270    3.5444    4.9840 H         1 P9I1188     0.0000 
     26 H          47.4486    2.8461    2.6899 H         1 P9I1188     0.0000 
     27 H          45.5079    3.6987    1.5153 H         1 P9I1188     0.0000 
     28 H          40.2169    6.8741    4.3094 H         1 P9I1188     0.0000 
     29 H          39.4801    8.1875    3.7450 H         1 P9I1188     0.0000 
     30 H          38.7505    6.7569    3.6595 H         1 P9I1188     0.0000 
     31 H          39.5854    8.3273    1.2980 H         1 P9I1188     0.0000 
@<TRIPOS>BOND
     1    2    1 1    
     2   31    1 1    
     3    3    2 1    
     4    4    2 2    
     5   28    3 1    
     6   29    3 1    
     7   30    3 1    
     8    5    4 1    
     9   12    4 1    
    10    6    5 ar   
    11   10    5 ar   
    12    7    6 ar   
    13   19    6 1    
    14    8    7 ar   
    15   20    7 1    
    16    9    8 ar   
    17   21    8 1    
    18   10    9 ar   
    19   22    9 1    
    20   11   10 1    
    21   12   11 2    
    22   13   11 1    
    23   23   12 1    
    24   14   13 ar   
    25   18   13 ar   
    26   15   14 ar   
    27   16   15 ar   
    28   24   15 1    
    29   17   16 ar   
    30   25   16 1    
    31   18   17 ar   
    32   26   17 1    
    33   27   18 1    
@<TRIPOS>SUBSTRUCTURE
     1 P9I1188     1 GROUP   
@<TRIPOS>SET

