#    Name: 1gqy_ACP_2_INTS_M
#    Modification time : Tue Mar 25 03:36:58 2014

@<TRIPOS>MOLECULE
1gqy_ACP_2_INTS_M
   95     0    15     0     0
SMALL
NO_CHARGES


@<TRIPOS>ATOM
      1 NZ         30.0385   43.8775   73.4535 N.4       3 LYC4        0.0000 
      2 NZ         28.7830   43.3090   73.5550 N.4      13 LYL4        0.0000 
      3 NZ         31.2940   44.4460   73.3520 N.4       8 LYP4        0.0000 
      4 N          30.0385   43.8775   73.4535 N.am      2 SEC2        0.0000 
      5 N          28.7830   43.3090   73.5550 N.am     12 SEL2        0.0000 
      6 N          31.2940   44.4460   73.3520 N.am      7 SEP2        0.0000 
      7 NZ         29.5305   44.8565   72.9455 N.4       3 LYC4        0.0000 
      8 NZ         27.7670   45.2670   72.5390 N.4      13 LYL4        0.0000 
      9 Zn         27.6875   46.4325   72.6215 Zn        4 ZIC7        0.0000 
     10 Zn         27.7670   45.2670   72.5390 Zn       14 ZIL7        0.0000 
     11 Zn         27.6080   47.5980   72.7040 Zn        9 ZIP7        0.0000 
     12 N          25.7385   42.3585   74.3250 N.am      2 SEC2        0.0000 
     13 N          26.2390   43.3620   73.5490 N.am     12 SEL2        0.0000 
     14 N          25.2380   41.3550   75.1010 N.am      7 SEP2        0.0000 
     15 Zn         28.1310   47.4275   73.6915 Zn        4 ZIC7        0.0000 
     16 Zn         28.6540   47.2570   74.6790 Zn       14 ZIL7        0.0000 
     17 N          29.2205   48.6000   74.8335 N.am      2 SEC2        0.0000 
     18 N          28.6540   47.2570   74.6790 N.am     12 SEL2        0.0000 
     19 N          29.7870   49.9430   74.9880 N.am      7 SEP2        0.0000 
     20 NZ         30.7745   45.0040   74.3990 N.4       3 LYC4        0.0000 
     21 NZ         30.2550   45.5620   75.4460 N.4      13 LYL4        0.0000 
     22 N          30.9450   46.8370   75.8330 N.am      2 SEC2        0.0000 
     23 N          30.2550   45.5620   75.4460 N.am     12 SEL2        0.0000 
     24 N          31.6350   48.1120   76.2200 N.am      7 SEP2        0.0000 
     25 N          30.7745   45.0040   74.3990 N.am      2 SEC2        0.0000 
     26 CA         25.3785   45.0090   74.9695 C.3       5 GLC5        0.0000 
     27 CA         27.5150   44.9880   75.2800 C.3      15 GLL5        0.0000 
     28 CA         23.2420   45.0300   74.6590 C.3      10 GLP5        0.0000 
     29 N          28.7985   50.2285   77.6120 N.am      2 SEC2        0.0000 
     30 N          28.4470   48.8840   78.0550 N.am     12 SEL2        0.0000 
     31 N          29.1500   51.5730   77.1690 N.am      7 SEP2        0.0000 
     32 N          28.2240   49.9180   78.9395 N.am      2 SEC2        0.0000 
     33 N          28.0010   50.9520   79.8240 N.am      7 SEP2        0.0000 
     34 NZ         25.3490   48.6175   76.9615 N.4       3 LYC4        0.0000 
     35 NZ         26.5600   47.9570   76.8140 N.4      13 LYL4        0.0000 
     36 NZ         23.5990   49.1320   75.9050 N.4       8 LYP4        0.0000 
     37 N          25.3490   48.6175   76.9615 N.am      2 SEC2        0.0000 
     38 N          26.5600   47.9570   76.8140 N.am     12 SEL2        0.0000 
     39 N          24.1380   49.2780   77.1090 N.am      7 SEP2        0.0000 
     40 N          25.4130   48.2135   75.8760 N.am      2 SEC2        0.0000 
     41 N          24.2660   48.4700   74.9380 N.am      7 SEP2        0.0000 
     42 N          30.0060   46.4165   77.6620 N.am      2 SEC2        0.0000 
     43 N          28.7010   46.6390   77.0790 N.am     12 SEL2        0.0000 
     44 N          31.3110   46.1940   78.2450 N.am      7 SEP2        0.0000 
     45 CA         25.3205   47.8975   79.1620 C.3       5 GLC5        0.0000 
     46 CA         26.2760   45.8920   78.8150 C.3      15 GLL5        0.0000 
     47 CA         24.3650   49.9030   79.5090 C.3      10 GLP5        0.0000 
     48 CA         24.7075   45.6285   77.4275 C.3       5 GLC5        0.0000 
     49 CA         23.1390   45.3650   76.0400 C.3      10 GLP5        0.0000 
     50 CA         24.7235   43.8850   80.2830 C.3       5 GLC5        0.0000 
     51 CA         26.1000   45.1960   80.1870 C.3      15 GLL5        0.0000 
     52 CA         23.3470   42.5740   80.3790 C.3      10 GLP5        0.0000 
     53 CA         26.3950   43.2705   80.7590 C.3       5 GLC5        0.0000 
     54 CA         26.6900   41.3450   81.3310 C.3      10 GLP5        0.0000 
     55 CA         25.0855   48.0725   80.4325 C.3       5 GLC5        0.0000 
     56 CA         25.8060   46.2420   81.3560 C.3      15 GLL5        0.0000 
     57 O          23.4550   45.8005   82.3170 O.2       1 ALC1        0.0000 
     58 O          24.4280   46.6420   81.5400 O.2      11 ALL1        0.0000 
     59 O          22.4820   44.9590   83.0940 O.2       6 ALP1        0.0000 
     60 N          24.6805   44.4510   84.0040 N.am      2 SEC2        0.0000 
     61 N          25.3850   44.3520   82.7370 N.am     12 SEL2        0.0000 
     62 N          23.9760   44.5500   85.2710 N.am      7 SEP2        0.0000 
     63 O          23.9335   44.6555   82.9155 O.2       1 ALC1        0.0000 
     64 O          25.3850   44.3520   82.7370 O.2      11 ALL1        0.0000 
     65 CA         28.1475   44.3625   84.1695 C.3       5 GLC5        0.0000 
     66 CA         27.5560   44.7140   82.0550 C.3      15 GLL5        0.0000 
     67 CA         28.7390   44.0110   86.2840 C.3      10 GLP5        0.0000 
     68 N          31.0400   48.3825   81.9240 N.am      2 SEC2        0.0000 
     69 N          30.4660   46.9920   81.8620 N.am     12 SEL2        0.0000 
     70 N          31.6140   49.7730   81.9860 N.am      7 SEP2        0.0000 
     71 CA         32.0015   45.8505   84.2505 C.3       5 GLC5        0.0000 
     72 CA         32.3630   45.4220   82.3950 C.3      15 GLL5        0.0000 
     73 CA         31.6400   46.2790   86.1060 C.3      10 GLP5        0.0000 
     74 O          33.5900   47.6800   81.9045 O.2       1 ALC1        0.0000 
     75 O          33.4640   46.1970   82.3290 O.2      11 ALL1        0.0000 
     76 O          33.7160   49.1630   81.4800 O.2       6 ALP1        0.0000 
     77 CA         31.7260   43.1995   81.0580 C.3       5 GLC5        0.0000 
     78 CA         31.6650   43.2560   82.7930 C.3      15 GLL5        0.0000 
     79 CA         31.7870   43.1430   79.3230 C.3      10 GLP5        0.0000 
     80 CA         31.6525   44.7675   84.4495 C.3       5 GLC5        0.0000 
     81 CA         31.5030   41.1920   83.2755 C.3       5 GLC5        0.0000 
     82 CA         31.3410   39.1280   83.7580 C.3      10 GLP5        0.0000 
     83 CA         30.9560   42.6855   84.8030 C.3       5 GLC5        0.0000 
     84 CA         30.2470   42.1150   86.8130 C.3      10 GLP5        0.0000 
     85 CA         29.4135   44.4035   84.2940 C.3       5 GLC5        0.0000 
     86 CA         30.0880   44.7960   82.3040 C.3      15 GLL5        0.0000 
     87 CA         28.1275   46.1223   83.8347 C.3       5 GLC5        0.0000 
     88 CA         29.3000   47.1330   85.3540 C.3      10 GLP5        0.0000 
     89 CA         26.8225   43.2283   81.8233 C.3       5 GLC5        0.0000 
     90 CA         26.3540   45.5090   82.5760 C.3      15 GLL5        0.0000 
     91 CA         31.6273   46.5920   80.4737 C.3       5 GLC5        0.0000 
     92 CA         31.5300   47.5850   78.6540 C.3      10 GLP5        0.0000 
     93 CA         29.9435   46.2095   83.8010 C.3       5 GLC5        0.0000 
     94 CA         31.0860   45.7760   82.1920 C.3      15 GLL5        0.0000 
     95 CA         31.3466   44.1702   80.8109 C.3       5 GLC5        0.0000 
@<TRIPOS>BOND
@<TRIPOS>SUBSTRUCTURE
     1 ALC1       57 GROUP        1 X    ALC  0     ROOT ALC X 1
     2 SEC2        4 GROUP        1 X    SEC  0     **** SEC X 2
     3 LYC4        1 GROUP        1 X    LYC  0     **** LYC X 4
     4 ZIC7        9 GROUP        1 X    ZIC  0     **** ZIC X 5
     5 GLC5       26 GROUP        1 X    GLC  0     **** GLC X 6
     6 ALP1       59 GROUP        1 Y    ALP  0     ROOT ALP Y 8
     7 SEP2        6 GROUP        1 Y    SEP  0     **** SEP Y 9
     8 LYP4        3 GROUP        1 Y    LYP  0     **** LYP Y 11
     9 ZIP7       11 GROUP        1 Y    ZIP  0     **** ZIP Y 12
    10 GLP5       28 GROUP        1 Y    GLP  0     **** GLP Y 13
    11 ALL1       58 GROUP        1 Z    ALL  0     ROOT ALL Z 15
    12 SEL2        5 GROUP        1 Z    SEL  0     **** SEL Z 16
    13 LYL4        2 GROUP        1 Z    LYL  0     **** LYL Z 18
    14 ZIL7       10 GROUP        1 Z    ZIL  0     **** ZIL Z 19
    15 GLL5       27 GROUP        1 Z    GLL  0     **** GLL Z 20
@<TRIPOS>SET

