#    Name: 1gqy_ACP_2_ligand
#    Modification time : Tue Mar 25 03:36:58 2014

@<TRIPOS>MOLECULE
1gqy_ACP_2_ligand
   44    46     1     0     0
SMALL
NO_CHARGES


@<TRIPOS>ATOM
      1 PG         27.5830   44.1500   73.5700 P.3       1 ACP1475     0.0000 
      2 O1G        28.7830   43.3090   73.5550 O.co2     1 ACP1475     0.0000 
      3 O2G        27.7670   45.2670   72.5390 O.co2     1 ACP1475     0.0000 
      4 O3G        26.2390   43.3620   73.5490 O.co2     1 ACP1475     0.0000 
      5 PB         28.8880   46.1740   75.5630 P.3       1 ACP1475     0.0000 
      6 O1B        28.6540   47.2570   74.6790 O.co2     1 ACP1475     0.0000 
      7 O2B        30.2550   45.5620   75.4460 O.co2     1 ACP1475     0.0000 
      8 C3B        27.5150   44.9880   75.2800 C.3       1 ACP1475     0.0000 
      9 PA         27.6790   47.6520   77.6780 P.3       1 ACP1475     0.0000 
     10 O1A        28.4470   48.8840   78.0550 O.co2     1 ACP1475     0.0000 
     11 O2A        26.5600   47.9570   76.8140 O.co2     1 ACP1475     0.0000 
     12 O3A        28.7010   46.6390   77.0790 O.3       1 ACP1475     0.0000 
     13 O5'        27.2390   47.0290   79.0100 O.3       1 ACP1475     0.0000 
     14 C5'        26.2760   45.8920   78.8150 C.3       1 ACP1475     0.0000 
     15 C4'        26.1000   45.1960   80.1870 C.3       1 ACP1475     0.0000 
     16 O4'        27.2630   44.5380   80.6170 O.3       1 ACP1475     0.0000 
     17 C3'        25.8060   46.2420   81.3560 C.3       1 ACP1475     0.0000 
     18 O3'        24.4280   46.6420   81.5400 O.3       1 ACP1475     0.0000 
     19 C2'        26.3540   45.5090   82.5760 C.3       1 ACP1475     0.0000 
     20 O2'        25.3850   44.3520   82.7370 O.3       1 ACP1475     0.0000 
     21 C1'        27.5560   44.7140   82.0550 C.3       1 ACP1475     0.0000 
     22 N9         28.8690   45.3680   82.0430 N.pl3     1 ACP1475     0.0000 
     23 C8         29.1460   46.7250   81.7860 C.2       1 ACP1475     0.0000 
     24 N7         30.4660   46.9920   81.8620 N.2       1 ACP1475     0.0000 
     25 C5         31.0860   45.7760   82.1920 C.ar      1 ACP1475     0.0000 
     26 C6         32.3630   45.4220   82.3950 C.ar      1 ACP1475     0.0000 
     27 N6         33.4640   46.1970   82.3290 N.pl3     1 ACP1475     0.0000 
     28 N1         32.6840   44.1510   82.7040 N.ar      1 ACP1475     0.0000 
     29 C2         31.6650   43.2560   82.7930 C.ar      1 ACP1475     0.0000 
     30 N3         30.3500   43.4870   82.6190 N.ar      1 ACP1475     0.0000 
     31 C4         30.0880   44.7960   82.3040 C.ar      1 ACP1475     0.0000 
     32 H          27.6226   44.2188   75.9571 H         1 ACP1475     0.0000 
     33 H          26.6351   45.5241   75.2782 H         1 ACP1475     0.0000 
     34 H          26.6722   45.1784   78.1156 H         1 ACP1475     0.0000 
     35 H          25.3195   46.2598   78.4906 H         1 ACP1475     0.0000 
     36 H          25.2529   44.5418   80.1572 H         1 ACP1475     0.0000 
     37 H          26.4747   47.0762   81.1745 H         1 ACP1475     0.0000 
     38 H          26.5097   46.0165   83.3546 H         1 ACP1475     0.0000 
     39 H          27.5858   43.7573   82.5016 H         1 ACP1475     0.0000 
     40 H          28.4424   47.3715   81.5800 H         1 ACP1475     0.0000 
     41 H          31.9519   42.2283   83.0346 H         1 ACP1475     0.0000 
     42 H          24.0197   45.9162   82.0937 H         1 ACP1475     0.0000 
     43 H          24.4864   44.7792   82.8379 H         1 ACP1475     0.0000 
     44 H          33.1304   47.0969   82.0480 H         1 ACP1475     0.0000 
@<TRIPOS>BOND
     1    2    1 ar   
     2    3    1 ar   
     3    4    1 ar   
     4    8    1 1    
     5    6    5 ar   
     6    7    5 ar   
     7    8    5 1    
     8   12    5 1    
     9   32    8 1    
    10   33    8 1    
    11   10    9 ar   
    12   11    9 ar   
    13   12    9 1    
    14   13    9 1    
    15   14   13 1    
    16   15   14 1    
    17   34   14 1    
    18   35   14 1    
    19   16   15 1    
    20   17   15 1    
    21   36   15 1    
    22   21   16 1    
    23   18   17 1    
    24   19   17 1    
    25   37   17 1    
    26   42   18 1    
    27   20   19 1    
    28   21   19 1    
    29   38   19 1    
    30   43   20 1    
    31   22   21 1    
    32   39   21 1    
    33   23   22 1    
    34   31   22 1    
    35   24   23 2    
    36   40   23 1    
    37   25   24 1    
    38   26   25 ar   
    39   31   25 ar   
    40   27   26 1    
    41   28   26 ar   
    42   44   27 1    
    43   29   28 ar   
    44   30   29 ar   
    45   41   29 1    
    46   31   30 ar   
@<TRIPOS>SUBSTRUCTURE
     1 ACP1475     1 GROUP   
@<TRIPOS>SET

