#    Name: 3rha_FDA_1_INTS_M
#    Modification time : Tue Mar 25 11:25:31 2014

@<TRIPOS>MOLECULE
3rha_FDA_1_INTS_M
  155     0    12     0     0
SMALL
NO_CHARGES


@<TRIPOS>ATOM
      1 NZ         18.5275    2.6745  -33.0985 N.4       3 LYC4        0.0000 
      2 NZ         16.9860    3.1750  -32.5480 N.4      11 LYL4        0.0000 
      3 NZ         19.6450    0.9890  -33.2210 N.4       7 LYP4        0.0000 
      4 N          17.7610    2.0345  -32.5205 N.am      2 SEC2        0.0000 
      5 N          16.9860    3.1750  -32.5480 N.am     10 SEL2        0.0000 
      6 N          18.5360    0.8940  -32.4930 N.am      6 SEP2        0.0000 
      7 N          18.5275    2.6745  -33.0985 N.am      2 SEC2        0.0000 
      8 N          20.0690    2.1740  -33.6490 N.am      6 SEP2        0.0000 
      9 N          16.7640    3.0115  -29.6380 N.am      2 SEC2        0.0000 
     10 N          17.7450    3.8520  -30.1870 N.am     10 SEL2        0.0000 
     11 N          15.7830    2.1710  -29.0890 N.am      6 SEP2        0.0000 
     12 CA         17.2485    6.5195  -34.7555 C.3       4 GLC5        0.0000 
     13 CA         16.3890    6.1520  -32.9000 C.3      12 GLL5        0.0000 
     14 CA         18.1080    6.8870  -36.6110 C.3       8 GLP5        0.0000 
     15 CA         16.8965    5.0920  -34.6030 C.3       4 GLC5        0.0000 
     16 CA         17.4040    4.0320  -36.3060 C.3       8 GLP5        0.0000 
     17 CA         14.9150    8.7835  -33.0570 C.3       4 GLC5        0.0000 
     18 CA         15.0540    6.8870  -32.7520 C.3      12 GLL5        0.0000 
     19 CA         14.7760   10.6800  -33.3620 C.3       8 GLP5        0.0000 
     20 CA         14.1195    5.1430  -30.6250 C.3       4 GLC5        0.0000 
     21 CA         13.8120    6.1020  -32.1350 C.3      12 GLL5        0.0000 
     22 CA         14.4270    4.1840  -29.1150 C.3       8 GLP5        0.0000 
     23 N          12.4620    6.3720  -29.7890 N.am      2 SEC2        0.0000 
     24 N          13.3490    6.5410  -30.8800 N.am     10 SEL2        0.0000 
     25 N          11.5750    6.2030  -28.6980 N.am      6 SEP2        0.0000 
     26 O          12.8340    7.8145  -31.0155 O.2       1 ALC1        0.0000 
     27 O          13.3490    6.5410  -30.8800 O.2       9 ALL1        0.0000 
     28 O          12.3190    9.0880  -31.1510 O.2       5 ALP1        0.0000 
     29 CA         11.4085    4.8875  -34.2005 C.3       4 GLC5        0.0000 
     30 CA         12.8050    6.0380  -33.2980 C.3      12 GLL5        0.0000 
     31 CA         10.0120    3.7370  -35.1030 C.3       8 GLP5        0.0000 
     32 N          11.5390    4.5120  -32.3590 N.am      2 SEC2        0.0000 
     33 N          11.4510    5.8430  -32.9710 N.am     10 SEL2        0.0000 
     34 N          11.6270    3.1810  -31.7470 N.am      6 SEP2        0.0000 
     35 O          10.9985    6.8475  -32.2670 O.2       1 ALC1        0.0000 
     36 O          11.4510    5.8430  -32.9710 O.2       9 ALL1        0.0000 
     37 O          10.5460    7.8520  -31.5630 O.2       5 ALP1        0.0000 
     38 CA         13.9615    8.9950  -33.6735 C.3       4 GLC5        0.0000 
     39 CA         13.1470    7.3100  -33.9850 C.3      12 GLL5        0.0000 
     40 CA         14.5955    7.7990  -35.4915 C.3       4 GLC5        0.0000 
     41 CA         16.0440    8.2880  -36.9980 C.3       8 GLP5        0.0000 
     42 CA         11.2100   11.3570  -38.7815 C.3       4 GLC5        0.0000 
     43 CA         11.4390    9.3920  -38.0620 C.3      12 GLL5        0.0000 
     44 CA         10.9810   13.3220  -39.5010 C.3       8 GLP5        0.0000 
     45 O          10.5095   10.2590  -40.3780 O.2       1 ALC1        0.0000 
     46 O          11.3930    9.2840  -39.5030 O.2       9 ALL1        0.0000 
     47 O           9.6260   11.2340  -41.2530 O.2       5 ALP1        0.0000 
     48 N           9.9400   11.3180  -38.0245 N.am      2 SEC2        0.0000 
     49 N          10.8960   10.4570  -37.4520 N.am     10 SEL2        0.0000 
     50 N           8.9840   12.1790  -38.5970 N.am      6 SEP2        0.0000 
     51 CA         12.6055   11.2060  -36.9475 C.3       4 GLC5        0.0000 
     52 CA         10.9490   10.5980  -36.0920 C.3      12 GLL5        0.0000 
     53 CA         14.2620   11.8140  -37.8030 C.3       8 GLP5        0.0000 
     54 CA         10.6330   11.1150  -34.2200 C.3       4 GLC5        0.0000 
     55 CA         10.3170   11.6320  -32.3480 C.3       8 GLP5        0.0000 
     56 CA          9.7040    9.3440  -35.5790 C.3       4 GLC5        0.0000 
     57 CA          8.4590    8.0900  -35.0660 C.3       8 GLP5        0.0000 
     58 CA          9.1075   10.8245  -36.6955 C.3       4 GLC5        0.0000 
     59 CA          7.2660   11.0510  -37.2990 C.3       8 GLP5        0.0000 
     60 CA         11.0900   12.3510  -37.1515 C.3       4 GLC5        0.0000 
     61 CA         11.2310   14.1040  -38.2110 C.3       8 GLP5        0.0000 
     62 N          10.3630    9.7510  -34.4315 N.am      2 SEC2        0.0000 
     63 N          11.5860    9.6180  -35.3170 N.am     10 SEL2        0.0000 
     64 N           9.1400    9.8840  -33.5460 N.am      6 SEP2        0.0000 
     65 CA         13.4595    9.6120  -34.6555 C.3       4 GLC5        0.0000 
     66 CA         12.1430    8.5440  -35.9490 C.3      12 GLL5        0.0000 
     67 N          24.7460    0.3655  -25.7735 N.am      2 SEC2        0.0000 
     68 N          24.8330   -0.6470  -24.9260 N.am     10 SEL2        0.0000 
     69 N          24.6590    1.3780  -26.6210 N.am      6 SEP2        0.0000 
     70 O          24.5735   -2.3000  -22.8660 O.2       1 ALC1        0.0000 
     71 O          23.7650   -2.6690  -24.1650 O.2       9 ALL1        0.0000 
     72 O          25.3820   -1.9310  -21.5670 O.2       5 ALP1        0.0000 
     73 N          21.6640   -3.6635  -22.8570 N.am      2 SEC2        0.0000 
     74 N          22.7110   -4.6820  -23.3960 N.am     10 SEL2        0.0000 
     75 N          20.6170   -2.6450  -22.3180 N.am      6 SEP2        0.0000 
     76 N          22.8635   -4.0635  -22.1795 N.am      2 SEC2        0.0000 
     77 N          23.0160   -3.4450  -20.9630 N.am      6 SEP2        0.0000 
     78 CA         17.6230   -6.7660  -25.3085 C.3       4 GLC5        0.0000 
     79 CA         18.7750   -5.4820  -26.5830 C.3      12 GLL5        0.0000 
     80 CA         16.4710   -8.0500  -24.0340 C.3       8 GLP5        0.0000 
     81 CA         16.4690   -7.0880  -25.8100 C.3       4 GLC5        0.0000 
     82 CA         16.4670   -6.1260  -27.5860 C.3      12 GLL5        0.0000 
     83 CA         14.4865   -7.0020  -27.1515 C.3       4 GLC5        0.0000 
     84 CA         12.5060   -7.8780  -26.7170 C.3       8 GLP5        0.0000 
     85 CA         15.0970   -5.7655  -28.4665 C.3       4 GLC5        0.0000 
     86 CA         13.7270   -5.4050  -29.3470 C.3       8 GLP5        0.0000 
     87 CA         18.4720   -6.4035  -28.3755 C.3       4 GLC5        0.0000 
     88 CA         20.4770   -6.6810  -29.1650 C.3       8 GLP5        0.0000 
     89 CA         19.0350   -4.6940  -30.3715 C.3       4 GLC5        0.0000 
     90 CA         17.8370   -4.1780  -28.7780 C.3      12 GLL5        0.0000 
     91 CA         20.2330   -5.2100  -31.9650 C.3       8 GLP5        0.0000 
     92 CA         16.8540   -1.6525  -29.3835 C.3       4 GLC5        0.0000 
     93 CA         16.4610   -3.5740  -29.0990 C.3      12 GLL5        0.0000 
     94 CA         17.2470    0.2690  -29.6680 C.3       8 GLP5        0.0000 
     95 CA         14.9640   -3.4810  -28.7600 C.3       4 GLC5        0.0000 
     96 CA         13.4670   -3.3880  -28.4210 C.3       8 GLP5        0.0000 
     97 CA         18.0835   -1.4065  -29.0680 C.3       4 GLC5        0.0000 
     98 CA         18.9200   -3.0820  -28.4680 C.3      12 GLL5        0.0000 
     99 CA         24.2715   -3.0655  -26.6210 C.3       4 GLC5        0.0000 
    100 CA         22.1630   -2.7630  -26.4720 C.3      12 GLL5        0.0000 
    101 CA         26.3800   -3.3680  -26.7700 C.3       8 GLP5        0.0000 
    102 CA         21.5190   -3.5315  -29.8545 C.3       4 GLC5        0.0000 
    103 CA         21.5930   -1.7590  -28.6700 C.3      12 GLL5        0.0000 
    104 CA         21.4450   -5.3040  -31.0390 C.3       8 GLP5        0.0000 
    105 CA         23.6065   -0.9695  -28.4530 C.3       4 GLC5        0.0000 
    106 CA         25.6200   -0.1800  -28.2360 C.3       8 GLP5        0.0000 
    107 CA         21.6525    0.7655  -26.6280 C.3       4 GLC5        0.0000 
    108 CA         21.0560   -0.3370  -28.3260 C.3      12 GLL5        0.0000 
    109 CA         22.2490    1.8680  -24.9300 C.3       8 GLP5        0.0000 
    110 N          23.0770    1.2945  -30.9865 N.am      2 SEC2        0.0000 
    111 N          22.5430    0.6960  -29.9750 N.am     10 SEL2        0.0000 
    112 N          23.6110    1.8930  -31.9980 N.am      6 SEP2        0.0000 
    113 O          23.4225   -0.3300  -30.1790 O.2       1 ALC1        0.0000 
    114 O          22.5430    0.6960  -29.9750 O.2       9 ALL1        0.0000 
    115 O          24.3020   -1.3560  -30.3830 O.2       5 ALP1        0.0000 
    116 CA         19.0365    1.2235  -29.3295 C.3       4 GLC5        0.0000 
    117 CA         20.8260    2.1780  -28.9910 C.3      12 GLL5        0.0000 
    118 CA         21.5375    2.0230  -26.9605 C.3       4 GLC5        0.0000 
    119 N          20.5230    7.6800  -29.8220 N.am      2 SEC2        0.0000 
    120 N          19.8070    6.8060  -30.6770 N.am     10 SEL2        0.0000 
    121 N          21.2390    8.5540  -28.9670 N.am      6 SEP2        0.0000 
    122 N          22.8805    5.0435  -32.5025 N.am      2 SEC2        0.0000 
    123 N          21.5770    5.4880  -32.0460 N.am     10 SEL2        0.0000 
    124 N          24.1840    4.5990  -32.9590 N.am      6 SEP2        0.0000 
    125 N          19.6500    3.3760  -32.9120 N.am      2 SEC2        0.0000 
    126 N          19.2310    4.5780  -32.1750 N.am     10 SEL2        0.0000 
    127 CA         16.3708    7.1233  -30.8820 C.3       4 GLC5        0.0000 
    128 CA         17.0200    7.7270  -28.9380 C.3       8 GLP5        0.0000 
    129 CA         14.0810    8.3785  -36.8088 C.3       4 GLC5        0.0000 
    130 CA         13.1082   10.2662  -37.3077 C.3       4 GLC5        0.0000 
    131 CA         12.0930    8.3940  -37.2900 C.3      12 GLL5        0.0000 
    132 CA         10.2067    8.4043  -35.9393 C.3       4 GLC5        0.0000 
    133 CA         20.8430   -2.7085  -25.2473 C.3       4 GLC5        0.0000 
    134 CA         19.5920   -2.1720  -24.4720 C.3       8 GLP5        0.0000 
    135 CA         17.6970   -4.1028  -25.9082 C.3       4 GLC5        0.0000 
    136 CA         19.9970   -4.5990  -26.5980 C.3      12 GLL5        0.0000 
    137 CA         16.0080   -3.1650  -25.2260 C.3       8 GLP5        0.0000 
    138 CA         19.4890   -3.6063  -25.5312 C.3       4 GLC5        0.0000 
    139 CA         16.5752   -4.4820  -26.4660 C.3       4 GLC5        0.0000 
    140 CA         17.8180   -5.4720  -27.8260 C.3      12 GLL5        0.0000 
    141 CA         17.0328   -6.0955  -29.8235 C.3       4 GLC5        0.0000 
    142 CA         16.9230   -6.3920  -31.9410 C.3       8 GLP5        0.0000 
    143 CA         17.0360   -5.1340  -30.4397 C.3       4 GLC5        0.0000 
    144 CA         17.0212   -3.3220  -26.9646 C.3       4 GLC5        0.0000 
    145 CA         19.5440   -2.7105  -26.2332 C.3       4 GLC5        0.0000 
    146 CA         20.4705   -4.2765  -29.5168 C.3       4 GLC5        0.0000 
    147 CA         20.0720   -3.4160  -27.5210 C.3      12 GLL5        0.0000 
    148 CA         19.2022    0.2372  -29.2695 C.3       4 GLC5        0.0000 
    149 CA         20.6120    4.1523  -28.3922 C.3       4 GLC5        0.0000 
    150 CA         20.8580    3.0690  -30.2300 C.3      12 GLL5        0.0000 
    151 CA         20.3820    5.6810  -27.1740 C.3       8 GLP5        0.0000 
    152 CA         22.2790    4.0938  -29.2878 C.3       4 GLC5        0.0000 
    153 CA         23.7160    5.5640  -28.9650 C.3       8 GLP5        0.0000 
    154 CA         22.7526    2.5115  -30.5539 C.3       4 GLC5        0.0000 
    155 CA         24.5550    2.7570  -31.3910 C.3       8 GLP5        0.0000 
@<TRIPOS>BOND
@<TRIPOS>SUBSTRUCTURE
     1 ALC1       26 GROUP        1 X    ALC  0     ROOT ALC X 1
     2 SEC2        4 GROUP        1 X    SEC  0     **** SEC X 2
     3 LYC4        1 GROUP        1 X    LYC  0     **** LYC X 4
     4 GLC5       12 GROUP        1 X    GLC  0     **** GLC X 6
     5 ALP1       28 GROUP        1 Y    ALP  0     ROOT ALP Y 8
     6 SEP2        6 GROUP        1 Y    SEP  0     **** SEP Y 9
     7 LYP4        3 GROUP        1 Y    LYP  0     **** LYP Y 11
     8 GLP5       14 GROUP        1 Y    GLP  0     **** GLP Y 13
     9 ALL1       27 GROUP        1 Z    ALL  0     ROOT ALL Z 15
    10 SEL2        5 GROUP        1 Z    SEL  0     **** SEL Z 16
    11 LYL4        2 GROUP        1 Z    LYL  0     **** LYL Z 18
    12 GLL5       13 GROUP        1 Z    GLL  0     **** GLL Z 20
@<TRIPOS>SET

