#    Name: 3rha_FDA_1_ligand
#    Modification time : Tue Mar 25 11:25:31 2014

@<TRIPOS>MOLECULE
3rha_FDA_1_ligand
   86    91     1     0     0
SMALL
NO_CHARGES


@<TRIPOS>ATOM
      1 PA         17.7100    4.2870  -31.5780 P.3       1 FDA483      0.0000 
      2 O1A        16.9860    3.1750  -32.5480 O.co2     1 FDA483      0.0000 
      3 O2A        17.7450    3.8520  -30.1870 O.co2     1 FDA483      0.0000 
      4 O5B        16.8820    5.7290  -31.6380 O.3       1 FDA483      0.0000 
      5 C5B        16.3890    6.1520  -32.9000 C.3       1 FDA483      0.0000 
      6 C4B        15.0540    6.8870  -32.7520 C.3       1 FDA483      0.0000 
      7 O4B        14.5200    7.5900  -33.9020 O.3       1 FDA483      0.0000 
      8 C3B        13.8120    6.1020  -32.1350 C.3       1 FDA483      0.0000 
      9 O3B        13.3490    6.5410  -30.8800 O.3       1 FDA483      0.0000 
     10 C2B        12.8050    6.0380  -33.2980 C.3       1 FDA483      0.0000 
     11 O2B        11.4510    5.8430  -32.9710 O.3       1 FDA483      0.0000 
     12 C1B        13.1470    7.3100  -33.9850 C.3       1 FDA483      0.0000 
     13 N9A        12.8420    7.3820  -35.4120 N.pl3     1 FDA483      0.0000 
     14 C8A        13.2190    6.5640  -36.4290 C.2       1 FDA483      0.0000 
     15 N7A        12.7590    7.1710  -37.6320 N.2       1 FDA483      0.0000 
     16 C5A        12.0930    8.3940  -37.2900 C.ar      1 FDA483      0.0000 
     17 C6A        11.4390    9.3920  -38.0620 C.ar      1 FDA483      0.0000 
     18 N6A        11.3930    9.2840  -39.5030 N.pl3     1 FDA483      0.0000 
     19 N1A        10.8960   10.4570  -37.4520 N.ar      1 FDA483      0.0000 
     20 C2A        10.9490   10.5980  -36.0920 C.ar      1 FDA483      0.0000 
     21 N3A        11.5860    9.6180  -35.3170 N.ar      1 FDA483      0.0000 
     22 C4A        12.1430    8.5440  -35.9490 C.ar      1 FDA483      0.0000 
     23 N1         23.0910   -1.6870  -26.2700 N.am      1 FDA483      0.0000 
     24 C2         23.8960   -1.6740  -25.1110 C.2       1 FDA483      0.0000 
     25 O2         24.8330   -0.6470  -24.9260 O.2       1 FDA483      0.0000 
     26 N3         23.7650   -2.6690  -24.1650 N.am      1 FDA483      0.0000 
     27 C4         22.8540   -3.6910  -24.3550 C.2       1 FDA483      0.0000 
     28 O4         22.7110   -4.6820  -23.3960 O.2       1 FDA483      0.0000 
     29 C4X        22.0250   -3.7270  -25.5730 C.2       1 FDA483      0.0000 
     30 N5         21.1160   -4.7660  -25.7270 N.pl3     1 FDA483      0.0000 
     31 C5X        19.9970   -4.5990  -26.5980 C.ar      1 FDA483      0.0000 
     32 C6         18.7750   -5.4820  -26.5830 C.ar      1 FDA483      0.0000 
     33 C7         17.8180   -5.4720  -27.8260 C.ar      1 FDA483      0.0000 
     34 C7M        16.4670   -6.1260  -27.5860 C.3       1 FDA483      0.0000 
     35 C8         17.8370   -4.1780  -28.7780 C.ar      1 FDA483      0.0000 
     36 C8M        16.4610   -3.5740  -29.0990 C.3       1 FDA483      0.0000 
     37 C9         18.9200   -3.0820  -28.4680 C.ar      1 FDA483      0.0000 
     38 C9A        20.0720   -3.4160  -27.5210 C.ar      1 FDA483      0.0000 
     39 N10        21.3570   -2.7890  -27.6240 N.pl3     1 FDA483      0.0000 
     40 C10        22.1630   -2.7630  -26.4720 C.2       1 FDA483      0.0000 
     41 C1'        21.5930   -1.7590  -28.6700 C.3       1 FDA483      0.0000 
     42 C2'        21.0560   -0.3370  -28.3260 C.3       1 FDA483      0.0000 
     43 O2'        20.2120   -0.1810  -27.5140 O.3       1 FDA483      0.0000 
     44 C3'        21.2590    0.7480  -29.4160 C.3       1 FDA483      0.0000 
     45 O3'        22.5430    0.6960  -29.9750 O.3       1 FDA483      0.0000 
     46 C4'        20.8260    2.1780  -28.9910 C.3       1 FDA483      0.0000 
     47 O4'        19.5780    2.2790  -28.3620 O.3       1 FDA483      0.0000 
     48 C5'        20.8580    3.0690  -30.2300 C.3       1 FDA483      0.0000 
     49 O5'        20.7100    4.4360  -29.9540 O.3       1 FDA483      0.0000 
     50 P          20.3510    5.3760  -31.2670 P.3       1 FDA483      0.0000 
     51 O1P        19.8070    6.8060  -30.6770 O.co2     1 FDA483      0.0000 
     52 O2P        21.5770    5.4880  -32.0460 O.co2     1 FDA483      0.0000 
     53 O3P        19.2310    4.5780  -32.1750 O.3       1 FDA483      0.0000 
     54 H          16.2233    5.3019  -33.5823 H         1 FDA483      0.0000 
     55 H          17.0887    6.8380  -33.4054 H         1 FDA483      0.0000 
     56 H          15.2246    7.7154  -31.9493 H         1 FDA483      0.0000 
     57 H          14.2158    5.0349  -32.0712 H         1 FDA483      0.0000 
     58 H          13.2079    5.2328  -33.9572 H         1 FDA483      0.0000 
     59 H          12.5987    8.1377  -33.4854 H         1 FDA483      0.0000 
     60 H          13.6893    5.7532  -36.3876 H         1 FDA483      0.0000 
     61 H          10.9228   10.0234  -39.9849 H         1 FDA483      0.0000 
     62 H          11.8352    8.4789  -39.8982 H         1 FDA483      0.0000 
     63 H          10.5289   11.4122  -35.6263 H         1 FDA483      0.0000 
     64 H          23.1595   -0.9480  -26.9600 H         1 FDA483      0.0000 
     65 H          24.3478   -2.6517  -23.3130 H         1 FDA483      0.0000 
     66 H          21.2316   -5.6480  -25.2295 H         1 FDA483      0.0000 
     67 H          18.5606   -6.0563  -25.8304 H         1 FDA483      0.0000 
     68 H          18.8413   -2.2089  -28.8827 H         1 FDA483      0.0000 
     69 H          21.1243   -2.0685  -29.6255 H         1 FDA483      0.0000 
     70 H          22.6779   -1.6632  -28.8758 H         1 FDA483      0.0000 
     71 H          22.1441    0.0131  -27.6481 H         1 FDA483      0.0000 
     72 H          20.5076    0.4581  -30.2380 H         1 FDA483      0.0000 
     73 H          21.6375    2.5598  -28.3354 H         1 FDA483      0.0000 
     74 H          20.0607    2.6960  -30.9188 H         1 FDA483      0.0000 
     75 H          21.8185    2.8542  -30.7596 H         1 FDA483      0.0000 
     76 H          16.5607   -7.0863  -27.3233 H         1 FDA483      0.0000 
     77 H          15.9584   -5.6705  -26.8553 H         1 FDA483      0.0000 
     78 H          15.8916   -6.1006  -28.4035 H         1 FDA483      0.0000 
     79 H          16.5365   -2.7722  -29.6918 H         1 FDA483      0.0000 
     80 H          15.8677   -4.2293  -29.5665 H         1 FDA483      0.0000 
     81 H          15.9811   -3.2825  -28.2715 H         1 FDA483      0.0000 
     82 H          13.0308    7.4764  -31.0344 H         1 FDA483      0.0000 
     83 H          11.3193    6.3350  -32.1104 H         1 FDA483      0.0000 
     84 H          19.8545    0.7370  -27.6856 H         1 FDA483      0.0000 
     85 H          22.7961   -0.2712  -29.9522 H         1 FDA483      0.0000 
     86 H          19.0152    2.8178  -28.9889 H         1 FDA483      0.0000 
@<TRIPOS>BOND
     1    2    1 ar   
     2    3    1 ar   
     3    4    1 1    
     4   53    1 1    
     5    5    4 1    
     6    6    5 1    
     7   54    5 1    
     8   55    5 1    
     9    7    6 1    
    10    8    6 1    
    11   56    6 1    
    12   12    7 1    
    13    9    8 1    
    14   10    8 1    
    15   57    8 1    
    16   82    9 1    
    17   11   10 1    
    18   12   10 1    
    19   58   10 1    
    20   83   11 1    
    21   13   12 1    
    22   59   12 1    
    23   14   13 1    
    24   22   13 1    
    25   15   14 2    
    26   60   14 1    
    27   16   15 1    
    28   17   16 ar   
    29   22   16 ar   
    30   18   17 1    
    31   19   17 ar   
    32   61   18 1    
    33   62   18 1    
    34   20   19 ar   
    35   21   20 ar   
    36   63   20 1    
    37   22   21 ar   
    38   24   23 am   
    39   40   23 1    
    40   64   23 1    
    41   25   24 2    
    42   26   24 am   
    43   27   26 am   
    44   65   26 1    
    45   28   27 2    
    46   29   27 1    
    47   30   29 1    
    48   40   29 2    
    49   31   30 1    
    50   66   30 1    
    51   32   31 ar   
    52   38   31 ar   
    53   33   32 ar   
    54   67   32 1    
    55   34   33 1    
    56   35   33 ar   
    57   76   34 1    
    58   77   34 1    
    59   78   34 1    
    60   36   35 1    
    61   37   35 ar   
    62   79   36 1    
    63   80   36 1    
    64   81   36 1    
    65   38   37 ar   
    66   68   37 1    
    67   39   38 1    
    68   40   39 1    
    69   41   39 1    
    70   42   41 1    
    71   69   41 1    
    72   70   41 1    
    73   43   42 1    
    74   44   42 1    
    75   71   42 1    
    76   84   43 1    
    77   45   44 1    
    78   46   44 1    
    79   72   44 1    
    80   85   45 1    
    81   47   46 1    
    82   48   46 1    
    83   73   46 1    
    84   86   47 1    
    85   49   48 1    
    86   74   48 1    
    87   75   48 1    
    88   50   49 1    
    89   51   50 ar   
    90   52   50 ar   
    91   53   50 1    
@<TRIPOS>SUBSTRUCTURE
     1 FDA483      1 GROUP   
@<TRIPOS>SET

