#    Name: 3vey_0H5_2_INTS_M
#    Modification time : Tue Mar 25 00:43:56 2014

@<TRIPOS>MOLECULE
3vey_0H5_2_INTS_M
   50     0     9     0     0
SMALL
NO_CHARGES


@<TRIPOS>ATOM
      1 CA         43.3445   12.7115   64.2660 C.3       3 GLC5        0.0000 
      2 CA         42.2200   12.8300   62.6010 C.3       9 GLL5        0.0000 
      3 CA         44.4690   12.5930   65.9310 C.3       6 GLP5        0.0000 
      4 CA         41.2220   12.3435   60.9445 C.3       3 GLC5        0.0000 
      5 CA         40.2240   11.8570   59.2880 C.3       6 GLP5        0.0000 
      6 CA         38.4600   17.3185   66.5345 C.3       3 GLC5        0.0000 
      7 CA         39.1590   18.8850   65.2810 C.3       9 GLL5        0.0000 
      8 CA         37.7610   15.7520   67.7880 C.3       6 GLP5        0.0000 
      9 CA         37.1805   19.2705   65.5975 C.3       3 GLC5        0.0000 
     10 CA         35.2020   19.6560   65.9140 C.3       6 GLP5        0.0000 
     11 CA         39.4440   20.5605   64.9370 C.3       3 GLC5        0.0000 
     12 CA         39.7290   22.2360   64.5930 C.3       6 GLP5        0.0000 
     13 CA         36.9410   19.3195   56.5560 C.3       3 GLC5        0.0000 
     14 CA         36.1520   20.2300   58.1570 C.3       9 GLL5        0.0000 
     15 CA         37.7300   18.4090   54.9550 C.3       6 GLP5        0.0000 
     16 N          40.8895   18.4875   66.5490 N.am      2 SEC2        0.0000 
     17 N          40.0610   17.9960   65.6540 N.am      8 SEL2        0.0000 
     18 N          41.7180   18.9790   67.4440 N.am      5 SEP2        0.0000 
     19 CA         40.6110   18.8255   62.5945 C.3       3 GLC5        0.0000 
     20 CA         38.9790   17.9830   63.1000 C.3       9 GLL5        0.0000 
     21 CA         42.2430   19.6680   62.0890 C.3       6 GLP5        0.0000 
     22 O          39.2470   17.3805   60.7330 O.2       1 ALC1        0.0000 
     23 O          38.4270   18.0030   61.7740 O.2       7 ALL1        0.0000 
     24 O          40.0670   16.7580   59.6920 O.2       4 ALP1        0.0000 
     25 N          37.5935   17.5995   59.1240 N.am      2 SEC2        0.0000 
     26 N          37.4570   18.9630   59.8160 N.am      8 SEL2        0.0000 
     27 N          37.7300   16.2360   58.4320 N.am      5 SEP2        0.0000 
     28 CA         33.7410   19.9740   60.7015 C.3       3 GLC5        0.0000 
     29 CA         35.9560   20.3680   60.7000 C.3       9 GLL5        0.0000 
     30 CA         31.5260   19.5800   60.7030 C.3       6 GLP5        0.0000 
     31 CA         34.7035   21.9580   61.4555 C.3       3 GLC5        0.0000 
     32 CA         33.4510   23.5480   62.2110 C.3       6 GLP5        0.0000 
     33 CA         41.6962   15.5335   60.9010 C.3       3 GLC5        0.0000 
     34 CA         40.3650   15.9580   62.5860 C.3       9 GLL5        0.0000 
     35 CA         42.5680   15.5990   59.0030 C.3       6 GLP5        0.0000 
     36 CA         41.2611   18.0735   62.7203 C.3       3 GLC5        0.0000 
     37 CA         34.9930   19.4027   62.6325 C.3       3 GLC5        0.0000 
     38 CA         36.5840   19.7190   61.7500 C.3       9 GLL5        0.0000 
     39 CA         33.7160   18.7620   64.0400 C.3       6 GLP5        0.0000 
     40 CA         37.6605   21.2938   61.7125 C.3       3 GLC5        0.0000 
     41 CA         39.0510   22.5440   62.2000 C.3       6 GLP5        0.0000 
     42 CA         42.1602   14.0625   66.2553 C.3       3 GLC5        0.0000 
     43 CA         41.4080   16.0360   65.2010 C.3       9 GLL5        0.0000 
     44 CA         42.7050   12.5980   67.7460 C.3       6 GLP5        0.0000 
     45 CA         38.9000   15.8200   64.1280 C.3       3 GLC5        0.0000 
     46 CA         39.9270   16.9770   63.4540 C.3       9 GLL5        0.0000 
     47 CA         38.3470   14.1600   64.9790 C.3       6 GLP5        0.0000 
     48 CA         38.0117   16.0791   62.3565 C.3       3 GLC5        0.0000 
     49 CA         36.4610   14.9330   61.6530 C.3       6 GLP5        0.0000 
     50 CA         39.7243   14.8904   64.3541 C.3       3 GLC5        0.0000 
@<TRIPOS>BOND
@<TRIPOS>SUBSTRUCTURE
     1 ALC1       22 GROUP        1 X    ALC  0     ROOT ALC X 1
     2 SEC2       16 GROUP        1 X    SEC  0     **** SEC X 2
     3 GLC5        1 GROUP        1 X    GLC  0     **** GLC X 6
     4 ALP1       24 GROUP        1 Y    ALP  0     ROOT ALP Y 8
     5 SEP2       18 GROUP        1 Y    SEP  0     **** SEP Y 9
     6 GLP5        3 GROUP        1 Y    GLP  0     **** GLP Y 13
     7 ALL1       23 GROUP        1 Z    ALL  0     ROOT ALL Z 15
     8 SEL2       17 GROUP        1 Z    SEL  0     **** SEL Z 16
     9 GLL5        2 GROUP        1 Z    GLL  0     **** GLL Z 20
@<TRIPOS>SET

