#    Name: 3vey_0H5_2_ligand
#    Modification time : Tue Mar 25 00:43:56 2014

@<TRIPOS>MOLECULE
3vey_0H5_2_ligand
   32    34     1     0     0
SMALL
NO_CHARGES


@<TRIPOS>ATOM
      1 C4         40.4600   17.0230   64.7800 C.ar      1 0H5504      0.0000 
      2 C6         40.3650   15.9580   62.5860 C.ar      1 0H5504      0.0000 
      3 C13        42.2200   12.8300   62.6010 C.3       1 0H5504      0.0000 
      4 C8         39.1590   18.8850   65.2810 C.ar      1 0H5504      0.0000 
      5 C18        36.5840   19.7190   61.7500 C.2       1 0H5504      0.0000 
      6 C19        36.1520   20.2300   58.1570 C.3       1 0H5504      0.0000 
      7 C1         41.2840   14.9780   63.0120 C.ar      1 0H5504      0.0000 
      8 C2         41.8230   15.0180   64.3280 C.ar      1 0H5504      0.0000 
      9 C3         41.4080   16.0360   65.2010 C.ar      1 0H5504      0.0000 
     10 C5         39.9270   16.9770   63.4540 C.ar      1 0H5504      0.0000 
     11 N7         40.0610   17.9960   65.6540 N.ar      1 0H5504      0.0000 
     12 N9         38.6140   18.9260   64.0510 N.ar      1 0H5504      0.0000 
     13 C10        38.9790   17.9830   63.1000 C.ar      1 0H5504      0.0000 
     14 O11        41.6010   14.0020   62.0500 O.3       1 0H5504      0.0000 
     15 N12        38.4270   18.0030   61.7740 N.pl3     1 0H5504      0.0000 
     16 C14        37.5300   18.8430   61.1570 C.2       1 0H5504      0.0000 
     17 N15        37.4570   18.9630   59.8160 N.2       1 0H5504      0.0000 
     18 N16        36.5020   19.8860   59.5430 N.pl3     1 0H5504      0.0000 
     19 C17        35.9560   20.3680   60.7000 C.2       1 0H5504      0.0000 
     20 H          40.0064   15.9280   61.6194 H         1 0H5504      0.0000 
     21 H          38.8350   19.6211   65.9910 H         1 0H5504      0.0000 
     22 H          36.4322   19.8214   62.6609 H         1 0H5504      0.0000 
     23 H          42.4950   14.3192   64.6222 H         1 0H5504      0.0000 
     24 H          41.7814   16.0839   66.1547 H         1 0H5504      0.0000 
     25 H          38.8110   17.1720   61.1403 H         1 0H5504      0.0000 
     26 H          35.2758   21.0225   60.7797 H         1 0H5504      0.0000 
     27 H          42.4304   12.1542   61.8946 H         1 0H5504      0.0000 
     28 H          43.0792   13.0468   63.0644 H         1 0H5504      0.0000 
     29 H          41.6309   12.3793   63.2717 H         1 0H5504      0.0000 
     30 H          36.9372   20.5921   57.6546 H         1 0H5504      0.0000 
     31 H          35.8206   19.4347   57.6493 H         1 0H5504      0.0000 
     32 H          35.4330   20.9238   58.1168 H         1 0H5504      0.0000 
@<TRIPOS>BOND
     1    9    1 ar   
     2   10    1 ar   
     3   11    1 ar   
     4    7    2 ar   
     5   10    2 ar   
     6   20    2 1    
     7   14    3 1    
     8   27    3 1    
     9   28    3 1    
    10   29    3 1    
    11   11    4 ar   
    12   12    4 ar   
    13   21    4 1    
    14   16    5 1    
    15   19    5 2    
    16   22    5 1    
    17   18    6 1    
    18   30    6 1    
    19   31    6 1    
    20   32    6 1    
    21    8    7 ar   
    22   14    7 1    
    23    9    8 ar   
    24   23    8 1    
    25   24    9 1    
    26   13   10 ar   
    27   13   12 ar   
    28   15   13 1    
    29   16   15 1    
    30   25   15 1    
    31   17   16 2    
    32   18   17 1    
    33   19   18 1    
    34   26   19 1    
@<TRIPOS>SUBSTRUCTURE
     1 0H5504      1 GROUP   
@<TRIPOS>SET

