#    Name: 4a7y_NHF_2_ligand
#    Modification time : Tue Mar 25 05:14:19 2014

@<TRIPOS>MOLECULE
4a7y_NHF_2_ligand
   21    21     1     0     0
SMALL
NO_CHARGES


@<TRIPOS>ATOM
      1 O4         -8.5510  -35.3030   21.1820 O.3       1 NHF954      0.0000 
      2 C6        -11.0190  -33.7970   21.0350 C.3       1 NHF954      0.0000 
      3 C5        -11.0560  -35.3600   21.1940 C.3       1 NHF954      0.0000 
      4 C4         -9.7140  -36.0610   20.8530 C.3       1 NHF954      0.0000 
      5 O3         -8.3730  -38.0410   21.4140 O.3       1 NHF954      0.0000 
      6 C3         -9.6680  -37.3920   21.5890 C.3       1 NHF954      0.0000 
      7 C2        -10.8770  -38.2120   21.0720 C.2       1 NHF954      0.0000 
      8 C1        -11.9260  -37.5440   20.3780 C.3       1 NHF954      0.0000 
      9 O2        -10.9440  -39.4210   21.3040 O.2       1 NHF954      0.0000 
     10 O6        -12.3350  -33.2320   21.0180 O.3       1 NHF954      0.0000 
     11 O5        -12.0640  -36.0620   20.3740 O.3       1 NHF954      0.0000 
     12 H         -10.4668  -33.5890   20.1063 H         1 NHF954      0.0000 
     13 H         -10.4132  -33.4110   21.8685 H         1 NHF954      0.0000 
     14 H         -11.2520  -35.5905   22.2552 H         1 NHF954      0.0000 
     15 H          -9.7409  -36.2979   19.7833 H         1 NHF954      0.0000 
     16 H          -9.8596  -37.1756   22.6421 H         1 NHF954      0.0000 
     17 H         -12.9440  -37.9739   20.7206 H         1 NHF954      0.0000 
     18 H         -11.9278  -37.8832   19.2719 H         1 NHF954      0.0000 
     19 H          -7.8140  -35.9757   21.2483 H         1 NHF954      0.0000 
     20 H          -8.1459  -38.4122   22.3143 H         1 NHF954      0.0000 
     21 H         -12.2054  -32.2674   21.2475 H         1 NHF954      0.0000 
@<TRIPOS>BOND
     1    4    1 1    
     2   19    1 1    
     3    3    2 1    
     4   10    2 1    
     5   12    2 1    
     6   13    2 1    
     7    4    3 1    
     8   11    3 1    
     9   14    3 1    
    10    6    4 1    
    11   15    4 1    
    12    6    5 1    
    13   20    5 1    
    14    7    6 1    
    15   16    6 1    
    16    8    7 1    
    17    9    7 2    
    18   11    8 1    
    19   17    8 1    
    20   18    8 1    
    21   21   10 1    
@<TRIPOS>SUBSTRUCTURE
     1 NHF954      1 GROUP   
@<TRIPOS>SET

