#    Name: 4hhz_15S_4_INTS_M
#    Modification time : Tue Mar 25 01:05:53 2014

@<TRIPOS>MOLECULE
4hhz_15S_4_INTS_M
   74     0     9     0     0
SMALL
NO_CHARGES


@<TRIPOS>ATOM
      1 N         -13.7480  -16.4340  -49.8555 N.am      2 SEC2        0.0000 
      2 N         -14.6270  -16.9890  -50.5400 N.am      8 SEL2        0.0000 
      3 N         -12.8690  -15.8790  -49.1710 N.am      5 SEP2        0.0000 
      4 N         -14.2375  -16.2545  -51.7270 N.am      2 SEC2        0.0000 
      5 N         -13.8480  -15.5200  -52.9140 N.am      5 SEP2        0.0000 
      6 O         -14.8030  -17.8445  -48.0095 O.2       1 ALC1        0.0000 
      7 O         -15.4420  -18.5810  -48.8750 O.2       7 ALL1        0.0000 
      8 O         -14.1640  -17.1080  -47.1440 O.2       4 ALP1        0.0000 
      9 CA        -13.8780  -19.5205  -48.2860 C.3       3 GLC5        0.0000 
     10 CA        -15.9870  -19.9250  -48.7600 C.3       9 GLL5        0.0000 
     11 CA        -11.7690  -19.1160  -47.8120 C.3       6 GLP5        0.0000 
     12 CA        -17.3880  -18.1900  -48.5950 C.3       3 GLC5        0.0000 
     13 CA        -18.7890  -16.4550  -48.4300 C.3       6 GLP5        0.0000 
     14 CA        -17.9090  -18.1050  -49.7205 C.3       3 GLC5        0.0000 
     15 CA        -17.2450  -19.9440  -49.6430 C.3       9 GLL5        0.0000 
     16 CA        -18.5730  -16.2660  -49.7980 C.3       6 GLP5        0.0000 
     17 CA        -15.6190  -16.3260  -52.3585 C.3       3 GLC5        0.0000 
     18 CA        -15.6180  -18.4720  -52.7670 C.3       9 GLL5        0.0000 
     19 CA        -15.6200  -14.1800  -51.9500 C.3       6 GLP5        0.0000 
     20 CA        -17.4220  -17.2975  -54.6535 C.3       3 GLC5        0.0000 
     21 CA        -16.4410  -18.9780  -53.7480 C.3       9 GLL5        0.0000 
     22 CA        -18.4030  -15.6170  -55.5590 C.3       6 GLP5        0.0000 
     23 CA        -18.5355  -18.7070  -54.9885 C.3       3 GLC5        0.0000 
     24 CA        -17.5490  -19.7950  -53.4440 C.3       9 GLL5        0.0000 
     25 CA        -19.5220  -17.6190  -56.5330 C.3       6 GLP5        0.0000 
     26 CA        -17.7845  -20.9215  -55.2620 C.3       3 GLC5        0.0000 
     27 CA        -18.0200  -22.0480  -57.0800 C.3       6 GLP5        0.0000 
     28 CA        -18.2675  -22.4440  -52.6095 C.3       3 GLC5        0.0000 
     29 CA        -18.9820  -20.9710  -51.7430 C.3       9 GLL5        0.0000 
     30 CA        -17.5530  -23.9170  -53.4760 C.3       6 GLP5        0.0000 
     31 CA        -19.7235  -19.3090  -51.0325 C.3       3 GLC5        0.0000 
     32 CA        -20.4650  -17.6470  -50.3220 C.3       6 GLP5        0.0000 
     33 CA        -17.5570  -22.9805  -51.6080 C.3       3 GLC5        0.0000 
     34 CA        -18.5660  -21.9010  -50.6830 C.3       9 GLL5        0.0000 
     35 CA        -16.5480  -24.0600  -52.5330 C.3       6 GLP5        0.0000 
     36 CA        -19.9360  -19.4170  -48.7355 C.3       3 GLC5        0.0000 
     37 CA        -19.1780  -20.9940  -48.4990 C.3       9 GLL5        0.0000 
     38 CA        -20.6940  -17.8400  -48.9720 C.3       6 GLP5        0.0000 
     39 CA        -13.2320  -28.7955  -44.4590 C.3       3 GLC5        0.0000 
     40 CA        -13.8120  -27.9420  -42.6750 C.3       9 GLL5        0.0000 
     41 CA        -12.6520  -29.6490  -46.2430 C.3       6 GLP5        0.0000 
     42 CA        -14.8470  -26.5160  -39.6275 C.3       3 GLC5        0.0000 
     43 CA        -15.7180  -27.4030  -41.3100 C.3       9 GLL5        0.0000 
     44 CA        -13.9760  -25.6290  -37.9450 C.3       6 GLP5        0.0000 
     45 CA        -15.6640  -20.7880  -52.1693 C.3       3 GLC5        0.0000 
     46 CA        -15.8820  -18.8020  -51.3660 C.3       9 GLL5        0.0000 
     47 CA        -15.5780  -22.9390  -52.2720 C.3       6 GLP5        0.0000 
     48 CA        -14.3308  -19.4895  -53.8618 C.3       3 GLC5        0.0000 
     49 CA        -12.6320  -20.2540  -54.4660 C.3       6 GLP5        0.0000 
     50 CA        -15.4403  -17.5820  -54.6303 C.3       3 GLC5        0.0000 
     51 CA        -14.8510  -16.4390  -56.0030 C.3       6 GLP5        0.0000 
     52 CA        -16.2865  -21.1628  -52.9340 C.3       3 GLC5        0.0000 
     53 CA        -16.5216  -21.4438  -51.7410 C.3       3 GLC5        0.0000 
     54 CA        -17.8200  -20.1150  -52.0550 C.3       9 GLL5        0.0000 
     55 CA        -20.1913  -25.6912  -46.5100 C.3       3 GLC5        0.0000 
     56 CA        -19.2560  -23.7110  -45.9080 C.3       9 GLL5        0.0000 
     57 CA        -20.5660  -27.2580  -47.2770 C.3       6 GLP5        0.0000 
     58 CA        -17.8022  -24.4682  -41.9878 C.3       3 GLC5        0.0000 
     59 CA        -17.0350  -24.4370  -44.0590 C.3       9 GLL5        0.0000 
     60 CA        -18.7140  -23.8930  -40.3290 C.3       6 GLP5        0.0000 
     61 CA        -12.0340  -27.9310  -42.6457 C.3       3 GLC5        0.0000 
     62 CA        -10.3970  -27.3780  -43.0240 C.3       6 GLP5        0.0000 
     63 CA        -14.9715  -29.7660  -42.9265 C.3       3 GLC5        0.0000 
     64 CA        -13.5300  -29.0260  -41.8600 C.3       9 GLL5        0.0000 
     65 CA        -16.0080  -30.3640  -44.5410 C.3       6 GLP5        0.0000 
     66 CA        -15.3475  -30.5482  -41.2803 C.3       3 GLC5        0.0000 
     67 CA        -14.0790  -30.3330  -40.0110 C.3       9 GLL5        0.0000 
     68 CA        -16.6880  -31.3460  -41.8990 C.3       6 GLP5        0.0000 
     69 CA        -14.5834  -28.5786  -38.8031 C.3       3 GLC5        0.0000 
     70 CA        -14.3400  -29.3100  -40.7640 C.3       9 GLL5        0.0000 
     71 CA        -14.3470  -27.9910  -37.1740 C.3       6 GLP5        0.0000 
     72 CA        -16.1310  -29.6515  -41.3963 C.3       3 GLC5        0.0000 
     73 CA        -15.4300  -28.5110  -40.4770 C.3       9 GLL5        0.0000 
     74 CA        -15.5264  -28.9162  -43.2311 C.3       3 GLC5        0.0000 
@<TRIPOS>BOND
@<TRIPOS>SUBSTRUCTURE
     1 ALC1        6 GROUP        1 X    ALC  0     ROOT ALC X 1
     2 SEC2        1 GROUP        1 X    SEC  0     **** SEC X 2
     3 GLC5        9 GROUP        1 X    GLC  0     **** GLC X 6
     4 ALP1        8 GROUP        1 Y    ALP  0     ROOT ALP Y 8
     5 SEP2        3 GROUP        1 Y    SEP  0     **** SEP Y 9
     6 GLP5       11 GROUP        1 Y    GLP  0     **** GLP Y 13
     7 ALL1        7 GROUP        1 Z    ALL  0     ROOT ALL Z 15
     8 SEL2        2 GROUP        1 Z    SEL  0     **** SEL Z 16
     9 GLL5       10 GROUP        1 Z    GLL  0     **** GLL Z 20
@<TRIPOS>SET

