#    Name: 4hhz_15S_4_ligand
#    Modification time : Tue Mar 25 01:05:53 2014

@<TRIPOS>MOLECULE
4hhz_15S_4_ligand
   65    69     1     0     0
SMALL
NO_CHARGES


@<TRIPOS>ATOM
      1 OAC       -14.6270  -16.9890  -50.5400 O.2       1 15S401      0.0000 
      2 CAX       -14.9540  -18.2820  -50.3050 C.2       1 15S401      0.0000 
      3 NAU       -15.4420  -18.5810  -48.8750 N.am      1 15S401      0.0000 
      4 CAS       -15.9870  -19.9250  -48.7600 C.3       1 15S401      0.0000 
      5 CBG       -17.2450  -19.9440  -49.6430 C.3       1 15S401      0.0000 
      6 CBE       -16.9760  -19.6200  -51.0870 C.ar      1 15S401      0.0000 
      7 CBD       -15.8820  -18.8020  -51.3660 C.ar      1 15S401      0.0000 
      8 CAI       -15.6180  -18.4720  -52.7670 C.ar      1 15S401      0.0000 
      9 CAG       -16.4410  -18.9780  -53.7480 C.ar      1 15S401      0.0000 
     10 CAH       -17.5490  -19.7950  -53.4440 C.ar      1 15S401      0.0000 
     11 CBC       -17.8200  -20.1150  -52.0550 C.ar      1 15S401      0.0000 
     12 CAP       -18.9820  -20.9710  -51.7430 C.3       1 15S401      0.0000 
     13 CAR       -18.5660  -21.9010  -50.6830 C.3       1 15S401      0.0000 
     14 NBI       -18.1710  -21.1430  -49.4850 N.4       1 15S401      0.0000 
     15 CAT       -19.1780  -20.9940  -48.4990 C.3       1 15S401      0.0000 
     16 CAW       -18.7220  -21.8340  -47.3590 C.2       1 15S401      0.0000 
     17 OAB       -17.6130  -21.6620  -46.8880 O.2       1 15S401      0.0000 
     18 N         -19.6350  -22.8490  -46.9600 N.am      1 15S401      0.0000 
     19 CA        -19.2560  -23.7110  -45.9080 C.3       1 15S401      0.0000 
     20 CB        -20.3770  -24.5380  -45.5780 C.3       1 15S401      0.0000 
     21 C         -17.9770  -24.4860  -46.3900 C.2       1 15S401      0.0000 
     22 O         -17.8880  -24.7800  -47.5400 O.2       1 15S401      0.0000 
     23 NBH       -16.8940  -24.8050  -45.4340 N.am      1 15S401      0.0000 
     24 CAQ       -15.6500  -25.5340  -45.7880 C.3       1 15S401      0.0000 
     25 CAO       -14.7330  -25.9290  -44.6610 C.3       1 15S401      0.0000 
     26 CAN       -17.0350  -24.4370  -44.0590 C.3       1 15S401      0.0000 
     27 CAF       -16.7460  -25.6500  -43.2340 C.2       1 15S401      0.0000 
     28 CAY       -15.2700  -25.9000  -43.2730 C.2       1 15S401      0.0000 
     29 CBB       -14.9310  -27.1260  -42.3900 C.ar      1 15S401      0.0000 
     30 CAL       -13.8120  -27.9420  -42.6750 C.ar      1 15S401      0.0000 
     31 CAJ       -13.5300  -29.0260  -41.8600 C.ar      1 15S401      0.0000 
     32 CBA       -14.3400  -29.3100  -40.7640 C.ar      1 15S401      0.0000 
     33 FAE       -14.0790  -30.3330  -40.0110 F         1 15S401      0.0000 
     34 CAK       -15.4300  -28.5110  -40.4770 C.ar      1 15S401      0.0000 
     35 CAM       -15.7180  -27.4030  -41.3100 C.ar      1 15S401      0.0000 
     36 H         -15.3765  -17.9463  -48.1944 H         1 15S401      0.0000 
     37 H         -16.2801  -20.1495  -47.7494 H         1 15S401      0.0000 
     38 H         -15.3009  -20.6650  -49.1334 H         1 15S401      0.0000 
     39 H         -17.8771  -19.0405  -49.2630 H         1 15S401      0.0000 
     40 H         -14.8255  -17.8722  -52.9738 H         1 15S401      0.0000 
     41 H         -16.2513  -18.7589  -54.7480 H         1 15S401      0.0000 
     42 H         -18.1517  -20.1585  -54.1631 H         1 15S401      0.0000 
     43 H         -19.2840  -21.5227  -52.6286 H         1 15S401      0.0000 
     44 H         -19.8115  -20.3591  -51.4006 H         1 15S401      0.0000 
     45 H         -17.7236  -22.5106  -51.0315 H         1 15S401      0.0000 
     46 H         -19.3917  -22.5799  -50.4377 H         1 15S401      0.0000 
     47 H         -17.4011  -21.9396  -48.9367 H         1 15S401      0.0000 
     48 H         -20.1373  -21.3573  -48.8432 H         1 15S401      0.0000 
     49 H         -19.2695  -19.9683  -48.1668 H         1 15S401      0.0000 
     50 H         -20.5260  -22.9462  -47.4182 H         1 15S401      0.0000 
     51 H         -18.9439  -23.1153  -45.0482 H         1 15S401      0.0000 
     52 H         -15.0604  -24.9196  -46.5232 H         1 15S401      0.0000 
     53 H         -15.9190  -26.4616  -46.3650 H         1 15S401      0.0000 
     54 H         -13.8133  -25.2771  -44.7100 H         1 15S401      0.0000 
     55 H         -14.3347  -26.9625  -44.8765 H         1 15S401      0.0000 
     56 H         -18.0472  -24.0957  -43.8395 H         1 15S401      0.0000 
     57 H         -16.3333  -23.6492  -43.7833 H         1 15S401      0.0000 
     58 H         -17.3573  -26.1485  -42.7872 H         1 15S401      0.0000 
     59 H         -13.2223  -27.7224  -43.4811 H         1 15S401      0.0000 
     60 H         -12.7174  -29.6270  -42.0634 H         1 15S401      0.0000 
     61 H         -16.0319  -28.7049  -39.6749 H         1 15S401      0.0000 
     62 H         -16.5338  -26.8144  -41.0799 H         1 15S401      0.0000 
     63 H         -20.1636  -25.1744  -44.8367 H         1 15S401      0.0000 
     64 H         -21.1637  -23.9963  -45.2819 H         1 15S401      0.0000 
     65 H         -20.6761  -25.0869  -46.3585 H         1 15S401      0.0000 
@<TRIPOS>BOND
     1    2    1 2    
     2    3    2 am   
     3    7    2 1    
     4    4    3 1    
     5   36    3 1    
     6    5    4 1    
     7   37    4 1    
     8   38    4 1    
     9    6    5 1    
    10   14    5 1    
    11   39    5 1    
    12    7    6 ar   
    13   11    6 ar   
    14    8    7 ar   
    15    9    8 ar   
    16   40    8 1    
    17   10    9 ar   
    18   41    9 1    
    19   11   10 ar   
    20   42   10 1    
    21   12   11 1    
    22   13   12 1    
    23   43   12 1    
    24   44   12 1    
    25   14   13 1    
    26   45   13 1    
    27   46   13 1    
    28   15   14 1    
    29   47   14 1    
    30   16   15 1    
    31   48   15 1    
    32   49   15 1    
    33   17   16 2    
    34   18   16 am   
    35   19   18 1    
    36   50   18 1    
    37   20   19 1    
    38   21   19 1    
    39   51   19 1    
    40   63   20 1    
    41   64   20 1    
    42   65   20 1    
    43   22   21 2    
    44   23   21 am   
    45   24   23 1    
    46   26   23 1    
    47   25   24 1    
    48   52   24 1    
    49   53   24 1    
    50   28   25 1    
    51   54   25 1    
    52   55   25 1    
    53   27   26 1    
    54   56   26 1    
    55   57   26 1    
    56   28   27 2    
    57   58   27 1    
    58   29   28 1    
    59   30   29 ar   
    60   35   29 ar   
    61   31   30 ar   
    62   59   30 1    
    63   32   31 ar   
    64   60   31 1    
    65   33   32 1    
    66   34   32 ar   
    67   35   34 ar   
    68   61   34 1    
    69   62   35 1    
@<TRIPOS>SUBSTRUCTURE
     1 15S401      1 GROUP   
@<TRIPOS>SET

