#    Name: 1got_GDP_1_INTS_M
#    Modification time : Tue Mar 25 03:21:52 2014

@<TRIPOS>MOLECULE
1got_GDP_1_INTS_M
   74     0    12     0     0
SMALL
NO_CHARGES


@<TRIPOS>ATOM
      1 NZ         16.5040   34.5820   23.5645 N.4       3 LYC4        0.0000 
      2 NZ         15.1110   34.7940   23.3290 N.4      11 LYL4        0.0000 
      3 NZ         17.8970   34.3700   23.8000 N.4       7 LYP4        0.0000 
      4 N          14.3245   34.2455   24.5420 N.am      2 SEC2        0.0000 
      5 N          15.1110   34.7940   23.3290 N.am     10 SEL2        0.0000 
      6 N          13.5380   33.6970   25.7550 N.am      6 SEP2        0.0000 
      7 N          13.9740   35.4925   24.1470 N.am      2 SEC2        0.0000 
      8 N          12.8370   36.1910   24.9650 N.am      6 SEP2        0.0000 
      9 N          14.7775   36.2480   23.3190 N.am      2 SEC2        0.0000 
     10 N          14.4440   37.7020   23.3090 N.am      6 SEP2        0.0000 
     11 N          16.5040   34.5820   23.5645 N.am      2 SEC2        0.0000 
     12 N          17.8970   34.3700   23.8000 N.am      6 SEP2        0.0000 
     13 N          14.8195   36.3495   20.5605 N.am      2 SEC2        0.0000 
     14 N          14.9340   34.9630   20.7900 N.am     10 SEL2        0.0000 
     15 N          14.7050   37.7360   20.3310 N.am      6 SEP2        0.0000 
     16 N          15.0265   35.3915   19.4975 N.am      2 SEC2        0.0000 
     17 N          15.1190   35.8200   18.2050 N.am      6 SEP2        0.0000 
     18 N          14.4275   32.1125   23.0505 N.am      2 SEC2        0.0000 
     19 N          14.6890   32.7860   21.9520 N.am     10 SEL2        0.0000 
     20 N          14.1660   31.4390   24.1490 N.am      6 SEP2        0.0000 
     21 N          12.9075   35.2825   23.6150 N.am      2 SEC2        0.0000 
     22 N          12.9780   34.3740   22.2650 N.am     10 SEL2        0.0000 
     23 N          12.1645   37.6790   20.3995 N.am      2 SEC2        0.0000 
     24 N          12.0800   36.4180   21.1070 N.am     10 SEL2        0.0000 
     25 N          12.2490   38.9400   19.6920 N.am      6 SEP2        0.0000 
     26 N          10.9535   37.1735   20.8225 N.am      2 SEC2        0.0000 
     27 N           9.8270   37.9290   20.5380 N.am      6 SEP2        0.0000 
     28 CA         10.6405   31.6510   22.9175 C.3       4 GLC5        0.0000 
     29 CA         10.0820   33.2930   22.2140 C.3      12 GLL5        0.0000 
     30 CA         11.1990   30.0090   23.6210 C.3       8 GLP5        0.0000 
     31 CA         10.0875   31.8390   20.7920 C.3       4 GLC5        0.0000 
     32 CA         10.0930   30.3850   19.3700 C.3       8 GLP5        0.0000 
     33 CA          6.9700   32.5020   23.0515 C.3       4 GLC5        0.0000 
     34 CA          8.5260   33.2860   22.0150 C.3      12 GLL5        0.0000 
     35 CA          5.4140   31.7180   24.0880 C.3       8 GLP5        0.0000 
     36 O           6.0520   33.5405   18.8680 O.2       1 ALC1        0.0000 
     37 O           6.9780   33.2240   20.1220 O.2       9 ALL1        0.0000 
     38 O           5.1260   33.8570   17.6140 O.2       5 ALP1        0.0000 
     39 O           6.8075   36.8080   19.1230 O.2       1 ALC1        0.0000 
     40 O           6.8170   35.9370   20.1970 O.2       9 ALL1        0.0000 
     41 O           6.7980   37.6790   18.0490 O.2       5 ALP1        0.0000 
     42 CA          6.2620   33.4005   23.2775 C.3       4 GLC5        0.0000 
     43 CA          7.1100   35.0830   22.4670 C.3      12 GLL5        0.0000 
     44 CA          7.6695   34.6775   24.4375 C.3       4 GLC5        0.0000 
     45 CA          8.2290   34.2720   26.4080 C.3       8 GLP5        0.0000 
     46 N           9.0370   38.2330   25.6685 N.am      2 SEC2        0.0000 
     47 N           8.1420   37.8950   24.5840 N.am     10 SEL2        0.0000 
     48 N           9.9320   38.5710   26.7530 N.am      6 SEP2        0.0000 
     49 CA          7.1255   36.8700   26.4555 C.3       4 GLC5        0.0000 
     50 CA          6.8090   37.7020   24.9240 C.3      12 GLL5        0.0000 
     51 CA          7.4420   36.0380   27.9870 C.3       8 GLP5        0.0000 
     52 CA          8.0530   39.3790   24.5560 C.3       4 GLC5        0.0000 
     53 CA          9.2970   41.0560   24.1880 C.3       8 GLP5        0.0000 
     54 N           6.9435   38.9830   28.0535 N.am      2 SEC2        0.0000 
     55 N           6.2650   39.2840   26.6560 N.am     10 SEL2        0.0000 
     56 N           7.6220   38.6820   29.4510 N.am      6 SEP2        0.0000 
     57 N           6.8670   40.5480   26.1355 N.am      2 SEC2        0.0000 
     58 N           7.4690   41.8120   25.6150 N.am      6 SEP2        0.0000 
     59 O           3.9290   38.1970   27.0985 O.2       1 ALC1        0.0000 
     60 O           4.6840   37.8540   25.8940 O.2       9 ALL1        0.0000 
     61 O           3.1740   38.5400   28.3030 O.2       5 ALP1        0.0000 
     62 O           3.0895   38.1450   26.4125 O.2       1 ALC1        0.0000 
     63 O           1.4950   38.4360   26.9310 O.2       5 ALP1        0.0000 
     64 O           2.2215   37.4595   26.0830 O.2       1 ALC1        0.0000 
     65 O           2.9480   36.4830   25.2350 O.2       9 ALL1        0.0000 
     66 CA          7.2475   35.4805   25.2865 C.3       4 GLC5        0.0000 
     67 CA          6.2660   36.6890   24.1650 C.3      12 GLL5        0.0000 
     68 CA          8.8908   32.5490   19.9310 C.3       4 GLC5        0.0000 
     69 CA          8.0570   33.9500   20.7090 C.3      12 GLL5        0.0000 
     70 CA          9.4900   31.4800   18.5000 C.3       8 GLP5        0.0000 
     71 CA          6.3317   37.0340   21.7105 C.3       4 GLC5        0.0000 
     72 CA          7.6830   35.3330   21.1290 C.3      12 GLL5        0.0000 
     73 CA          5.2670   38.8600   21.6230 C.3       8 GLP5        0.0000 
     74 CA          5.9023   38.0277   23.0837 C.3       4 GLC5        0.0000 
@<TRIPOS>BOND
@<TRIPOS>SUBSTRUCTURE
     1 ALC1       36 GROUP        1 X    ALC  0     ROOT ALC X 1
     2 SEC2        4 GROUP        1 X    SEC  0     **** SEC X 2
     3 LYC4        1 GROUP        1 X    LYC  0     **** LYC X 4
     4 GLC5       28 GROUP        1 X    GLC  0     **** GLC X 6
     5 ALP1       38 GROUP        1 Y    ALP  0     ROOT ALP Y 8
     6 SEP2        6 GROUP        1 Y    SEP  0     **** SEP Y 9
     7 LYP4        3 GROUP        1 Y    LYP  0     **** LYP Y 11
     8 GLP5       30 GROUP        1 Y    GLP  0     **** GLP Y 13
     9 ALL1       37 GROUP        1 Z    ALL  0     ROOT ALL Z 15
    10 SEL2        5 GROUP        1 Z    SEL  0     **** SEL Z 16
    11 LYL4        2 GROUP        1 Z    LYL  0     **** LYL Z 18
    12 GLL5       29 GROUP        1 Z    GLL  0     **** GLL Z 20
@<TRIPOS>SET

