#    Name: 1got_GDP_1_ligand
#    Modification time : Tue Mar 25 03:21:52 2014

@<TRIPOS>MOLECULE
1got_GDP_1_ligand
   40    42     1     0     0
SMALL
NO_CHARGES


@<TRIPOS>ATOM
      1 PB         14.5720   34.3110   22.0380 P.3       1 GDP355      0.0000 
      2 O1B        15.1110   34.7940   23.3290 O.co2     1 GDP355      0.0000 
      3 O2B        14.9340   34.9630   20.7900 O.co2     1 GDP355      0.0000 
      4 O3B        14.6890   32.7860   21.9520 O.co2     1 GDP355      0.0000 
      5 O3A        12.9780   34.3740   22.2650 O.3       1 GDP355      0.0000 
      6 PA         11.8980   34.9800   21.2030 P.3       1 GDP355      0.0000 
      7 O1A        12.0800   36.4180   21.1070 O.co2     1 GDP355      0.0000 
      8 O2A        11.9690   34.1350   20.0040 O.co2     1 GDP355      0.0000 
      9 O5'        10.6270   34.6320   22.1480 O.3       1 GDP355      0.0000 
     10 C5'        10.0820   33.2930   22.2140 C.3       1 GDP355      0.0000 
     11 C4'         8.5260   33.2860   22.0150 C.3       1 GDP355      0.0000 
     12 O4'         7.8260   33.9680   23.0360 O.3       1 GDP355      0.0000 
     13 C3'         8.0570   33.9500   20.7090 C.3       1 GDP355      0.0000 
     14 O3'         6.9780   33.2240   20.1220 O.3       1 GDP355      0.0000 
     15 C2'         7.6830   35.3330   21.1290 C.3       1 GDP355      0.0000 
     16 O2'         6.8170   35.9370   20.1970 O.3       1 GDP355      0.0000 
     17 C1'         7.1100   35.0830   22.4670 C.3       1 GDP355      0.0000 
     18 N9          7.2500   36.2470   23.3470 N.pl3     1 GDP355      0.0000 
     19 C8          8.3310   37.0060   23.6650 C.2       1 GDP355      0.0000 
     20 N7          8.1420   37.8950   24.5840 N.2       1 GDP355      0.0000 
     21 C5          6.8090   37.7020   24.9240 C.2       1 GDP355      0.0000 
     22 C6          5.9840   38.3710   25.8800 C.2       1 GDP355      0.0000 
     23 O6          6.2650   39.2840   26.6560 O.2       1 GDP355      0.0000 
     24 N1          4.6840   37.8540   25.8940 N.am      1 GDP355      0.0000 
     25 C2          4.2220   36.8360   25.0830 C.2       1 GDP355      0.0000 
     26 N2          2.9480   36.4830   25.2350 N.pl3     1 GDP355      0.0000 
     27 N3          4.9880   36.2070   24.1830 N.2       1 GDP355      0.0000 
     28 C4          6.2660   36.6890   24.1650 C.2       1 GDP355      0.0000 
     29 H          10.2815   32.8202   23.1854 H         1 GDP355      0.0000 
     30 H          10.5059   32.6427   21.4367 H         1 GDP355      0.0000 
     31 H           8.1988   32.2416   21.9681 H         1 GDP355      0.0000 
     32 H           8.9203   34.0092   20.0676 H         1 GDP355      0.0000 
     33 H           8.6139   35.8762   21.2603 H         1 GDP355      0.0000 
     34 H           6.0662   34.8243   22.3609 H         1 GDP355      0.0000 
     35 H           9.2231   36.8576   23.1884 H         1 GDP355      0.0000 
     36 H           4.0005   38.2851   26.5889 H         1 GDP355      0.0000 
     37 H           2.4358   36.9758   25.9384 H         1 GDP355      0.0000 
     38 H           2.6177   35.7567   24.6322 H         1 GDP355      0.0000 
     39 H           6.3923   33.9208   19.7081 H         1 GDP355      0.0000 
     40 H           7.3930   36.5721   19.6825 H         1 GDP355      0.0000 
@<TRIPOS>BOND
     1    2    1 ar   
     2    3    1 ar   
     3    4    1 ar   
     4    5    1 1    
     5    6    5 1    
     6    7    6 ar   
     7    8    6 ar   
     8    9    6 1    
     9   10    9 1    
    10   11   10 1    
    11   29   10 1    
    12   30   10 1    
    13   12   11 1    
    14   13   11 1    
    15   31   11 1    
    16   17   12 1    
    17   14   13 1    
    18   15   13 1    
    19   32   13 1    
    20   39   14 1    
    21   16   15 1    
    22   17   15 1    
    23   33   15 1    
    24   40   16 1    
    25   18   17 1    
    26   34   17 1    
    27   19   18 1    
    28   28   18 1    
    29   20   19 2    
    30   35   19 1    
    31   21   20 1    
    32   22   21 1    
    33   28   21 2    
    34   23   22 2    
    35   24   22 am   
    36   25   24 1    
    37   36   24 1    
    38   26   25 1    
    39   27   25 2    
    40   37   26 1    
    41   38   26 1    
    42   28   27 1    
@<TRIPOS>SUBSTRUCTURE
     1 GDP355      1 GROUP   
@<TRIPOS>SET

