#    Name: 4acc_7YG_2_INTS_M
#    Modification time : Tue Mar 25 05:26:55 2014

@<TRIPOS>MOLECULE
4acc_7YG_2_INTS_M
   56     0     9     0     0
SMALL
NO_CHARGES


@<TRIPOS>ATOM
      1 CA         -2.5560   -3.9065   31.5470 C.3       3 GLC5        0.0000 
      2 CA         -1.8550   -1.9880   32.0830 C.3       9 GLL5        0.0000 
      3 CA         -3.2570   -5.8250   31.0110 C.3       6 GLP5        0.0000 
      4 CA         -0.2240   -3.4520   38.1850 C.3       3 GLC5        0.0000 
      5 CA          0.6280   -4.1730   36.2420 C.3       9 GLL5        0.0000 
      6 CA         -1.0760   -2.7310   40.1280 C.3       6 GLP5        0.0000 
      7 CA          2.5405   -2.6055   34.5730 C.3       3 GLC5        0.0000 
      8 CA          0.9320   -3.6900   33.5380 C.3       9 GLL5        0.0000 
      9 CA          4.1490   -1.5210   35.6080 C.3       6 GLP5        0.0000 
     10 CA          0.0065   -8.0675   38.8160 C.3       3 GLC5        0.0000 
     11 CA          0.8690   -6.9930   37.1370 C.3       9 GLL5        0.0000 
     12 CA         -0.8560   -9.1420   40.4950 C.3       6 GLP5        0.0000 
     13 CA          2.6015   -6.9640   37.8245 C.3       3 GLC5        0.0000 
     14 CA          4.3340   -6.9350   38.5120 C.3       6 GLP5        0.0000 
     15 N           0.7865   -7.5995   39.2370 N.am      2 SEC2        0.0000 
     16 N           1.2060   -8.1780   37.6670 N.am      8 SEL2        0.0000 
     17 N           0.3670   -7.0210   40.8070 N.am      5 SEP2        0.0000 
     18 CA          1.3210   -9.4890   34.1605 C.3       3 GLC5        0.0000 
     19 CA          2.5110   -8.4990   35.7110 C.3       9 GLL5        0.0000 
     20 CA          0.1310  -10.4790   32.6100 C.3       6 GLP5        0.0000 
     21 CA          4.7045   -8.0125   35.7255 C.3       3 GLC5        0.0000 
     22 CA          6.8980   -7.5260   35.7400 C.3       6 GLP5        0.0000 
     23 CA          5.7340   -8.3600   34.2000 C.3       3 GLC5        0.0000 
     24 CA          4.5700   -9.1940   32.6600 C.3       9 GLL5        0.0000 
     25 CA          5.8270  -12.0835   30.4170 C.3       3 GLC5        0.0000 
     26 CA          6.0630  -10.1070   30.5930 C.3       9 GLL5        0.0000 
     27 CA          5.5910  -14.0600   30.2410 C.3       6 GLP5        0.0000 
     28 N           6.3300  -12.2025   31.1660 N.am      2 SEC2        0.0000 
     29 N           5.8110  -10.9610   31.5960 N.am      8 SEL2        0.0000 
     30 N           6.8490  -13.4440   30.7360 N.am      5 SEP2        0.0000 
     31 CA          4.8840  -12.4810   31.9935 C.3       3 GLC5        0.0000 
     32 CA          5.0670  -10.4830   32.6080 C.3       9 GLL5        0.0000 
     33 CA          4.7010  -14.4790   31.3790 C.3       6 GLP5        0.0000 
     34 O           1.8660  -10.5450   38.7550 O.2       1 ALC1        0.0000 
     35 O           2.3960  -10.1990   37.4560 O.2       7 ALL1        0.0000 
     36 O           1.3360  -10.8910   40.0540 O.2       4 ALP1        0.0000 
     37 CA          2.3339   -2.5060   35.6295 C.3       3 GLC5        0.0000 
     38 CA          0.3330   -2.9270   35.7370 C.3       9 GLL5        0.0000 
     39 CA         -0.4320   -6.2830   34.5817 C.3       3 GLC5        0.0000 
     40 CA          1.0680   -5.1980   35.4180 C.3       9 GLL5        0.0000 
     41 CA         -2.0080   -7.5020   34.4220 C.3       6 GLP5        0.0000 
     42 CA         -0.4437   -7.1305   35.4800 C.3       3 GLC5        0.0000 
     43 CA          1.3720   -6.5250   35.9390 C.3       9 GLL5        0.0000 
     44 CA          2.9020   -5.2281   36.5532 C.3       3 GLC5        0.0000 
     45 CA          4.6940   -4.8510   37.2220 C.3       6 GLP5        0.0000 
     46 CA          0.7620   -9.9690   36.4725 C.3       3 GLC5        0.0000 
     47 CA         -0.7510  -11.2160   36.6180 C.3       6 GLP5        0.0000 
     48 CA          3.3045   -7.8285   37.4195 C.3       3 GLC5        0.0000 
     49 CA          2.0390   -8.9450   36.9430 C.3       9 GLL5        0.0000 
     50 CA          3.7662  -10.1148   30.6298 C.3       3 GLC5        0.0000 
     51 CA          1.6930  -10.7760   30.6880 C.3       6 GLP5        0.0000 
     52 CA          7.4257   -9.5907   31.5718 C.3       3 GLC5        0.0000 
     53 CA          5.6160   -8.8000   30.5500 C.3       9 GLL5        0.0000 
     54 CA          9.0120   -9.7280   32.5720 C.3       6 GLP5        0.0000 
     55 CA          3.2905  -10.2009   31.5292 C.3       3 GLC5        0.0000 
     56 CA          6.9500   -9.6769   32.4712 C.3       3 GLC5        0.0000 
@<TRIPOS>BOND
@<TRIPOS>SUBSTRUCTURE
     1 ALC1       34 GROUP        1 X    ALC  0     ROOT ALC X 1
     2 SEC2       15 GROUP        1 X    SEC  0     **** SEC X 2
     3 GLC5        1 GROUP        1 X    GLC  0     **** GLC X 6
     4 ALP1       36 GROUP        1 Y    ALP  0     ROOT ALP Y 8
     5 SEP2       17 GROUP        1 Y    SEP  0     **** SEP Y 9
     6 GLP5        3 GROUP        1 Y    GLP  0     **** GLP Y 13
     7 ALL1       35 GROUP        1 Z    ALL  0     ROOT ALL Z 15
     8 SEL2       16 GROUP        1 Z    SEL  0     **** SEL Z 16
     9 GLL5        2 GROUP        1 Z    GLL  0     **** GLL Z 20
@<TRIPOS>SET

