#    Name: 4acc_7YG_2_ligand
#    Modification time : Tue Mar 25 05:26:55 2014

@<TRIPOS>MOLECULE
4acc_7YG_2_ligand
   55    57     1     0     0
SMALL
NO_CHARGES


@<TRIPOS>ATOM
      1 C1         -3.6160    1.0470   31.5450 C.3       1 7YG1386     0.0000 
      2 N2         -2.6060    0.0850   31.0380 N.4       1 7YG1386     0.0000 
      3 C3         -2.1940    0.3280   29.6330 C.3       1 7YG1386     0.0000 
      4 C4         -2.9880   -1.3230   31.3250 C.3       1 7YG1386     0.0000 
      5 C5         -1.8550   -1.9880   32.0830 C.3       1 7YG1386     0.0000 
      6 N6         -1.5830   -1.3200   33.3730 N.pl3     1 7YG1386     0.0000 
      7 S7          0.0790   -1.0720   33.7150 S.o2      1 7YG1386     0.0000 
      8 O8          0.8120   -0.8740   32.4750 O.2       1 7YG1386     0.0000 
      9 O9          0.2220   -0.1530   34.8280 O.2       1 7YG1386     0.0000 
     10 C10         0.4860   -2.6910   34.3830 C.ar      1 7YG1386     0.0000 
     11 C11         0.3330   -2.9270   35.7370 C.ar      1 7YG1386     0.0000 
     12 C12         0.6280   -4.1730   36.2420 C.ar      1 7YG1386     0.0000 
     13 C13         1.0680   -5.1980   35.4180 C.ar      1 7YG1386     0.0000 
     14 C14         1.2200   -4.9300   34.0650 C.ar      1 7YG1386     0.0000 
     15 C15         0.9320   -3.6900   33.5380 C.ar      1 7YG1386     0.0000 
     16 C16         1.3720   -6.5250   35.9390 C.ar      1 7YG1386     0.0000 
     17 C17         0.8690   -6.9930   37.1370 C.ar      1 7YG1386     0.0000 
     18 N18         1.2060   -8.1780   37.6670 N.ar      1 7YG1386     0.0000 
     19 C19         2.0390   -8.9450   36.9430 C.ar      1 7YG1386     0.0000 
     20 C20         2.5110   -8.4990   35.7110 C.ar      1 7YG1386     0.0000 
     21 N21         2.2040   -7.2880   35.2130 N.ar      1 7YG1386     0.0000 
     22 C22         3.4260   -9.3140   34.8760 C.2       1 7YG1386     0.0000 
     23 O23         3.8240  -10.4090   35.2460 O.2       1 7YG1386     0.0000 
     24 N24         3.7720   -8.6910   33.6980 N.am      1 7YG1386     0.0000 
     25 C25         4.5700   -9.1940   32.6600 C.ar      1 7YG1386     0.0000 
     26 C26         4.8480   -8.3430   31.6060 C.ar      1 7YG1386     0.0000 
     27 C27         5.6160   -8.8000   30.5500 C.ar      1 7YG1386     0.0000 
     28 C28         6.0630  -10.1070   30.5930 C.ar      1 7YG1386     0.0000 
     29 N29         5.8110  -10.9610   31.5960 N.ar      1 7YG1386     0.0000 
     30 C30         5.0670  -10.4830   32.6080 C.ar      1 7YG1386     0.0000 
     31 N31         2.3960  -10.1990   37.4560 N.pl3     1 7YG1386     0.0000 
     32 H          -1.6638    0.2755   31.6754 H         1 7YG1386     0.0000 
     33 H          -3.1602   -1.8626   30.3990 H         1 7YG1386     0.0000 
     34 H          -3.8870   -1.3528   31.9326 H         1 7YG1386     0.0000 
     35 H          -0.9537   -1.9731   31.4511 H         1 7YG1386     0.0000 
     36 H          -2.1173   -3.0439   32.2509 H         1 7YG1386     0.0000 
     37 H          -2.1744   -1.0196   34.0157 H         1 7YG1386     0.0000 
     38 H           0.0023   -2.1779   36.3573 H         1 7YG1386     0.0000 
     39 H           0.5203   -4.3538   37.2606 H         1 7YG1386     0.0000 
     40 H           1.5604   -5.6877   33.4358 H         1 7YG1386     0.0000 
     41 H           1.0459   -3.5091   32.5361 H         1 7YG1386     0.0000 
     42 H           0.1808   -6.3701   37.6527 H         1 7YG1386     0.0000 
     43 H           3.3852   -7.6891   33.5451 H         1 7YG1386     0.0000 
     44 H           4.4883   -7.3819   31.6069 H         1 7YG1386     0.0000 
     45 H           5.8440   -8.1929   29.7672 H         1 7YG1386     0.0000 
     46 H           6.6470  -10.4440   29.7641 H         1 7YG1386     0.0000 
     47 H           4.8377  -11.1240   33.4272 H         1 7YG1386     0.0000 
     48 H           2.0118  -10.4349   38.3486 H         1 7YG1386     0.0000 
     49 H           3.0044  -10.7508   36.8856 H         1 7YG1386     0.0000 
     50 H          -3.8687    0.8548   32.4933 H         1 7YG1386     0.0000 
     51 H          -3.2796    1.9883   31.5163 H         1 7YG1386     0.0000 
     52 H          -4.4579    1.0201   31.0060 H         1 7YG1386     0.0000 
     53 H          -1.7934    1.2367   29.5153 H         1 7YG1386     0.0000 
     54 H          -1.5114   -0.3352   29.3261 H         1 7YG1386     0.0000 
     55 H          -2.9679    0.2650   29.0028 H         1 7YG1386     0.0000 
@<TRIPOS>BOND
     1    2    1 1    
     2   50    1 1    
     3   51    1 1    
     4   52    1 1    
     5    3    2 1    
     6    4    2 1    
     7   32    2 1    
     8   53    3 1    
     9   54    3 1    
    10   55    3 1    
    11    5    4 1    
    12   33    4 1    
    13   34    4 1    
    14    6    5 1    
    15   35    5 1    
    16   36    5 1    
    17    7    6 1    
    18   37    6 1    
    19    8    7 2    
    20    9    7 2    
    21   10    7 1    
    22   11   10 ar   
    23   15   10 ar   
    24   12   11 ar   
    25   38   11 1    
    26   13   12 ar   
    27   39   12 1    
    28   14   13 ar   
    29   16   13 1    
    30   15   14 ar   
    31   40   14 1    
    32   41   15 1    
    33   17   16 ar   
    34   21   16 ar   
    35   18   17 ar   
    36   42   17 1    
    37   19   18 ar   
    38   20   19 ar   
    39   31   19 1    
    40   21   20 ar   
    41   22   20 1    
    42   23   22 2    
    43   24   22 am   
    44   25   24 1    
    45   43   24 1    
    46   26   25 ar   
    47   30   25 ar   
    48   27   26 ar   
    49   44   26 1    
    50   28   27 ar   
    51   45   27 1    
    52   29   28 ar   
    53   46   28 1    
    54   30   29 ar   
    55   47   30 1    
    56   48   31 1    
    57   49   31 1    
@<TRIPOS>SUBSTRUCTURE
     1 7YG1386     1 GROUP   
@<TRIPOS>SET

