#    Name: 2hiw_7MP_2_INTS_M
#    Modification time : Tue Mar 25 16:33:06 2014

@<TRIPOS>MOLECULE
2hiw_7MP_2_INTS_M
  101     0     9     0     0
SMALL
NO_CHARGES


@<TRIPOS>ATOM
      1 CA         34.8090   28.3025    6.2680 C.3       3 GLC5        0.0000 
      2 CA         33.0890   27.9850    5.6100 C.3       9 GLL5        0.0000 
      3 CA         36.5290   28.6200    6.9260 C.3       6 GLP5        0.0000 
      4 CA         33.1220   29.1020    4.4250 C.3       3 GLC5        0.0000 
      5 CA         33.1550   30.2190    3.2400 C.3       6 GLP5        0.0000 
      6 CA         33.4110   29.1000    7.1240 C.3       3 GLC5        0.0000 
      7 CA         33.7330   30.2150    8.6380 C.3       6 GLP5        0.0000 
      8 CA         31.2505   27.1045    5.7220 C.3       3 GLC5        0.0000 
      9 CA         29.4120   26.2240    5.8340 C.3       6 GLP5        0.0000 
     10 CA         35.2595   27.2665    6.7975 C.3       3 GLC5        0.0000 
     11 CA         33.9900   25.9130    6.6690 C.3       9 GLL5        0.0000 
     12 CA         36.1460   26.6670    6.3385 C.3       3 GLC5        0.0000 
     13 CA         35.7630   24.7140    5.7510 C.3       9 GLL5        0.0000 
     14 CA         36.1480   22.6130    5.5625 C.3       3 GLC5        0.0000 
     15 CA         36.5330   20.5120    5.3740 C.3       6 GLP5        0.0000 
     16 CA         34.5435   23.2975    5.1250 C.3       3 GLC5        0.0000 
     17 CA         33.3240   21.8810    4.4990 C.3       6 GLP5        0.0000 
     18 O          37.6690   23.4200    4.4305 O.2       1 ALC1        0.0000 
     19 O          36.6680   24.6060    4.7550 O.2       7 ALL1        0.0000 
     20 O          38.6700   22.2340    4.1060 O.2       4 ALP1        0.0000 
     21 N          36.8290   22.7480    6.8700 N.am      2 SEC2        0.0000 
     22 N          35.7130   23.7960    6.7600 N.am      8 SEL2        0.0000 
     23 N          37.9450   21.7000    6.9800 N.am      5 SEP2        0.0000 
     24 CA         33.2345   22.5810    8.5595 C.3       3 GLC5        0.0000 
     25 CA         34.8120   23.9070    7.7590 C.3       9 GLL5        0.0000 
     26 CA         31.6570   21.2550    9.3600 C.3       6 GLP5        0.0000 
     27 CA         34.1045   23.2500    9.6690 C.3       3 GLC5        0.0000 
     28 CA         33.3970   22.5930   11.5790 C.3       6 GLP5        0.0000 
     29 CA         36.7675   23.2995    8.4030 C.3       3 GLC5        0.0000 
     30 CA         38.7230   22.6920    9.0470 C.3       6 GLP5        0.0000 
     31 CA         35.2410   21.8715    7.1025 C.3       3 GLC5        0.0000 
     32 CA         35.6700   19.8360    6.4460 C.3       6 GLP5        0.0000 
     33 CA         32.3255   23.3125    8.9050 C.3       3 GLC5        0.0000 
     34 CA         32.9940   25.3700    8.4500 C.3       9 GLL5        0.0000 
     35 CA         33.1955   23.9815   10.0145 C.3       3 GLC5        0.0000 
     36 CA         33.2500   29.0050    9.8245 C.3       3 GLC5        0.0000 
     37 CA         32.7670   27.7950   11.0110 C.3       9 GLL5        0.0000 
     38 CA         34.5010   27.1960   10.4925 C.3       3 GLC5        0.0000 
     39 CA         36.2350   26.5970    9.9740 C.3       6 GLP5        0.0000 
     40 CA         34.2400   28.8065   12.2305 C.3       3 GLC5        0.0000 
     41 CA         35.7130   29.8180   13.4500 C.3       6 GLP5        0.0000 
     42 CA         29.0335   28.5375   11.8600 C.3       3 GLC5        0.0000 
     43 CA         29.3700   26.4190   11.9190 C.3       9 GLL5        0.0000 
     44 CA         28.6970   30.6560   11.8010 C.3       6 GLP5        0.0000 
     45 N          27.0310   23.6605    7.7670 N.am      2 SEC2        0.0000 
     46 N          27.8680   23.9410    8.8460 N.am      8 SEL2        0.0000 
     47 N          26.1940   23.3800    6.6880 N.am      5 SEP2        0.0000 
     48 CA         26.7300   23.9145   12.0975 C.3       3 GLC5        0.0000 
     49 CA         25.9750   23.6240   10.2170 C.3       9 GLL5        0.0000 
     50 CA         27.4850   24.2050   13.9780 C.3       6 GLP5        0.0000 
     51 CA         26.5140   21.7625    8.1960 C.3       3 GLC5        0.0000 
     52 CA         25.7330   22.3120    9.8310 C.3       9 GLL5        0.0000 
     53 CA         27.2950   21.2130    6.5610 C.3       6 GLP5        0.0000 
     54 CA         24.5580   26.1350   12.0125 C.3       3 GLC5        0.0000 
     55 CA         24.9810   24.3460   10.8840 C.3       9 GLL5        0.0000 
     56 CA         24.1350   27.9240   13.1410 C.3       6 GLP5        0.0000 
     57 CA         23.0970   20.0535    7.0390 C.3       3 GLC5        0.0000 
     58 CA         24.2520   20.3200    8.2960 C.3       9 GLL5        0.0000 
     59 CA         21.9420   19.7870    5.7820 C.3       6 GLP5        0.0000 
     60 CA         24.6010   19.1380    6.6620 C.3       3 GLC5        0.0000 
     61 CA         24.9500   17.9560    5.0280 C.3       6 GLP5        0.0000 
     62 CA         22.1090   18.1475    9.1590 C.3       3 GLC5        0.0000 
     63 CA         23.2050   19.7700   10.0730 C.3       9 GLL5        0.0000 
     64 CA         21.0130   16.5250    8.2450 C.3       6 GLP5        0.0000 
     65 CA         22.5735   19.7785    7.9275 C.3       3 GLC5        0.0000 
     66 CA         27.3625   20.3435   10.2335 C.3       3 GLC5        0.0000 
     67 CA         25.3260   19.5650   10.0020 C.3       9 GLL5        0.0000 
     68 CA         29.3990   21.1220   10.4650 C.3       6 GLP5        0.0000 
     69 CA         34.9631   25.8107    8.9672 C.3       3 GLC5        0.0000 
     70 CA         33.9390   24.9880    7.6970 C.3       9 GLL5        0.0000 
     71 CA         33.1606   23.5822    6.8987 C.3       3 GLC5        0.0000 
     72 CA         32.6300   22.1400    5.8370 C.3       6 GLP5        0.0000 
     73 CA         31.1929   28.9384   12.0630 C.3       3 GLC5        0.0000 
     74 CA         31.4700   27.0340   10.9090 C.3       9 GLL5        0.0000 
     75 CA         31.0400   30.6160   12.6600 C.3       6 GLP5        0.0000 
     76 CA         30.0042   26.8810   13.6958 C.3       3 GLC5        0.0000 
     77 CA         30.5730   27.1070   11.9720 C.3       9 GLL5        0.0000 
     78 CA         30.0370   26.9990   15.4460 C.3       6 GLP5        0.0000 
     79 CA         32.3722   25.4710   11.8999 C.3       3 GLC5        0.0000 
     80 CA         33.4370   23.7790   12.4730 C.3       6 GLP5        0.0000 
     81 CA         28.3480   25.1177   12.6698 C.3       3 GLC5        0.0000 
     82 CA         27.6265   22.0450   10.2445 C.3       3 GLC5        0.0000 
     83 CA         24.8845   23.5040    8.6490 C.3       3 GLC5        0.0000 
     84 CA         23.9150   24.0400    7.2740 C.3       6 GLP5        0.0000 
     85 CA         25.2610   23.5500   12.6717 C.3       3 GLC5        0.0000 
     86 CA         26.1570   23.0530   14.3290 C.3       6 GLP5        0.0000 
     87 CA         24.1400   24.0435    9.1442 C.3       3 GLC5        0.0000 
     88 CA         22.4168   22.5592   12.6640 C.3       3 GLC5        0.0000 
     89 CA         23.7490   23.7480   11.1450 C.3       9 GLL5        0.0000 
     90 CA         21.2060   22.0290   14.3870 C.3       6 GLP5        0.0000 
     91 CA         24.1227   20.4740   11.6890 C.3       3 GLC5        0.0000 
     92 CA         23.5060   22.4310   10.7370 C.3       9 GLL5        0.0000 
     93 CA         24.2400   18.8760   12.9700 C.3       6 GLP5        0.0000 
     94 CA         23.9603   23.0560    8.8410 C.3       3 GLC5        0.0000 
     95 CA         24.5050   21.7130   10.0790 C.3       9 GLL5        0.0000 
     96 CA         24.0985   22.1758    8.1135 C.3       3 GLC5        0.0000 
     97 CA         24.3911   19.3384   11.4459 C.3       3 GLC5        0.0000 
     98 CA         24.3120   20.3030    9.6100 C.3       9 GLL5        0.0000 
     99 CA         25.1520   18.0251    9.0742 C.3       3 GLC5        0.0000 
    100 CA         25.5000   16.1120    8.6710 C.3       6 GLP5        0.0000 
    101 CA         26.0495   20.5756    8.0192 C.3       3 GLC5        0.0000 
@<TRIPOS>BOND
@<TRIPOS>SUBSTRUCTURE
     1 ALC1       18 GROUP        1 X    ALC  0     ROOT ALC X 1
     2 SEC2       21 GROUP        1 X    SEC  0     **** SEC X 2
     3 GLC5        1 GROUP        1 X    GLC  0     **** GLC X 6
     4 ALP1       20 GROUP        1 Y    ALP  0     ROOT ALP Y 8
     5 SEP2       23 GROUP        1 Y    SEP  0     **** SEP Y 9
     6 GLP5        3 GROUP        1 Y    GLP  0     **** GLP Y 13
     7 ALL1       19 GROUP        1 Z    ALL  0     ROOT ALL Z 15
     8 SEL2       22 GROUP        1 Z    SEL  0     **** SEL Z 16
     9 GLL5        2 GROUP        1 Z    GLL  0     **** GLL Z 20
@<TRIPOS>SET

