#    Name: 2hiw_7MP_2_ligand
#    Modification time : Tue Mar 25 16:33:06 2014

@<TRIPOS>MOLECULE
2hiw_7MP_2_ligand
   51    54     1     0     0
SMALL
NO_CHARGES


@<TRIPOS>ATOM
      1 OAK        31.2590   28.0970    7.7510 O.2       1 7MP531      0.0000 
      2 CAH        32.0760   27.1340    7.7400 C.2       1 7MP531      0.0000 
      3 NAG        33.0500   26.9910    6.6870 N.am      1 7MP531      0.0000 
      4 CAT        33.0890   27.9850    5.6100 C.3       1 7MP531      0.0000 
      5 C4         33.9900   25.9130    6.6690 C.ar      1 7MP531      0.0000 
      6 N3         34.9100   25.7650    5.7020 N.ar      1 7MP531      0.0000 
      7 C2         35.7630   24.7140    5.7510 C.ar      1 7MP531      0.0000 
      8 NAS        36.6680   24.6060    4.7550 N.pl3     1 7MP531      0.0000 
      9 N1         35.7130   23.7960    6.7600 N.ar      1 7MP531      0.0000 
     10 C6         34.8120   23.9070    7.7590 C.ar      1 7MP531      0.0000 
     11 C5         33.9390   24.9880    7.6970 C.ar      1 7MP531      0.0000 
     12 CAJ        32.9940   25.3700    8.4500 C.2       1 7MP531      0.0000 
     13 NAI        32.0650   26.2010    8.7120 N.am      1 7MP531      0.0000 
     14 CAL        31.1640   26.2520    9.7950 C.ar      1 7MP531      0.0000 
     15 CAQ        31.4700   27.0340   10.9090 C.ar      1 7MP531      0.0000 
     16 CAR        32.7670   27.7950   11.0110 C.3       1 7MP531      0.0000 
     17 CAP        30.5730   27.1070   11.9720 C.ar      1 7MP531      0.0000 
     18 CAO        29.3700   26.4190   11.9190 C.ar      1 7MP531      0.0000 
     19 CAM        29.9460   25.5660    9.7330 C.ar      1 7MP531      0.0000 
     20 CAN        29.0520   25.6420   10.8040 C.ar      1 7MP531      0.0000 
     21 NAU        27.8530   25.0010   10.8340 N.am      1 7MP531      0.0000 
     22 CAV        27.3200   24.2130    9.9110 C.2       1 7MP531      0.0000 
     23 OAW        27.8680   23.9410    8.8460 O.2       1 7MP531      0.0000 
     24 CAX        25.9750   23.6240   10.2170 C.ar      1 7MP531      0.0000 
     25 CBC        25.7330   22.3120    9.8310 C.ar      1 7MP531      0.0000 
     26 CAY        24.9810   24.3460   10.8840 C.ar      1 7MP531      0.0000 
     27 CAZ        23.7490   23.7480   11.1450 C.ar      1 7MP531      0.0000 
     28 CBA        23.5060   22.4310   10.7370 C.ar      1 7MP531      0.0000 
     29 CBB        24.5050   21.7130   10.0790 C.ar      1 7MP531      0.0000 
     30 CBD        24.3120   20.3030    9.6100 C.3       1 7MP531      0.0000 
     31 FBE        24.2520   20.3200    8.2960 F         1 7MP531      0.0000 
     32 FBF        23.2050   19.7700   10.0730 F         1 7MP531      0.0000 
     33 FBG        25.3260   19.5650   10.0020 F         1 7MP531      0.0000 
     34 H          36.6243   25.3067    4.0428 H         1 7MP531      0.0000 
     35 H          37.3017   23.8349    4.8179 H         1 7MP531      0.0000 
     36 H          34.7583   23.2462    8.5247 H         1 7MP531      0.0000 
     37 H          32.9526   24.5202    9.3928 H         1 7MP531      0.0000 
     38 H          30.8064   27.6747   12.7993 H         1 7MP531      0.0000 
     39 H          28.7056   26.4791   12.7039 H         1 7MP531      0.0000 
     40 H          29.7116   25.0105    8.9053 H         1 7MP531      0.0000 
     41 H          27.2587   25.1656   11.7466 H         1 7MP531      0.0000 
     42 H          26.4765   21.7746    9.3530 H         1 7MP531      0.0000 
     43 H          25.1589   25.3110   11.1792 H         1 7MP531      0.0000 
     44 H          23.0161   24.2727   11.6377 H         1 7MP531      0.0000 
     45 H          22.5962   21.9975   10.9221 H         1 7MP531      0.0000 
     46 H          33.2742   28.9037    5.9590 H         1 7MP531      0.0000 
     47 H          33.8006   27.7775    4.9387 H         1 7MP531      0.0000 
     48 H          32.2219   28.0292    5.1138 H         1 7MP531      0.0000 
     49 H          33.5592   27.1863   10.9676 H         1 7MP531      0.0000 
     50 H          32.8670   28.4594   10.2704 H         1 7MP531      0.0000 
     51 H          32.8336   28.3019   11.8704 H         1 7MP531      0.0000 
@<TRIPOS>BOND
     1    2    1 2    
     2    3    2 am   
     3   13    2 am   
     4    4    3 1    
     5    5    3 2    
     6   46    4 1    
     7   47    4 1    
     8   48    4 1    
     9    6    5 ar   
    10   11    5 ar   
    11    7    6 ar   
    12    8    7 1    
    13    9    7 ar   
    14   34    8 1    
    15   35    8 1    
    16   10    9 ar   
    17   11   10 ar   
    18   36   10 1    
    19   12   11 2    
    20   13   12 1    
    21   37   12 1    
    22   14   13 1    
    23   15   14 ar   
    24   19   14 ar   
    25   16   15 1    
    26   17   15 ar   
    27   49   16 1    
    28   50   16 1    
    29   51   16 1    
    30   18   17 ar   
    31   38   17 1    
    32   20   18 ar   
    33   39   18 1    
    34   20   19 ar   
    35   40   19 1    
    36   21   20 1    
    37   22   21 am   
    38   41   21 1    
    39   23   22 2    
    40   24   22 1    
    41   25   24 ar   
    42   26   24 ar   
    43   29   25 ar   
    44   42   25 1    
    45   27   26 ar   
    46   43   26 1    
    47   28   27 ar   
    48   44   27 1    
    49   29   28 ar   
    50   45   28 1    
    51   30   29 1    
    52   31   30 1    
    53   32   30 1    
    54   33   30 1    
@<TRIPOS>SUBSTRUCTURE
     1 7MP531      1 GROUP   
@<TRIPOS>SET

