#    Name: 3zt3_ZT4_1_INTS_M
#    Modification time : Tue Mar 25 03:59:12 2014

@<TRIPOS>MOLECULE
3zt3_ZT4_1_INTS_M
   53     0     6     0     0
SMALL
NO_CHARGES


@<TRIPOS>ATOM
      1 CA        -31.3350   27.5875    2.1320 C.3       2 GLC5        0.0000 
      2 CA        -30.8300   28.9060    0.8530 C.3       6 GLL5        0.0000 
      3 CA        -31.8400   26.2690    3.4110 C.3       4 GLP5        0.0000 
      4 CA        -30.6050   34.1415   -0.1530 C.3       2 GLC5        0.0000 
      5 CA        -32.0970   34.6550    1.3260 C.3       6 GLL5        0.0000 
      6 CA        -29.1130   33.6280   -1.6320 C.3       4 GLP5        0.0000 
      7 CA        -29.1585   36.8045    2.6860 C.3       2 GLC5        0.0000 
      8 CA        -30.7460   35.8440    2.5540 C.3       6 GLL5        0.0000 
      9 CA        -27.5710   37.7650    2.8180 C.3       4 GLP5        0.0000 
     10 CA        -32.5275   35.6325    3.7780 C.3       2 GLC5        0.0000 
     11 CA        -34.3090   35.4210    5.0020 C.3       4 GLP5        0.0000 
     12 CA        -29.1100   34.6360    2.6065 C.3       2 GLC5        0.0000 
     13 CA        -27.4740   33.4280    2.6590 C.3       4 GLP5        0.0000 
     14 N         -31.7190   36.3545   -2.5265 N.am      1 SEC2        0.0000 
     15 N         -31.8600   35.3140   -1.5410 N.am      5 SEL2        0.0000 
     16 N         -31.5780   37.3950   -3.5120 N.am      3 SEP2        0.0000 
     17 N         -32.0920   36.8720   -0.9415 N.am      1 SEC2        0.0000 
     18 N         -32.3240   38.4300   -0.3420 N.am      3 SEP2        0.0000 
     19 N         -30.6660   34.8810   -1.0205 N.am      1 SEC2        0.0000 
     20 N         -29.4720   34.4480   -0.5000 N.am      3 SEP2        0.0000 
     21 N         -33.7420   35.0615   -3.0175 N.am      1 SEC2        0.0000 
     22 N         -33.9150   34.5140   -1.7120 N.am      5 SEL2        0.0000 
     23 N         -33.5690   35.6090   -4.3230 N.am      3 SEP2        0.0000 
     24 N         -31.8760   37.1445    0.4710 N.am      1 SEC2        0.0000 
     25 N         -31.4280   35.8590    1.2840 N.am      5 SEL2        0.0000 
     26 CA        -30.4935   30.7960   -0.4040 C.3       2 GLC5        0.0000 
     27 CA        -31.7000   29.9440    0.5690 C.3       6 GLL5        0.0000 
     28 CA        -29.7220   32.1670   -1.5190 C.3       4 GLP5        0.0000 
     29 CA        -30.9470   28.2010   -1.9280 C.3       2 GLC5        0.0000 
     30 CA        -30.9620   27.6980    0.2230 C.3       6 GLL5        0.0000 
     31 CA        -30.4170   28.8000   -3.6300 C.3       4 GLP5        0.0000 
     32 CA        -31.9690   26.4555    1.0570 C.3       2 GLC5        0.0000 
     33 CA        -31.9920   27.5060   -0.6750 C.3       6 GLL5        0.0000 
     34 CA        -32.4610   25.3090    2.3400 C.3       4 GLP5        0.0000 
     35 CA        -31.4935   25.8050   -0.9055 C.3       2 GLC5        0.0000 
     36 CA        -31.5100   24.0080   -1.5850 C.3       4 GLP5        0.0000 
     37 CA        -29.2945   29.2320    0.2463 C.3       2 GLC5        0.0000 
     38 CA        -27.2910   29.3410   -0.0610 C.3       4 GLP5        0.0000 
     39 CA        -32.8903   31.0267    3.7843 C.3       2 GLC5        0.0000 
     40 CA        -33.3270   32.2570    1.9100 C.3       6 GLL5        0.0000 
     41 CA        -32.7990   29.4520    5.1500 C.3       4 GLP5        0.0000 
     42 CA        -34.5142   31.5968    3.2453 C.3       2 GLC5        0.0000 
     43 CA        -32.6360   32.9460    2.9270 C.3       6 GLL5        0.0000 
     44 CA        -36.0470   30.5920    4.0720 C.3       4 GLP5        0.0000 
     45 CA        -30.5510   33.1972    3.7495 C.3       2 GLC5        0.0000 
     46 CA        -32.0140   34.1210    2.5610 C.3       6 GLL5        0.0000 
     47 CA        -28.7770   32.8610    4.7550 C.3       4 GLP5        0.0000 
     48 CA        -31.4888   31.2022   -1.0380 C.3       2 GLC5        0.0000 
     49 CA        -32.7350   29.7590   -0.3190 C.3       6 GLL5        0.0000 
     50 CA        -31.4008   32.7862   -0.5265 C.3       2 GLC5        0.0000 
     51 CA        -33.3900   32.7840    0.6220 C.3       6 GLL5        0.0000 
     52 CA        -33.2600   34.7576    3.5185 C.3       2 GLC5        0.0000 
     53 CA        -31.9135   28.8178   -2.4414 C.3       2 GLC5        0.0000 
@<TRIPOS>BOND
@<TRIPOS>SUBSTRUCTURE
     1 SEC2       14 GROUP        1 X    SEC  0     ROOT SEC X 2
     2 GLC5        1 GROUP        1 X    GLC  0     **** GLC X 6
     3 SEP2       16 GROUP        1 Y    SEP  0     ROOT SEP Y 9
     4 GLP5        3 GROUP        1 Y    GLP  0     **** GLP Y 13
     5 SEL2       15 GROUP        1 Z    SEL  0     ROOT SEL Z 16
     6 GLL5        2 GROUP        1 Z    GLL  0     **** GLL Z 20
@<TRIPOS>SET

