#    Name: 3zt3_ZT4_1_ligand
#    Modification time : Tue Mar 25 03:59:12 2014

@<TRIPOS>MOLECULE
3zt3_ZT4_1_ligand
   36    39     1     0     0
SMALL
NO_CHARGES


@<TRIPOS>ATOM
      1 C1        -30.8300   28.9060    0.8530 C.ar      1 ZT41216     0.0000 
      2 C2        -30.9620   27.6980    0.2230 C.ar      1 ZT41216     0.0000 
      3 C3        -31.7000   29.9440    0.5690 C.ar      1 ZT41216     0.0000 
      4 C4        -33.3270   32.2570    1.9100 C.ar      1 ZT41216     0.0000 
      5 C5        -31.9920   27.5060   -0.6750 C.ar      1 ZT41216     0.0000 
      6 C6        -32.6360   32.9460    2.9270 C.ar      1 ZT41216     0.0000 
      7 C7        -32.7350   29.7590   -0.3190 C.ar      1 ZT41216     0.0000 
      8 C8        -33.3900   32.7840    0.6220 C.ar      1 ZT41216     0.0000 
      9 C9        -32.7690   34.0270    0.3100 C.ar      1 ZT41216     0.0000 
     10 C10       -32.8610   28.5410   -0.9320 C.ar      1 ZT41216     0.0000 
     11 C11       -32.0140   34.1210    2.5610 C.ar      1 ZT41216     0.0000 
     12 C12       -32.0970   34.6550    1.3260 C.ar      1 ZT41216     0.0000 
     13 C13       -33.7760   30.7160   -0.7950 C.2       1 ZT41216     0.0000 
     14 C14       -34.0950   32.0210   -0.4510 C.2       1 ZT41216     0.0000 
     15 C15       -32.8230   34.6480   -1.0660 C.2       1 ZT41216     0.0000 
     16 C16       -34.0220   28.5210   -1.8800 C.3       1 ZT41216     0.0000 
     17 C17       -30.7460   35.8440    2.5540 C.3       1 ZT41216     0.0000 
     18 C18       -34.4390   29.9960   -1.9620 C.3       1 ZT41216     0.0000 
     19 O19       -31.8600   35.3140   -1.5410 O.co2     1 ZT41216     0.0000 
     20 O20       -33.9150   34.5140   -1.7120 O.co2     1 ZT41216     0.0000 
     21 O21       -31.3070   34.9130    3.4250 O.3       1 ZT41216     0.0000 
     22 O22       -31.4280   35.8590    1.2840 O.3       1 ZT41216     0.0000 
     23 O23       -35.8220   30.1920   -1.8620 O.3       1 ZT41216     0.0000 
     24 H         -30.0756   29.0509    1.5484 H         1 ZT41216     0.0000 
     25 H         -30.2982   26.9327    0.4149 H         1 ZT41216     0.0000 
     26 H         -31.5690   30.8612    1.0277 H         1 ZT41216     0.0000 
     27 H         -33.7836   31.3632    2.1267 H         1 ZT41216     0.0000 
     28 H         -32.1069   26.5999   -1.1452 H         1 ZT41216     0.0000 
     29 H         -32.6069   32.5882    3.8633 H         1 ZT41216     0.0000 
     30 H         -34.8557   32.5313   -0.9385 H         1 ZT41216     0.0000 
     31 H         -34.8238   27.9533   -1.4788 H         1 ZT41216     0.0000 
     32 H         -33.7157   28.1908   -2.8409 H         1 ZT41216     0.0000 
     33 H         -29.6632   35.6306    2.3834 H         1 ZT41216     0.0000 
     34 H         -30.7726   36.8702    2.9938 H         1 ZT41216     0.0000 
     35 H         -34.0228   30.4110   -2.8666 H         1 ZT41216     0.0000 
     36 H         -35.9312   30.9296   -1.1956 H         1 ZT41216     0.0000 
@<TRIPOS>BOND
     1    2    1 ar   
     2    3    1 ar   
     3   24    1 1    
     4    5    2 ar   
     5   25    2 1    
     6    7    3 ar   
     7   26    3 1    
     8    6    4 ar   
     9    8    4 ar   
    10   27    4 1    
    11   10    5 ar   
    12   28    5 1    
    13   11    6 ar   
    14   29    6 1    
    15   10    7 ar   
    16   13    7 1    
    17    9    8 ar   
    18   14    8 1    
    19   12    9 ar   
    20   15    9 1    
    21   16   10 1    
    22   12   11 ar   
    23   21   11 1    
    24   22   12 1    
    25   14   13 2    
    26   18   13 1    
    27   30   14 1    
    28   19   15 ar   
    29   20   15 ar   
    30   18   16 1    
    31   31   16 1    
    32   32   16 1    
    33   21   17 1    
    34   22   17 1    
    35   33   17 1    
    36   34   17 1    
    37   23   18 1    
    38   35   18 1    
    39   36   23 1    
@<TRIPOS>SUBSTRUCTURE
     1 ZT41216     1 GROUP   
@<TRIPOS>SET

