#    Name: 4DLC_1_CAVITY_N1_ALL.mol2
#    Modification time : Mon Mar 10 14:15:13 2014

@<TRIPOS>MOLECULE
4DLC_1_CAVITY_N1_ALL.mol2
  112     0     7     0     0
SMALL
NO_CHARGES


@<TRIPOS>ATOM
      1 O           2.9272   22.3029   26.5756 O.2       2 ALA2        0.0000 
      2 O           2.6267   21.2780   27.6288 O.2       2 ALA2        0.0000 
      3 CA          4.2368   21.8550   24.3769 C.3       6 GLY6        0.0000 
      4 CA          2.5233   21.3269   25.5106 C.3       6 GLY6        0.0000 
      5 CA          2.2229   20.3020   26.5638 C.3       6 GLY6        0.0000 
      6 DU          1.9224   19.2770   27.6170 H         7 CUB7        0.0000 
      7 CA          1.1103   21.8238   25.5911 C.3       6 GLY6        0.0000 
      8 DU          0.8098   20.7989   26.6443 H         7 CUB7        0.0000 
      9 O          -1.4153   23.8426   24.6989 O.2       2 ALA2        0.0000 
     10 O          -2.8283   24.3395   24.7794 O.2       2 ALA2        0.0000 
     11 CA          3.8329   20.8790   23.3119 C.3       6 GLY6        0.0000 
     12 CA          3.5324   19.8540   24.3651 C.3       6 GLY6        0.0000 
     13 CA          3.2320   18.8291   25.4182 C.3       6 GLY6        0.0000 
     14 CA          2.9316   17.8041   26.4714 C.3       6 GLY6        0.0000 
     15 CA          2.4199   21.3759   23.3924 C.3       6 GLY6        0.0000 
     16 DU          2.1194   20.3509   24.4455 H         7 CUB7        0.0000 
     17 DU          1.8190   19.3260   25.4987 H         7 CUB7        0.0000 
     18 DU          1.5185   18.3010   26.5519 H         7 CUB7        0.0000 
     19 N           1.2181   17.2761   27.6051 N.2       2 ALA2        0.0000 
     20 CA          1.0069   21.8728   23.4728 C.3       6 GLY6        0.0000 
     21 CA          0.7064   20.8478   24.5260 C.3       6 GLY6        0.0000 
     22 DU          0.4060   19.8229   25.5792 H         7 CUB7        0.0000 
     23 DU          0.1055   18.7979   26.6324 H         7 CUB7        0.0000 
     24 CA         -0.4062   22.3697   23.5533 C.3       6 GLY6        0.0000 
     25 DU         -0.7066   21.3447   24.6065 H         7 CUB7        0.0000 
     26 DU         -1.0070   20.3198   25.6597 H         7 CUB7        0.0000 
     27 O          -1.8192   22.8666   23.6338 O.2       2 ALA2        0.0000 
     28 DU         -2.1196   21.8416   24.6870 H         7 CUB7        0.0000 
     29 O          -3.2322   23.3635   23.7143 O.2       2 ALA2        0.0000 
     30 CZ          3.4290   19.9030   22.2468 C.ar      5 PHE5        0.0000 
     31 CZ          2.5277   16.8281   25.4064 C.ar      5 PHE5        0.0000 
     32 N           2.3164   21.4249   21.2741 N.2       2 ALA2        0.0000 
     33 N           2.0160   20.3999   22.3273 N.2       2 ALA2        0.0000 
     34 CZ          1.7156   19.3750   23.3805 C.ar      5 PHE5        0.0000 
     35 CZ          1.4151   18.3500   24.4337 C.ar      5 PHE5        0.0000 
     36 CZ          1.1147   17.3250   25.4869 C.ar      5 PHE5        0.0000 
     37 CA          0.6030   20.8968   22.4078 C.3       6 GLY6        0.0000 
     38 CZ          0.3025   19.8718   23.4610 C.ar      5 PHE5        0.0000 
     39 CZ          0.0021   18.8469   24.5142 C.ar      5 PHE5        0.0000 
     40 CZ         -0.2983   17.8219   25.5673 C.ar      5 PHE5        0.0000 
     41 CA         -0.8100   21.3937   22.4883 C.3       6 GLY6        0.0000 
     42 DU         -1.1105   20.3687   23.5415 H         7 CUB7        0.0000 
     43 CZ         -1.4109   19.3438   24.5946 C.ar      5 PHE5        0.0000 
     44 CA         -1.9226   22.9155   21.5156 C.3       6 GLY6        0.0000 
     45 O          -2.2231   21.8906   22.5688 O.2       2 ALA2        0.0000 
     46 DU         -2.5235   20.8656   23.6220 H         7 CUB7        0.0000 
     47 DU         -2.8239   19.8407   24.6751 H         7 CUB7        0.0000 
     48 O          -3.3356   23.4124   21.5961 O.2       2 ALA2        0.0000 
     49 O          -3.6361   22.3875   22.6493 O.2       2 ALA2        0.0000 
     50 CZ         -3.9365   21.3625   23.7024 C.ar      5 PHE5        0.0000 
     51 N           1.6121   19.4239   21.2623 N.2       2 ALA2        0.0000 
     52 CZ          1.3117   18.3990   22.3154 C.ar      5 PHE5        0.0000 
     53 N           0.4995   20.9458   20.2896 N.2       2 ALA2        0.0000 
     54 N           0.1991   19.9208   21.3427 N.2       2 ALA2        0.0000 
     55 CZ         -0.1013   18.8959   22.3959 C.ar      5 PHE5        0.0000 
     56 CA         -0.9135   21.4427   20.3701 C.3       6 GLY6        0.0000 
     57 DU         -1.2139   20.4177   21.4232 H         7 CUB7        0.0000 
     58 CZ         -1.5144   19.3927   22.4764 C.ar      5 PHE5        0.0000 
     59 CA         -2.3265   21.9396   20.4505 C.3       6 GLY6        0.0000 
     60 DU         -2.6269   20.9146   21.5037 H         7 CUB7        0.0000 
     61 CZ         -2.9274   19.8896   22.5569 C.ar      5 PHE5        0.0000 
     62 CZ         -3.2278   18.8647   23.6101 C.ar      5 PHE5        0.0000 
     63 N          -3.7395   22.4365   20.5310 N.2       2 ALA2        0.0000 
     64 N          -4.0400   21.4115   21.5842 N.2       2 ALA2        0.0000 
     65 DU         -4.3404   20.3865   22.6374 H         7 CUB7        0.0000 
     66 DU         -4.6408   19.3616   23.6906 H         7 CUB7        0.0000 
     67 NZ         -4.9413   18.3366   24.7437 N.2       4 LYS4        0.0000 
     68 OD1        -5.2417   17.3116   25.7969 O.3       3 ASP3        0.0000 
     69 CZ         -5.4530   21.9084   21.6647 C.ar      5 PHE5        0.0000 
     70 CZ         -5.7534   20.8834   22.7179 C.ar      5 PHE5        0.0000 
     71 OG         -6.0539   19.8585   23.7711 O.2       1 SER1        0.0000 
     72 N           1.2082   18.4479   20.1972 N.2       2 ALA2        0.0000 
     73 CZ          0.9078   17.4230   21.2504 C.ar      5 PHE5        0.0000 
     74 N           0.0957   19.9698   19.2245 N.2       2 ALA2        0.0000 
     75 N          -0.2048   18.9448   20.2777 N.2       2 ALA2        0.0000 
     76 CA         -1.3174   20.4667   19.3050 C.3       6 GLY6        0.0000 
     77 DU         -1.6178   19.4417   20.3582 H         7 CUB7        0.0000 
     78 CZ         -1.9182   18.4168   21.4114 C.ar      5 PHE5        0.0000 
     79 CA         -2.7304   20.9636   19.3855 C.3       6 GLY6        0.0000 
     80 O          -3.0308   19.9386   20.4387 O.2       2 ALA2        0.0000 
     81 CZ         -3.3313   18.9137   21.4919 C.ar      5 PHE5        0.0000 
     82 N          -4.4438   20.4355   20.5192 N.2       2 ALA2        0.0000 
     83 N          -4.7443   19.4105   21.5723 N.2       2 ALA2        0.0000 
     84 CZ         -5.0447   18.3856   22.6255 C.ar      5 PHE5        0.0000 
     85 NZ         -5.3451   17.3606   23.6787 N.2       4 LYS4        0.0000 
     86 O          -6.1573   19.9074   21.6528 O.2       2 ALA2        0.0000 
     87 O          -6.4577   18.8825   22.7060 O.2       2 ALA2        0.0000 
     88 OD1        -6.7582   17.8575   23.7592 O.3       3 ASP3        0.0000 
     89 O          -7.8707   19.3794   22.7865 O.2       2 ALA2        0.0000 
     90 OD1        -8.1712   18.3544   23.8397 O.3       3 ASP3        0.0000 
     91 OD1        -9.8846   17.8263   24.9733 O.3       3 ASP3        0.0000 
     92 OD1       -10.1851   16.8014   26.0265 O.3       3 ASP3        0.0000 
     93 O          -0.6086   17.9688   19.2126 O.2       2 ALA2        0.0000 
     94 CA         -1.7212   19.4907   18.2400 C.3       6 GLY6        0.0000 
     95 CA         -2.0217   18.4657   19.2931 C.3       6 GLY6        0.0000 
     96 CZ         -2.3221   17.4408   20.3463 C.ar      5 PHE5        0.0000 
     97 O          -3.4347   18.9626   19.3736 O.2       2 ALA2        0.0000 
     98 CZ         -3.7351   17.9377   20.4268 C.ar      5 PHE5        0.0000 
     99 CZ         -4.0356   16.9127   21.4800 C.ar      5 PHE5        0.0000 
    100 N          -5.1481   18.4346   20.5073 N.2       2 ALA2        0.0000 
    101 NZ         -5.4486   17.4096   21.5605 N.2       4 LYS4        0.0000 
    102 N          -6.5612   18.9314   20.5878 N.2       2 ALA2        0.0000 
    103 NZ         -6.8616   17.9065   21.6410 N.2       4 LYS4        0.0000 
    104 OD1        -7.1620   16.8815   22.6941 O.3       3 ASP3        0.0000 
    105 O          -8.2746   18.4034   21.7214 O.2       2 ALA2        0.0000 
    106 OD1        -8.5751   17.3784   22.7746 O.3       3 ASP3        0.0000 
    107 OD1        -9.9881   17.8753   22.8551 O.3       3 ASP3        0.0000 
    108 OD1       -10.2885   16.8503   23.9083 O.3       3 ASP3        0.0000 
    109 OD1       -11.7015   17.3472   23.9888 O.3       3 ASP3        0.0000 
    110 OD1       -12.0020   16.3223   25.0420 O.3       3 ASP3        0.0000 
    111 CA         -4.1390   16.9617   19.3617 C.3       6 GLY6        0.0000 
    112 NZ         -5.5520   17.4586   19.4422 N.2       4 LYS4        0.0000 
@<TRIPOS>BOND
@<TRIPOS>SUBSTRUCTURE
     1 SER1       71 GROUP   
     2 ALA2        1 GROUP   
     3 ASP3       68 GROUP   
     4 LYS4       67 GROUP   
     5 PHE5       30 GROUP   
     6 GLY6        3 GROUP   
     7 CUB7        6 GROUP   
@<TRIPOS>SET

