#    Name: 4dlc_UMP_1_INTS_M
#    Modification time : Tue Mar 25 09:51:11 2014

@<TRIPOS>MOLECULE
4dlc_UMP_1_INTS_M
   49     0    15     0     0
SMALL
NO_CHARGES


@<TRIPOS>ATOM
      1 O           1.9620   19.6595   19.7095 O.2       1 ALC1        0.0000 
      2 O           0.8090   19.6950   20.4560 O.2      11 ALL1        0.0000 
      3 O           3.1150   19.6240   18.9630 O.2       6 ALP1        0.0000 
      4 CA          0.3745   22.0725   21.9030 C.3       5 GLC5        0.0000 
      5 CA         -0.1190   19.9960   22.6100 C.3      15 GLL5        0.0000 
      6 CA          0.8680   24.1490   21.1960 C.3      10 GLP5        0.0000 
      7 N           0.5515   18.4875   17.9975 N.am      2 SEC2        0.0000 
      8 N          -0.5720   19.0880   18.7610 N.am     12 SEL2        0.0000 
      9 N           1.6750   17.8870   17.2340 N.am      7 SEP2        0.0000 
     10 CA         -2.5700   18.2880   18.0860 C.3       5 GLC5        0.0000 
     11 CA         -2.8330   19.0050   20.1710 C.3      15 GLL5        0.0000 
     12 CA         -2.3070   17.5710   16.0010 C.3      10 GLP5        0.0000 
     13 CA         -5.5020   15.5210   19.8390 C.3       5 GLC5        0.0000 
     14 CA         -4.4560   17.2330   19.9290 C.3      15 GLL5        0.0000 
     15 CA         -6.5480   13.8090   19.7490 C.3      10 GLP5        0.0000 
     16 CA         -3.6535   16.0595   21.3225 C.3       5 GLC5        0.0000 
     17 CA         -2.8510   14.8860   22.7160 C.3      10 GLP5        0.0000 
     18 N          -4.8540   18.4575   17.9220 N.am      2 SEC2        0.0000 
     19 N          -5.0680   17.1720   18.6490 N.am     12 SEL2        0.0000 
     20 N          -4.6400   19.7430   17.1950 N.am      7 SEP2        0.0000 
     21 O          -6.2360   16.4730   18.6515 O.2       1 ALC1        0.0000 
     22 O          -5.0680   17.1720   18.6490 O.2      11 ALL1        0.0000 
     23 O          -7.4040   15.7740   18.6540 O.2       6 ALP1        0.0000 
     24 NZ         -8.8605   19.9630   22.1795 N.4       3 LYC4        0.0000 
     25 NZ         -8.7660   18.8920   23.2450 N.4      13 LYL4        0.0000 
     26 NZ        -10.0520   21.6630   20.7140 N.4       8 LYP4        0.0000 
     27 NZ        -10.0170   19.6195   23.9065 N.4       3 LYC4        0.0000 
     28 NZ        -11.2680   20.3470   24.5680 N.4       8 LYP4        0.0000 
     29 N          -8.8605   19.9630   22.1795 N.am      2 SEC2        0.0000 
     30 N          -8.7660   18.8920   23.2450 N.am     12 SEL2        0.0000 
     31 N          -8.9550   21.0340   21.1140 N.am      7 SEP2        0.0000 
     32 N         -10.0170   19.6195   23.9065 N.am      2 SEC2        0.0000 
     33 N         -11.2680   20.3470   24.5680 N.am      7 SEP2        0.0000 
     34 Zn         -7.5665   16.7345   24.6925 Zn        4 ZIC7        0.0000 
     35 Zn         -7.1230   17.5690   24.5260 Zn       14 ZIL7        0.0000 
     36 Zn         -8.0100   15.9000   24.8590 Zn        9 ZIP7        0.0000 
     37 N          -7.9965   20.7560   24.6475 N.am      2 SEC2        0.0000 
     38 N          -7.1790   19.7840   24.7970 N.am     12 SEL2        0.0000 
     39 N          -8.8140   21.7280   24.4980 N.am      7 SEP2        0.0000 
     40 CA         -0.8100   18.0375   22.5795 C.3       5 GLC5        0.0000 
     41 CA         -1.3650   19.6880   22.1000 C.3      15 GLL5        0.0000 
     42 CA         -0.8780   16.2330   22.8040 C.3      10 GLP5        0.0000 
     43 CA         -2.5713   17.1807   21.4990 C.3       5 GLC5        0.0000 
     44 CA         -2.2340   16.0750   23.0290 C.3      10 GLP5        0.0000 
     45 CA         -2.6460   16.4563   18.6245 C.3       5 GLC5        0.0000 
     46 CA         -2.9840   17.5680   19.7670 C.3      15 GLL5        0.0000 
     47 CA         -1.5720   15.5120   17.4010 C.3      10 GLP5        0.0000 
     48 CA         -3.8045   17.1345   22.1790 C.3       5 GLC5        0.0000 
     49 CA         -4.9700   18.4100   20.7240 C.3      15 GLL5        0.0000 
@<TRIPOS>BOND
@<TRIPOS>SUBSTRUCTURE
     1 ALC1        1 GROUP        1 X    ALC  0     ROOT ALC X 1
     2 SEC2        7 GROUP        1 X    SEC  0     **** SEC X 2
     3 LYC4       24 GROUP        1 X    LYC  0     **** LYC X 4
     4 ZIC7       34 GROUP        1 X    ZIC  0     **** ZIC X 5
     5 GLC5        4 GROUP        1 X    GLC  0     **** GLC X 6
     6 ALP1        3 GROUP        1 Y    ALP  0     ROOT ALP Y 8
     7 SEP2        9 GROUP        1 Y    SEP  0     **** SEP Y 9
     8 LYP4       26 GROUP        1 Y    LYP  0     **** LYP Y 11
     9 ZIP7       36 GROUP        1 Y    ZIP  0     **** ZIP Y 12
    10 GLP5        6 GROUP        1 Y    GLP  0     **** GLP Y 13
    11 ALL1        2 GROUP        1 Z    ALL  0     ROOT ALL Z 15
    12 SEL2        8 GROUP        1 Z    SEL  0     **** SEL Z 16
    13 LYL4       25 GROUP        1 Z    LYL  0     **** LYL Z 18
    14 ZIL7       35 GROUP        1 Z    ZIL  0     **** ZIL Z 19
    15 GLL5        5 GROUP        1 Z    GLL  0     **** GLL Z 20
@<TRIPOS>SET

