#    Name: 4dlc_UMP_1_ligand
#    Modification time : Tue Mar 25 09:51:11 2014

@<TRIPOS>MOLECULE
4dlc_UMP_1_ligand
   31    32     1     0     0
SMALL
NO_CHARGES


@<TRIPOS>ATOM
      1 N1         -1.5140   19.3440   20.7800 N.am      1 UMP301      0.0000 
      2 C2         -0.4280   19.3800   19.9430 C.2       1 UMP301      0.0000 
      3 N3          0.8090   19.6950   20.4560 N.am      1 UMP301      0.0000 
      4 C4          0.9990   20.0330   21.7720 C.2       1 UMP301      0.0000 
      5 C5         -0.1190   19.9960   22.6100 C.2       1 UMP301      0.0000 
      6 C6         -1.3650   19.6880   22.1000 C.2       1 UMP301      0.0000 
      7 O2         -0.5720   19.0880   18.7610 O.2       1 UMP301      0.0000 
      8 O4          2.1480   20.3240   22.1980 O.2       1 UMP301      0.0000 
      9 C1'        -2.8330   19.0050   20.1710 C.3       1 UMP301      0.0000 
     10 C2'        -2.9840   17.5680   19.7670 C.3       1 UMP301      0.0000 
     11 C3'        -4.4560   17.2330   19.9290 C.3       1 UMP301      0.0000 
     12 C4'        -4.9700   18.4100   20.7240 C.3       1 UMP301      0.0000 
     13 O3'        -5.0680   17.1720   18.6490 O.3       1 UMP301      0.0000 
     14 O4'        -3.8450   19.1580   21.1360 O.3       1 UMP301      0.0000 
     15 C5'        -5.7800   17.9780   21.9340 C.3       1 UMP301      0.0000 
     16 O5'        -6.2180   19.1410   22.6160 O.3       1 UMP301      0.0000 
     17 P          -7.3610   18.8150   23.7230 P.3       1 UMP301      0.0000 
     18 OP1        -8.7660   18.8920   23.2450 O.co2     1 UMP301      0.0000 
     19 OP2        -7.1230   17.5690   24.5260 O.co2     1 UMP301      0.0000 
     20 OP3        -7.1790   19.7840   24.7970 O.co2     1 UMP301      0.0000 
     21 H           1.6410   19.6755   19.8126 H         1 UMP301      0.0000 
     22 H          -0.0052   20.2011   23.6145 H         1 UMP301      0.0000 
     23 H          -2.1931   19.7181   22.7236 H         1 UMP301      0.0000 
     24 H          -3.0317   19.6241   19.3216 H         1 UMP301      0.0000 
     25 H          -2.4005   16.9381   20.4124 H         1 UMP301      0.0000 
     26 H          -2.6988   17.4398   18.7393 H         1 UMP301      0.0000 
     27 H          -4.5422   16.3608   20.5002 H         1 UMP301      0.0000 
     28 H          -5.6054   19.0022   20.0763 H         1 UMP301      0.0000 
     29 H          -5.1408   17.3513   22.5606 H         1 UMP301      0.0000 
     30 H          -6.6165   17.3708   21.5797 H         1 UMP301      0.0000 
     31 H          -5.8927   16.6225   18.7825 H         1 UMP301      0.0000 
@<TRIPOS>BOND
     1    2    1 1    
     2    6    1 1    
     3    9    1 1    
     4    3    2 1    
     5    7    2 2    
     6    4    3 1    
     7   21    3 1    
     8    5    4 1    
     9    8    4 2    
    10    6    5 2    
    11   22    5 1    
    12   23    6 1    
    13   10    9 1    
    14   14    9 1    
    15   24    9 1    
    16   11   10 1    
    17   25   10 1    
    18   26   10 1    
    19   12   11 1    
    20   13   11 1    
    21   27   11 1    
    22   14   12 1    
    23   15   12 1    
    24   28   12 1    
    25   31   13 1    
    26   16   15 1    
    27   29   15 1    
    28   30   15 1    
    29   17   16 1    
    30   18   17 ar   
    31   19   17 ar   
    32   20   17 ar   
@<TRIPOS>SUBSTRUCTURE
     1 UMP301      1 GROUP   
@<TRIPOS>SET

