#    Name: 3qkz_NAP_2_INTS_M
#    Modification time : Mon Apr  7 19:40:19 2014

@<TRIPOS>MOLECULE
3qkz_NAP_2_INTS_M
  128     0    12     0     0
SMALL
NO_CHARGES


@<TRIPOS>ATOM
      1 N         -26.3030   22.3335    4.2380 N.am      2 SEC2        0.0000 
      2 N         -27.1220   21.1800    4.0350 N.am     10 SEL2        0.0000 
      3 N         -25.4840   23.4870    4.4410 N.am      6 SEP2        0.0000 
      4 N         -26.2545   20.4140    3.1225 N.am      2 SEC2        0.0000 
      5 N         -25.3870   19.6480    2.2100 N.am      6 SEP2        0.0000 
      6 N         -30.0995   21.0780    6.7735 N.am      2 SEC2        0.0000 
      7 N         -29.0940   21.0560    5.7850 N.am     10 SEL2        0.0000 
      8 N         -31.1050   21.1000    7.7620 N.am      6 SEP2        0.0000 
      9 CA        -26.8630   20.0300    7.4580 C.3       4 GLC5        0.0000 
     10 CA        -27.9780   18.3800    6.4300 C.3      12 GLL5        0.0000 
     11 CA        -25.7480   21.6800    8.4860 C.3       8 GLP5        0.0000 
     12 CA        -26.1070   18.0930    5.4475 C.3       4 GLC5        0.0000 
     13 CA        -24.2360   17.8060    4.4650 C.3       8 GLP5        0.0000 
     14 CA        -29.9355   18.6325    6.7370 C.3       4 GLC5        0.0000 
     15 CA        -31.8930   18.8850    7.0440 C.3       8 GLP5        0.0000 
     16 CA        -27.2885   14.5705    6.3410 C.3       4 GLC5        0.0000 
     17 CA        -27.3980   16.1620    7.7450 C.3      12 GLL5        0.0000 
     18 CA        -27.1790   12.9790    4.9370 C.3       8 GLP5        0.0000 
     19 CA        -29.0665   17.2245   10.2520 C.3       4 GLC5        0.0000 
     20 CA        -27.2000   16.6020    9.1910 C.3      12 GLL5        0.0000 
     21 CA        -30.9330   17.8470   11.3130 C.3       8 GLP5        0.0000 
     22 CA        -25.8415   19.5695    8.7885 C.3       4 GLC5        0.0000 
     23 CA        -25.9350   17.4590    9.0910 C.3      12 GLL5        0.0000 
     24 CA        -24.7885   17.1590    7.2650 C.3       4 GLC5        0.0000 
     25 CA        -23.6420   16.8590    5.4390 C.3       8 GLP5        0.0000 
     26 N         -27.3685   21.3085   11.9125 N.am      2 SEC2        0.0000 
     27 N         -26.4110   20.1520   11.4610 N.am     10 SEL2        0.0000 
     28 N         -28.3260   22.4650   12.3640 N.am      6 SEP2        0.0000 
     29 O         -25.5670   22.5695   13.2965 O.2       1 ALC1        0.0000 
     30 O         -24.4910   21.5720   13.2790 O.2       9 ALL1        0.0000 
     31 O         -26.6430   23.5670   13.3140 O.2       5 ALP1        0.0000 
     32 CA        -21.8735   19.1365    9.6385 C.3       4 GLC5        0.0000 
     33 CA        -22.4790   19.1120   11.4930 C.3      12 GLL5        0.0000 
     34 CA        -21.2680   19.1610    7.7840 C.3       8 GLP5        0.0000 
     35 CA        -24.0460   18.3395   12.8145 C.3       4 GLC5        0.0000 
     36 CA        -25.6130   17.5670   14.1360 C.3       8 GLP5        0.0000 
     37 NZ        -31.0005   17.1160    3.8205 N.4       3 LYC4        0.0000 
     38 NZ        -31.1730   18.4270    3.8550 N.4      11 LYL4        0.0000 
     39 NZ        -30.8280   15.8050    3.7860 N.4       7 LYP4        0.0000 
     40 N         -31.0005   17.1160    3.8205 N.am      2 SEC2        0.0000 
     41 N         -31.1730   18.4270    3.8550 N.am     10 SEL2        0.0000 
     42 N         -30.8280   15.8050    3.7860 N.am      6 SEP2        0.0000 
     43 NZ        -30.4235   17.4295    2.7040 N.4       3 LYC4        0.0000 
     44 NZ        -30.0190   19.0540    1.6220 N.4      11 LYL4        0.0000 
     45 N         -29.7240   20.0490    0.9465 N.am      2 SEC2        0.0000 
     46 N         -30.0190   19.0540    1.6220 N.am     10 SEL2        0.0000 
     47 N         -29.4290   21.0440    0.2710 N.am      6 SEP2        0.0000 
     48 N         -29.0140   18.1960    1.3680 N.am      2 SEC2        0.0000 
     49 N         -28.0090   17.3380    1.1140 N.am      6 SEP2        0.0000 
     50 N         -30.4535   22.1375    2.3150 N.am      2 SEC2        0.0000 
     51 N         -30.8640   20.8140    2.9650 N.am     10 SEL2        0.0000 
     52 N         -30.0430   23.4610    1.6650 N.am      6 SEP2        0.0000 
     53 CA        -30.1800   22.1485    2.9060 C.3       4 GLC5        0.0000 
     54 CA        -31.6190   21.4800    4.0260 C.3      12 GLL5        0.0000 
     55 CA        -28.7410   22.8170    1.7860 C.3       8 GLP5        0.0000 
     56 CA        -30.2115   22.9610    4.0870 C.3       4 GLC5        0.0000 
     57 CA        -28.8040   24.4420    4.1480 C.3       8 GLP5        0.0000 
     58 CA        -31.1060   22.4575    5.9265 C.3       4 GLC5        0.0000 
     59 CA        -30.5930   23.4350    7.8270 C.3       8 GLP5        0.0000 
     60 CA        -33.6990   23.3225    3.9555 C.3       4 GLC5        0.0000 
     61 CA        -33.1160   21.3920    3.7700 C.3      12 GLL5        0.0000 
     62 CA        -34.2820   25.2530    4.1410 C.3       8 GLP5        0.0000 
     63 N         -34.7765   18.1120    4.4930 N.am      2 SEC2        0.0000 
     64 N         -33.7170   19.1210    4.5170 N.am     10 SEL2        0.0000 
     65 N         -35.8360   17.1030    4.4690 N.am      6 SEP2        0.0000 
     66 CA        -36.6755   19.3855    2.3475 C.3       4 GLC5        0.0000 
     67 CA        -34.9770   20.3700    2.7770 C.3      12 GLL5        0.0000 
     68 CA        -38.3740   18.4010    1.9180 C.3       8 GLP5        0.0000 
     69 N         -36.1360   19.9315    5.0945 N.am      2 SEC2        0.0000 
     70 N         -36.0000   20.7640    3.7580 N.am     10 SEL2        0.0000 
     71 N         -36.2720   19.0990    6.4310 N.am      6 SEP2        0.0000 
     72 O         -36.8260   21.6285    3.2925 O.2       1 ALC1        0.0000 
     73 O         -36.0000   20.7640    3.7580 O.2       9 ALL1        0.0000 
     74 O         -37.6520   22.4930    2.8270 O.2       5 ALP1        0.0000 
     75 CA        -33.6070   22.9725    1.0220 C.3       4 GLC5        0.0000 
     76 CA        -34.5420   21.5620    1.9110 C.3      12 GLL5        0.0000 
     77 CA        -32.6720   24.3830    0.1330 C.3       8 GLP5        0.0000 
     78 CA        -37.1195   22.2070   -0.4655 C.3       4 GLC5        0.0000 
     79 CA        -34.9970   21.6920   -0.5010 C.3      12 GLL5        0.0000 
     80 CA        -39.2420   22.7220   -0.4300 C.3       8 GLP5        0.0000 
     81 N         -36.8095   20.5835   -3.8680 N.am      2 SEC2        0.0000 
     82 N         -35.3830   21.4170   -4.1030 N.am     10 SEL2        0.0000 
     83 N         -38.2360   19.7500   -3.6330 N.am      6 SEP2        0.0000 
     84 N         -35.5125   22.1805   -5.2950 N.am      2 SEC2        0.0000 
     85 N         -35.6420   22.9440   -6.4870 N.am      6 SEP2        0.0000 
     86 O         -36.7920   23.9750   -3.5270 O.2       1 ALC1        0.0000 
     87 O         -36.4420   22.8740   -2.7500 O.2       9 ALL1        0.0000 
     88 O         -37.1420   25.0760   -4.3040 O.2       5 ALP1        0.0000 
     89 O         -36.5300   23.6375   -1.4950 O.2       1 ALC1        0.0000 
     90 O         -36.6180   24.4010   -0.2400 O.2       5 ALP1        0.0000 
     91 N         -28.6735   16.6315   12.7995 N.am      2 SEC2        0.0000 
     92 N         -27.8760   15.6610   12.3410 N.am     10 SEL2        0.0000 
     93 N         -29.4710   17.6020   13.2580 N.am      6 SEP2        0.0000 
     94 N         -27.8810   15.0725   13.5475 N.am      2 SEC2        0.0000 
     95 N         -27.8860   14.4840   14.7540 N.am      6 SEP2        0.0000 
     96 N         -26.3110   15.5905   12.4065 N.am      2 SEC2        0.0000 
     97 N         -24.7460   15.5200   12.4720 N.am      6 SEP2        0.0000 
     98 NZ        -29.9945   14.6210    9.3375 N.4       3 LYC4        0.0000 
     99 NZ        -29.4720   15.0830   10.4470 N.4      11 LYL4        0.0000 
    100 NZ        -30.5170   14.1590    8.2280 N.4       7 LYP4        0.0000 
    101 N         -29.9945   14.6210    9.3375 N.am      2 SEC2        0.0000 
    102 N         -29.4720   15.0830   10.4470 N.am     10 SEL2        0.0000 
    103 N         -30.5170   14.1590    8.2280 N.am      6 SEP2        0.0000 
    104 N         -30.5530   15.4385   11.4165 N.am      2 SEC2        0.0000 
    105 N         -31.6340   15.7940   12.3860 N.am      6 SEP2        0.0000 
    106 CA        -25.4002   16.8185    6.3933 C.3       4 GLC5        0.0000 
    107 CA        -29.2880   16.3805    8.0230 C.3       4 GLC5        0.0000 
    108 CA        -31.2770   16.3790    7.5780 C.3       8 GLP5        0.0000 
    109 CA        -23.9612   22.0875   11.7237 C.3       4 GLC5        0.0000 
    110 CA        -25.0760   19.9570   11.6160 C.3      12 GLL5        0.0000 
    111 CA        -23.3250   23.9170   11.4250 C.3       8 GLP5        0.0000 
    112 CA        -25.2014   20.6330    9.9364 C.3       4 GLC5        0.0000 
    113 CA        -25.1339   18.5765   12.7614 C.3       4 GLC5        0.0000 
    114 CA        -24.7120   18.9140   10.7510 C.3      12 GLL5        0.0000 
    115 CA        -34.6120   18.4680    2.6238 C.3       4 GLC5        0.0000 
    116 CA        -33.6330   19.9980    3.3880 C.3      12 GLL5        0.0000 
    117 CA        -34.9190   16.7520    2.1650 C.3       8 GLP5        0.0000 
    118 CA        -32.4466   19.8010    5.3435 C.3       4 GLC5        0.0000 
    119 CA        -34.6594   20.8753    5.0545 C.3       4 GLC5        0.0000 
    120 CA        -35.1430   21.2180    6.9310 C.3       8 GLP5        0.0000 
    121 CA        -35.1418   22.8410    2.8105 C.3       4 GLC5        0.0000 
    122 CA        -35.5240   24.7160    3.2770 C.3       8 GLP5        0.0000 
    123 CA        -33.7690   22.9555   -0.5178 C.3       4 GLC5        0.0000 
    124 CA        -31.4145   19.8130   -2.3920 C.3       4 GLC5        0.0000 
    125 CA        -33.6060   20.5900   -2.1590 C.3      12 GLL5        0.0000 
    126 CA        -29.6290   19.2710   -3.1390 C.3       8 GLP5        0.0000 
    127 CA        -32.8135   22.3347   -0.1713 C.3       4 GLC5        0.0000 
    128 CA        -32.7940   20.1200   -1.1310 C.3      12 GLL5        0.0000 
@<TRIPOS>BOND
@<TRIPOS>SUBSTRUCTURE
     1 ALC1       29 GROUP        1 X    ALC  0     ROOT ALC X 1
     2 SEC2        1 GROUP        1 X    SEC  0     **** SEC X 2
     3 LYC4       37 GROUP        1 X    LYC  0     **** LYC X 4
     4 GLC5        9 GROUP        1 X    GLC  0     **** GLC X 6
     5 ALP1       31 GROUP        1 Y    ALP  0     ROOT ALP Y 8
     6 SEP2        3 GROUP        1 Y    SEP  0     **** SEP Y 9
     7 LYP4       39 GROUP        1 Y    LYP  0     **** LYP Y 11
     8 GLP5       11 GROUP        1 Y    GLP  0     **** GLP Y 13
     9 ALL1       30 GROUP        1 Z    ALL  0     ROOT ALL Z 15
    10 SEL2        2 GROUP        1 Z    SEL  0     **** SEL Z 16
    11 LYL4       38 GROUP        1 Z    LYL  0     **** LYL Z 18
    12 GLL5       10 GROUP        1 Z    GLL  0     **** GLL Z 20
@<TRIPOS>SET

