#    Name: 3qkz_NAP_2_ligand
#    Modification time : Mon Apr  7 19:40:19 2014

@<TRIPOS>MOLECULE
3qkz_NAP_2_ligand
   73    77     1     0     0
SMALL
NO_CHARGES


@<TRIPOS>ATOM
      1 PA        -28.1810   20.4140    4.7920 P.3       1 NAP350      0.0000 
      2 O1A       -27.1220   21.1800    4.0350 O.co2     1 NAP350      0.0000 
      3 O2A       -29.0940   21.0560    5.7850 O.co2     1 NAP350      0.0000 
      4 O5B       -27.3160   19.3650    5.6410 O.3       1 NAP350      0.0000 
      5 C5B       -27.9780   18.3800    6.4300 C.3       1 NAP350      0.0000 
      6 C4B       -26.9190   17.3940    6.9500 C.3       1 NAP350      0.0000 
      7 O4B       -25.9830   18.0570    7.7980 O.3       1 NAP350      0.0000 
      8 C3B       -27.3980   16.1620    7.7450 C.3       1 NAP350      0.0000 
      9 O3B       -26.5130   15.0530    7.4150 O.3       1 NAP350      0.0000 
     10 C2B       -27.2000   16.6020    9.1910 C.3       1 NAP350      0.0000 
     11 O2B       -26.9500   15.4380   10.0160 O.3       1 NAP350      0.0000 
     12 C1B       -25.9350   17.4590    9.0910 C.3       1 NAP350      0.0000 
     13 N9A       -25.8340   18.5310   10.0990 N.pl3     1 NAP350      0.0000 
     14 C8A       -26.8540   19.2670   10.5480 C.2       1 NAP350      0.0000 
     15 N7A       -26.4110   20.1520   11.4610 N.2       1 NAP350      0.0000 
     16 C5A       -25.0760   19.9570   11.6160 C.ar      1 NAP350      0.0000 
     17 C6A       -24.1190   20.5590   12.4290 C.ar      1 NAP350      0.0000 
     18 N6A       -24.4910   21.5720   13.2790 N.pl3     1 NAP350      0.0000 
     19 N1A       -22.8140   20.1180   12.3260 N.ar      1 NAP350      0.0000 
     20 C2A       -22.4790   19.1120   11.4930 C.ar      1 NAP350      0.0000 
     21 N3A       -23.3990   18.4840   10.7210 N.ar      1 NAP350      0.0000 
     22 C4A       -24.7120   18.9140   10.7510 C.ar      1 NAP350      0.0000 
     23 O3        -28.9100   19.4140    3.7580 O.3       1 NAP350      0.0000 
     24 PN        -30.3010   19.3430    3.0790 P.3       1 NAP350      0.0000 
     25 O1N       -31.1730   18.4270    3.8550 O.co2     1 NAP350      0.0000 
     26 O2N       -30.0190   19.0540    1.6220 O.co2     1 NAP350      0.0000 
     27 O5D       -30.8640   20.8140    2.9650 O.3       1 NAP350      0.0000 
     28 C5D       -31.6190   21.4800    4.0260 C.3       1 NAP350      0.0000 
     29 C4D       -33.1160   21.3920    3.7700 C.3       1 NAP350      0.0000 
     30 O4D       -33.4620   22.1930    2.6290 O.3       1 NAP350      0.0000 
     31 C3D       -33.6330   19.9980    3.3880 C.3       1 NAP350      0.0000 
     32 O3D       -33.7170   19.1210    4.5170 O.3       1 NAP350      0.0000 
     33 C2D       -34.9770   20.3700    2.7770 C.3       1 NAP350      0.0000 
     34 O2D       -36.0000   20.7640    3.7580 O.3       1 NAP350      0.0000 
     35 C1D       -34.5420   21.5620    1.9110 C.3       1 NAP350      0.0000 
     36 N1N       -34.1900   21.2240    0.5070 N.pl3     1 NAP350      0.0000 
     37 C2N       -34.9970   21.6920   -0.5010 C.ar      1 NAP350      0.0000 
     38 C3N       -34.7350   21.3640   -1.8360 C.ar      1 NAP350      0.0000 
     39 C7N       -35.5670   21.8940   -2.9790 C.2       1 NAP350      0.0000 
     40 O7N       -35.3830   21.4170   -4.1030 O.2       1 NAP350      0.0000 
     41 N7N       -36.4420   22.8740   -2.7500 N.am      1 NAP350      0.0000 
     42 C4N       -33.6060   20.5900   -2.1590 C.ar      1 NAP350      0.0000 
     43 C5N       -32.7940   20.1200   -1.1310 C.ar      1 NAP350      0.0000 
     44 C6N       -33.1160   20.4530    0.1800 C.ar      1 NAP350      0.0000 
     45 P2B       -28.1020   14.9150   11.0490 P.3       1 NAP350      0.0000 
     46 O1X       -27.8760   15.6610   12.3410 O.co2     1 NAP350      0.0000 
     47 O2X       -29.4720   15.0830   10.4470 O.co2     1 NAP350      0.0000 
     48 O3X       -27.6980   13.4430   11.1590 O.co2     1 NAP350      0.0000 
     49 H         -28.7037   17.8099    5.8521 H         1 NAP350      0.0000 
     50 H         -28.4776   18.8136    7.2948 H         1 NAP350      0.0000 
     51 H         -26.3606   17.0011    6.0722 H         1 NAP350      0.0000 
     52 H         -28.3932   15.9955    7.5468 H         1 NAP350      0.0000 
     53 H         -27.9959   17.1874    9.4902 H         1 NAP350      0.0000 
     54 H         -25.0821   16.7995    9.1526 H         1 NAP350      0.0000 
     55 H         -27.7847   19.1809   10.2609 H         1 NAP350      0.0000 
     56 H         -23.9695   21.6471   14.1290 H         1 NAP350      0.0000 
     57 H         -25.2509   22.1459   12.9736 H         1 NAP350      0.0000 
     58 H         -21.4724   18.8026   11.4385 H         1 NAP350      0.0000 
     59 H         -31.3416   22.5403    4.0926 H         1 NAP350      0.0000 
     60 H         -31.4075   21.0198    5.0002 H         1 NAP350      0.0000 
     61 H         -33.6630   21.7277    4.6284 H         1 NAP350      0.0000 
     62 H         -33.0059   19.6429    2.5991 H         1 NAP350      0.0000 
     63 H         -35.2785   19.5972    2.1259 H         1 NAP350      0.0000 
     64 H         -35.4043   22.2615    1.9098 H         1 NAP350      0.0000 
     65 H         -35.8096   22.2939   -0.2830 H         1 NAP350      0.0000 
     66 H         -36.9684   23.1874   -3.5403 H         1 NAP350      0.0000 
     67 H         -36.4930   23.2073   -1.8085 H         1 NAP350      0.0000 
     68 H         -33.3917   20.3803   -3.1322 H         1 NAP350      0.0000 
     69 H         -31.9793   19.5430   -1.3358 H         1 NAP350      0.0000 
     70 H         -32.4931   20.0862    0.9472 H         1 NAP350      0.0000 
     71 H         -26.2118   14.6910    8.2972 H         1 NAP350      0.0000 
     72 H         -32.8334   18.6538    4.5479 H         1 NAP350      0.0000 
     73 H         -36.7928   21.0331    3.2111 H         1 NAP350      0.0000 
@<TRIPOS>BOND
     1    2    1 ar   
     2    3    1 ar   
     3    4    1 1    
     4   23    1 1    
     5    5    4 1    
     6    6    5 1    
     7   49    5 1    
     8   50    5 1    
     9    7    6 1    
    10    8    6 1    
    11   51    6 1    
    12   12    7 1    
    13    9    8 1    
    14   10    8 1    
    15   52    8 1    
    16   71    9 1    
    17   11   10 1    
    18   12   10 1    
    19   53   10 1    
    20   45   11 1    
    21   13   12 1    
    22   54   12 1    
    23   14   13 1    
    24   22   13 1    
    25   15   14 2    
    26   55   14 1    
    27   16   15 1    
    28   17   16 ar   
    29   22   16 ar   
    30   18   17 1    
    31   19   17 ar   
    32   56   18 1    
    33   57   18 1    
    34   20   19 ar   
    35   21   20 ar   
    36   58   20 1    
    37   22   21 ar   
    38   24   23 1    
    39   25   24 ar   
    40   26   24 ar   
    41   27   24 1    
    42   28   27 1    
    43   29   28 1    
    44   59   28 1    
    45   60   28 1    
    46   30   29 1    
    47   31   29 1    
    48   61   29 1    
    49   35   30 1    
    50   32   31 1    
    51   33   31 1    
    52   62   31 1    
    53   72   32 1    
    54   34   33 1    
    55   35   33 1    
    56   63   33 1    
    57   73   34 1    
    58   36   35 1    
    59   64   35 1    
    60   37   36 ar   
    61   44   36 ar   
    62   38   37 ar   
    63   65   37 1    
    64   39   38 1    
    65   42   38 ar   
    66   40   39 2    
    67   41   39 am   
    68   66   41 1    
    69   67   41 1    
    70   43   42 ar   
    71   68   42 1    
    72   44   43 ar   
    73   69   43 1    
    74   70   44 1    
    75   46   45 ar   
    76   47   45 ar   
    77   48   45 ar   
@<TRIPOS>SUBSTRUCTURE
     1 NAP350      1 GROUP   
@<TRIPOS>SET

