#    Name: 1qyv_NAP_1_INTS_M
#    Modification time : Tue Mar 25 00:08:12 2014

@<TRIPOS>MOLECULE
1qyv_NAP_1_INTS_M
  106     0    12     0     0
SMALL
NO_CHARGES


@<TRIPOS>ATOM
      1 N          20.3470   -3.5895   -5.8880 N.am      2 SEC2        0.0000 
      2 N          19.3810   -2.6370   -6.0960 N.am     10 SEL2        0.0000 
      3 N          21.3130   -4.5420   -5.6800 N.am      6 SEP2        0.0000 
      4 CA         16.1150   -4.3410   -0.9260 C.3       4 GLC5        0.0000 
      5 CA         17.5350   -4.4740   -2.6450 C.3      12 GLL5        0.0000 
      6 CA         14.6950   -4.2080    0.7930 C.3       8 GLP5        0.0000 
      7 N          14.9910   -4.5330   -1.7360 N.am      2 SEC2        0.0000 
      8 N          16.4110   -5.1210   -2.1190 N.am     10 SEL2        0.0000 
      9 N          13.5710   -3.9450   -1.3530 N.am      6 SEP2        0.0000 
     10 N          20.9835   -6.1805   -1.8995 N.am      2 SEC2        0.0000 
     11 N          19.5010   -5.9270   -2.6390 N.am     10 SEL2        0.0000 
     12 N          22.4660   -6.4340   -1.1600 N.am      6 SEP2        0.0000 
     13 O          20.3790   -6.7715   -3.1370 O.2       1 ALC1        0.0000 
     14 O          19.5010   -5.9270   -2.6390 O.2       9 ALL1        0.0000 
     15 O          21.2570   -7.6160   -3.6350 O.2       5 ALP1        0.0000 
     16 N          19.6825   -7.7675   -3.5690 N.am      2 SEC2        0.0000 
     17 N          18.1080   -7.9190   -3.5030 N.am     10 SEL2        0.0000 
     18 N          21.2570   -7.6160   -3.6350 N.am      6 SEP2        0.0000 
     19 CA         17.5640   -6.0630   -0.5610 C.3       4 GLC5        0.0000 
     20 CA         16.6530   -6.5220   -2.0840 C.3      12 GLL5        0.0000 
     21 CA         18.4750   -5.6040    0.9620 C.3       8 GLP5        0.0000 
     22 CA         15.6740   -5.3650   -0.6455 C.3       4 GLC5        0.0000 
     23 CA         14.6350  -11.2330   -0.2660 C.3       4 GLC5        0.0000 
     24 CA         13.6950   -9.7360   -0.0950 C.3      12 GLL5        0.0000 
     25 CA         15.5750  -12.7300   -0.4370 C.3       8 GLP5        0.0000 
     26 CA         12.5495   -9.0660    1.3115 C.3       4 GLC5        0.0000 
     27 CA         11.4040   -8.3960    2.7180 C.3       8 GLP5        0.0000 
     28 O          12.5360  -11.8430    0.5165 O.2       1 ALC1        0.0000 
     29 O          12.6240  -10.5380   -0.2810 O.2       9 ALL1        0.0000 
     30 O          12.4480  -13.1480    1.3140 O.2       5 ALP1        0.0000 
     31 N          13.6145  -10.3325    2.4535 N.am      2 SEC2        0.0000 
     32 N          14.3720   -9.7740    1.1420 N.am     10 SEL2        0.0000 
     33 N          12.8570  -10.8910    3.7650 N.am      6 SEP2        0.0000 
     34 CA         16.1565  -10.4500    0.4070 C.3       4 GLC5        0.0000 
     35 CA         15.4520   -9.0000    1.3500 C.3      12 GLL5        0.0000 
     36 CA         16.8610  -11.9000   -0.5360 C.3       8 GLP5        0.0000 
     37 CA         14.9345  -10.8730    2.3590 C.3       4 GLC5        0.0000 
     38 CA         14.4170  -12.7460    3.3680 C.3       8 GLP5        0.0000 
     39 CA         14.2005   -8.5115    2.9965 C.3       4 GLC5        0.0000 
     40 CA         12.9490   -8.0230    4.6430 C.3       8 GLP5        0.0000 
     41 CA         14.8805   -7.2330    1.4660 C.3       4 GLC5        0.0000 
     42 CA         14.3090   -5.4660    1.5820 C.3       8 GLP5        0.0000 
     43 CA         16.8865   -6.8565    0.0535 C.3       4 GLC5        0.0000 
     44 CA         15.2980   -8.1090   -0.8550 C.3      12 GLL5        0.0000 
     45 N          20.1925    0.8495   -3.2755 N.am      2 SEC2        0.0000 
     46 N          19.0550    0.5980   -3.5740 N.am     10 SEL2        0.0000 
     47 N          21.3300    1.1010   -2.9770 N.am      6 SEP2        0.0000 
     48 CA         18.5450    1.3015   -2.0990 C.3       4 GLC5        0.0000 
     49 CA         16.9910   -0.0030   -2.6860 C.3      12 GLL5        0.0000 
     50 CA         20.0990    2.6060   -1.5120 C.3       8 GLP5        0.0000 
     51 CA         17.1180    2.4230   -2.3935 C.3       4 GLC5        0.0000 
     52 CA         15.7820    0.7150   -2.1590 C.3      12 GLL5        0.0000 
     53 CA         18.4540    4.1310   -2.6280 C.3       8 GLP5        0.0000 
     54 CA         13.3965   -1.6915   -2.3865 C.3       4 GLC5        0.0000 
     55 CA         14.3850    0.1250   -2.6230 C.3      12 GLL5        0.0000 
     56 CA         12.4080   -3.5080   -2.1500 C.3       8 GLP5        0.0000 
     57 O          14.2960   -0.7370   -0.6380 O.2       1 ALC1        0.0000 
     58 O          13.4620    0.0340   -1.4980 O.2       9 ALL1        0.0000 
     59 O          15.1300   -1.5080    0.2220 O.2       5 ALP1        0.0000 
     60 N          11.5470    2.1620   -4.9315 N.am      2 SEC2        0.0000 
     61 N          12.5290    1.1750   -3.9100 N.am     10 SEL2        0.0000 
     62 N          10.5650    3.1490   -5.9530 N.am      6 SEP2        0.0000 
     63 N          11.2775    0.9415   -2.8785 N.am      2 SEC2        0.0000 
     64 N          10.0260    0.7080   -1.8470 N.am      6 SEP2        0.0000 
     65 O          11.5470    2.1620   -4.9315 O.2       1 ALC1        0.0000 
     66 O          12.5290    1.1750   -3.9100 O.2       9 ALL1        0.0000 
     67 O          10.5650    3.1490   -5.9530 O.2       5 ALP1        0.0000 
     68 CA         16.4915    3.2650   -2.9330 C.3       4 GLC5        0.0000 
     69 CA         14.5290    2.3990   -3.2380 C.3      12 GLL5        0.0000 
     70 CA         14.8975    2.9800   -1.6745 C.3       4 GLC5        0.0000 
     71 CA         15.2660    3.5610   -0.1110 C.3       8 GLP5        0.0000 
     72 CA         16.8560    3.7250   -4.0045 C.3       4 GLC5        0.0000 
     73 CA         15.2580    3.3190   -5.3810 C.3      12 GLL5        0.0000 
     74 N          17.0810    5.9020   -8.6720 N.am      2 SEC2        0.0000 
     75 N          15.9670    4.7970   -8.6510 N.am     10 SEL2        0.0000 
     76 N          18.1950    7.0070   -8.6930 N.am      6 SEP2        0.0000 
     77 CA         14.4660    4.1260   -2.0815 C.3       4 GLC5        0.0000 
     78 CA         13.6660    4.6910   -4.0520 C.3      12 GLL5        0.0000 
     79 NZ         17.7005  -11.0105   -4.6780 N.4       3 LYC4        0.0000 
     80 NZ         18.8890  -10.1240   -4.3750 N.4      11 LYL4        0.0000 
     81 NZ         15.9560  -12.6710   -4.0670 N.4       7 LYP4        0.0000 
     82 N          17.7005  -11.0105   -4.6780 N.am      2 SEC2        0.0000 
     83 N          18.8890  -10.1240   -4.3750 N.am     10 SEL2        0.0000 
     84 N          16.5120  -11.8970   -4.9810 N.am      6 SEP2        0.0000 
     85 NZ         16.4740  -10.7845   -4.4690 N.4       3 LYC4        0.0000 
     86 NZ         16.4360   -9.6720   -3.9570 N.4      11 LYL4        0.0000 
     87 N          16.0605  -10.9320   -3.4060 N.am      2 SEC2        0.0000 
     88 N          16.4360   -9.6720   -3.9570 N.am     10 SEL2        0.0000 
     89 N          15.6850  -12.1920   -2.8550 N.am      6 SEP2        0.0000 
     90 N          16.4740  -10.7845   -4.4690 N.am      2 SEC2        0.0000 
     91 CA         18.2093   -5.3027   -1.0357 C.3       4 GLC5        0.0000 
     92 CA         18.3520   -5.5290   -3.4220 C.3      12 GLL5        0.0000 
     93 CA         15.7973  -10.2015   -0.7515 C.3       4 GLC5        0.0000 
     94 CA         14.5213   -6.9845    0.3075 C.3       4 GLC5        0.0000 
     95 CA         14.1690   -8.8970   -1.0790 C.3      12 GLL5        0.0000 
     96 CA         12.2830   -8.2228   -0.7225 C.3       4 GLC5        0.0000 
     97 CA         10.6340   -7.1290   -0.8580 C.3       8 GLP5        0.0000 
     98 CA         15.1747    1.9905   -1.2510 C.3       4 GLC5        0.0000 
     99 CA         16.7073    5.8472   -6.0690 C.3       4 GLC5        0.0000 
    100 CA         15.2670    4.2880   -6.3870 C.3      12 GLL5        0.0000 
    101 CA         18.5490    6.8220   -5.8380 C.3       8 GLP5        0.0000 
    102 CA         11.9105    5.4980   -4.2207 C.3       4 GLC5        0.0000 
    103 CA         13.6560    5.6710   -5.0550 C.3      12 GLL5        0.0000 
    104 CA         10.1600    5.8150   -3.8880 C.3       8 GLP5        0.0000 
    105 CA         14.7415    6.5412   -4.0500 C.3       4 GLC5        0.0000 
    106 CA         15.6200    7.9550   -3.2570 C.3       8 GLP5        0.0000 
@<TRIPOS>BOND
@<TRIPOS>SUBSTRUCTURE
     1 ALC1       13 GROUP        1 X    ALC  0     ROOT ALC X 1
     2 SEC2        1 GROUP        1 X    SEC  0     **** SEC X 2
     3 LYC4       79 GROUP        1 X    LYC  0     **** LYC X 4
     4 GLC5        4 GROUP        1 X    GLC  0     **** GLC X 6
     5 ALP1       15 GROUP        1 Y    ALP  0     ROOT ALP Y 8
     6 SEP2        3 GROUP        1 Y    SEP  0     **** SEP Y 9
     7 LYP4       81 GROUP        1 Y    LYP  0     **** LYP Y 11
     8 GLP5        6 GROUP        1 Y    GLP  0     **** GLP Y 13
     9 ALL1       14 GROUP        1 Z    ALL  0     ROOT ALL Z 15
    10 SEL2        2 GROUP        1 Z    SEL  0     **** SEL Z 16
    11 LYL4       80 GROUP        1 Z    LYL  0     **** LYL Z 18
    12 GLL5        5 GROUP        1 Z    GLL  0     **** GLL Z 20
@<TRIPOS>SET

