#    Name: 1qyv_NAP_1_ligand
#    Modification time : Tue Mar 25 00:08:12 2014

@<TRIPOS>MOLECULE
1qyv_NAP_1_ligand
   73    77     1     0     0
SMALL
NO_CHARGES


@<TRIPOS>ATOM
      1 PA         18.0170   -2.2860   -5.5840 P.3       1 NAP361      0.0000 
      2 O1A        16.7910   -2.8050   -6.2000 O.co2     1 NAP361      0.0000 
      3 O2A        19.3810   -2.6370   -6.0960 O.co2     1 NAP361      0.0000 
      4 O5B        17.8540   -2.5900   -4.0200 O.3       1 NAP361      0.0000 
      5 C5B        16.8830   -3.4200   -3.5290 C.3       1 NAP361      0.0000 
      6 C4B        17.5350   -4.4740   -2.6450 C.3       1 NAP361      0.0000 
      7 O4B        16.4110   -5.1210   -2.1190 O.3       1 NAP361      0.0000 
      8 C3B        18.3520   -5.5290   -3.4220 C.3       1 NAP361      0.0000 
      9 O3B        19.5010   -5.9270   -2.6390 O.3       1 NAP361      0.0000 
     10 C2B        17.3810   -6.6980   -3.4220 C.3       1 NAP361      0.0000 
     11 O2B        18.1080   -7.9190   -3.5030 O.3       1 NAP361      0.0000 
     12 C1B        16.6530   -6.5220   -2.0840 C.3       1 NAP361      0.0000 
     13 N9A        15.5320   -7.4150   -1.9620 N.pl3     1 NAP361      0.0000 
     14 C8A        14.5730   -7.7780   -2.8700 C.2       1 NAP361      0.0000 
     15 N7A        13.7030   -8.7090   -2.3360 N.2       1 NAP361      0.0000 
     16 C5A        14.1690   -8.8970   -1.0790 C.ar      1 NAP361      0.0000 
     17 C6A        13.6950   -9.7360   -0.0950 C.ar      1 NAP361      0.0000 
     18 N6A        12.6240  -10.5380   -0.2810 N.pl3     1 NAP361      0.0000 
     19 N1A        14.3720   -9.7740    1.1420 N.ar      1 NAP361      0.0000 
     20 C2A        15.4520   -9.0000    1.3500 C.ar      1 NAP361      0.0000 
     21 N3A        15.9410   -8.2020    0.3740 N.ar      1 NAP361      0.0000 
     22 C4A        15.2980   -8.1090   -0.8550 C.ar      1 NAP361      0.0000 
     23 O3         17.8110   -0.6960   -5.6480 O.3       1 NAP361      0.0000 
     24 PN         18.3690    0.5280   -4.8500 P.3       1 NAP361      0.0000 
     25 O1N        17.8290    1.7580   -5.3740 O.co2     1 NAP361      0.0000 
     26 O2N        19.0550    0.5980   -3.5740 O.co2     1 NAP361      0.0000 
     27 O5D        17.0650   -0.0340   -4.0490 O.3       1 NAP361      0.0000 
     28 C5D        16.9910   -0.0030   -2.6860 C.3       1 NAP361      0.0000 
     29 C4D        15.7820    0.7150   -2.1590 C.3       1 NAP361      0.0000 
     30 O4D        15.8300    2.0040   -2.7840 O.3       1 NAP361      0.0000 
     31 C3D        14.3850    0.1250   -2.6230 C.3       1 NAP361      0.0000 
     32 O3D        13.4620    0.0340   -1.4980 O.3       1 NAP361      0.0000 
     33 C2D        13.9640    1.1070   -3.7440 C.3       1 NAP361      0.0000 
     34 O2D        12.5290    1.1750   -3.9100 O.3       1 NAP361      0.0000 
     35 C1D        14.5290    2.3990   -3.2380 C.3       1 NAP361      0.0000 
     36 N1N        14.4780    3.5020   -4.2260 N.pl3     1 NAP361      0.0000 
     37 C2N        15.2580    3.3190   -5.3810 C.ar      1 NAP361      0.0000 
     38 C3N        15.2670    4.2880   -6.3870 C.ar      1 NAP361      0.0000 
     39 C7N        16.1320    4.1210   -7.6300 C.2       1 NAP361      0.0000 
     40 O7N        15.9670    4.7970   -8.6510 O.2       1 NAP361      0.0000 
     41 N7N        17.0580    3.1520   -7.5000 N.am      1 NAP361      0.0000 
     42 C4N        14.4640    5.4570   -6.2130 C.ar      1 NAP361      0.0000 
     43 C5N        13.6560    5.6710   -5.0550 C.ar      1 NAP361      0.0000 
     44 C6N        13.6660    4.6910   -4.0520 C.ar      1 NAP361      0.0000 
     45 P2B        17.7860   -9.1260   -4.5340 P.3       1 NAP361      0.0000 
     46 O1X        17.5050   -8.4830   -5.8970 O.co2     1 NAP361      0.0000 
     47 O2X        18.8890  -10.1240   -4.3750 O.co2     1 NAP361      0.0000 
     48 O3X        16.4360   -9.6720   -3.9570 O.co2     1 NAP361      0.0000 
     49 H          16.3315   -3.9570   -4.3167 H         1 NAP361      0.0000 
     50 H          16.1371   -2.8973   -2.9098 H         1 NAP361      0.0000 
     51 H          18.1132   -4.0182   -1.9082 H         1 NAP361      0.0000 
     52 H          18.5364   -5.2143   -4.3653 H         1 NAP361      0.0000 
     53 H          16.6875   -6.5480   -4.2040 H         1 NAP361      0.0000 
     54 H          17.4256   -6.7309   -1.3293 H         1 NAP361      0.0000 
     55 H          14.5072   -7.4285   -3.7771 H         1 NAP361      0.0000 
     56 H          11.9373  -10.2115   -0.9305 H         1 NAP361      0.0000 
     57 H          12.6129  -11.3869    0.2474 H         1 NAP361      0.0000 
     58 H          15.9269   -9.0133    2.2871 H         1 NAP361      0.0000 
     59 H          17.8897    0.4874   -2.2215 H         1 NAP361      0.0000 
     60 H          16.9801   -1.0333   -2.2363 H         1 NAP361      0.0000 
     61 H          15.7911    0.7988   -1.1200 H         1 NAP361      0.0000 
     62 H          14.6040   -0.8184   -3.0754 H         1 NAP361      0.0000 
     63 H          14.4856    0.8269   -4.6237 H         1 NAP361      0.0000 
     64 H          13.9203    2.6627   -2.3509 H         1 NAP361      0.0000 
     65 H          15.8228    2.4671   -5.4820 H         1 NAP361      0.0000 
     66 H          17.6732    3.0240   -8.2779 H         1 NAP361      0.0000 
     67 H          17.0480    2.6467   -6.6371 H         1 NAP361      0.0000 
     68 H          14.4683    6.1772   -6.9559 H         1 NAP361      0.0000 
     69 H          13.0992    6.5057   -4.9724 H         1 NAP361      0.0000 
     70 H          13.1189    4.7925   -3.2063 H         1 NAP361      0.0000 
     71 H          20.0318   -6.5221   -3.2425 H         1 NAP361      0.0000 
     72 H          13.9647   -0.4628   -0.7905 H         1 NAP361      0.0000 
     73 H          12.3253    2.1495   -4.0038 H         1 NAP361      0.0000 
@<TRIPOS>BOND
     1    2    1 ar   
     2    3    1 ar   
     3    4    1 1    
     4   23    1 1    
     5    5    4 1    
     6    6    5 1    
     7   49    5 1    
     8   50    5 1    
     9    7    6 1    
    10    8    6 1    
    11   51    6 1    
    12   12    7 1    
    13    9    8 1    
    14   10    8 1    
    15   52    8 1    
    16   71    9 1    
    17   11   10 1    
    18   12   10 1    
    19   53   10 1    
    20   45   11 1    
    21   13   12 1    
    22   54   12 1    
    23   14   13 1    
    24   22   13 1    
    25   15   14 2    
    26   55   14 1    
    27   16   15 1    
    28   17   16 ar   
    29   22   16 ar   
    30   18   17 1    
    31   19   17 ar   
    32   56   18 1    
    33   57   18 1    
    34   20   19 ar   
    35   21   20 ar   
    36   58   20 1    
    37   22   21 ar   
    38   24   23 1    
    39   25   24 ar   
    40   26   24 ar   
    41   27   24 1    
    42   28   27 1    
    43   29   28 1    
    44   59   28 1    
    45   60   28 1    
    46   30   29 1    
    47   31   29 1    
    48   61   29 1    
    49   35   30 1    
    50   32   31 1    
    51   33   31 1    
    52   62   31 1    
    53   72   32 1    
    54   34   33 1    
    55   35   33 1    
    56   63   33 1    
    57   73   34 1    
    58   36   35 1    
    59   64   35 1    
    60   37   36 ar   
    61   44   36 ar   
    62   38   37 ar   
    63   65   37 1    
    64   39   38 1    
    65   42   38 ar   
    66   40   39 2    
    67   41   39 am   
    68   66   41 1    
    69   67   41 1    
    70   43   42 ar   
    71   68   42 1    
    72   44   43 ar   
    73   69   43 1    
    74   70   44 1    
    75   46   45 ar   
    76   47   45 ar   
    77   48   45 ar   
@<TRIPOS>SUBSTRUCTURE
     1 NAP361      1 GROUP   
@<TRIPOS>SET

