#    Name: 4kfp_1R7_2_INTS_M
#    Modification time : Tue Mar 25 07:52:00 2014

@<TRIPOS>MOLECULE
4kfp_1R7_2_INTS_M
   67     0     6     0     0
SMALL
NO_CHARGES


@<TRIPOS>ATOM
      1 CA         10.1840   -3.5000   43.3890 C.3       2 GLC5        0.0000 
      2 CA         10.0100   -4.5300   44.9270 C.3       6 GLL5        0.0000 
      3 CA         10.3580   -2.4700   41.8510 C.3       4 GLP5        0.0000 
      4 CA         11.0650   -4.3465   42.7820 C.3       2 GLC5        0.0000 
      5 CA         10.9210   -5.3900   44.3640 C.3       6 GLL5        0.0000 
      6 CA         11.2090   -3.3030   41.2000 C.3       4 GLP5        0.0000 
      7 CA         13.0395   -9.1105   43.0530 C.3       2 GLC5        0.0000 
      8 CA         11.7210   -7.6720   43.7630 C.3       6 GLL5        0.0000 
      9 CA         14.3580  -10.5490   42.3430 C.3       4 GLP5        0.0000 
     10 CA         11.5660   -9.4260   44.2765 C.3       2 GLC5        0.0000 
     11 CA         11.4110  -11.1800   44.7900 C.3       4 GLP5        0.0000 
     12 CA         10.2970   -5.5735   48.2885 C.3       2 GLC5        0.0000 
     13 CA          8.7620   -4.2380   48.7430 C.3       6 GLL5        0.0000 
     14 CA         11.8320   -6.9090   47.8340 C.3       4 GLP5        0.0000 
     15 CA         10.4775   -9.2150   44.8825 C.3       2 GLC5        0.0000 
     16 CA          9.5440   -7.2500   44.9750 C.3       6 GLL5        0.0000 
     17 O          12.7345   -6.7420   41.9405 O.2       1 ALC1        0.0000 
     18 O          11.5740   -7.9200   42.3260 O.2       5 ALL1        0.0000 
     19 O          13.8950   -5.5640   41.5550 O.2       3 ALP1        0.0000 
     20 O          12.9335   -7.7235   41.4810 O.2       1 ALC1        0.0000 
     21 O          14.2930   -7.5270   40.6360 O.2       3 ALP1        0.0000 
     22 CA         12.8060   -9.5635   39.6735 C.3       2 GLC5        0.0000 
     23 CA         11.4450   -8.3600   39.5320 C.3       6 GLL5        0.0000 
     24 CA         14.1670  -10.7670   39.8150 C.3       4 GLP5        0.0000 
     25 CA         10.2000   -7.0535   39.7555 C.3       2 GLC5        0.0000 
     26 CA          8.9550   -5.7470   39.9790 C.3       4 GLP5        0.0000 
     27 CA         12.9330   -6.9835   39.3765 C.3       2 GLC5        0.0000 
     28 CA         14.4210   -5.6070   39.2210 C.3       4 GLP5        0.0000 
     29 CA         10.7655  -11.1020   39.9370 C.3       2 GLC5        0.0000 
     30 CA          9.5960   -9.8080   39.8370 C.3       6 GLL5        0.0000 
     31 CA         11.9350  -12.3960   40.0370 C.3       4 GLP5        0.0000 
     32 CA          8.4495   -8.5110   39.4460 C.3       2 GLC5        0.0000 
     33 CA          7.3030   -7.2140   39.0550 C.3       4 GLP5        0.0000 
     34 CA          7.6430  -10.4025   40.6385 C.3       2 GLC5        0.0000 
     35 CA          5.6900  -10.9970   41.4400 C.3       4 GLP5        0.0000 
     36 CA         11.2090   -4.4225   49.6520 C.3       2 GLC5        0.0000 
     37 CA          9.4500   -3.6400   49.9770 C.3       6 GLL5        0.0000 
     38 CA         12.9680   -5.2050   49.3270 C.3       4 GLP5        0.0000 
     39 CA         10.1985   -5.2280   51.1450 C.3       2 GLC5        0.0000 
     40 CA         10.9470   -6.8160   52.3130 C.3       4 GLP5        0.0000 
     41 CA         10.1930   -4.3720   53.0490 C.3       2 GLC5        0.0000 
     42 CA          8.6620   -2.8900   52.9490 C.3       6 GLL5        0.0000 
     43 CA         11.7240   -5.8540   53.1490 C.3       4 GLP5        0.0000 
     44 CA          7.8320   -4.5315   53.5050 C.3       2 GLC5        0.0000 
     45 CA          7.0020   -6.1730   54.0610 C.3       4 GLP5        0.0000 
     46 CA          8.6090   -4.2330   54.6760 C.3       2 GLC5        0.0000 
     47 CA          9.1020   -2.2340   54.2690 C.3       6 GLL5        0.0000 
     48 CA          8.1160   -6.2320   55.0830 C.3       4 GLP5        0.0000 
     49 CA         11.1795   -3.8635   52.4910 C.3       2 GLC5        0.0000 
     50 CA         10.6350   -1.8730   51.8330 C.3       6 GLL5        0.0000 
     51 CA          7.7363   -5.0158   44.1308 C.3       2 GLC5        0.0000 
     52 CA          6.0360   -5.2580   43.0390 C.3       4 GLP5        0.0000 
     53 CA         11.5183   -7.0605   45.9515 C.3       2 GLC5        0.0000 
     54 CA         10.6880   -6.7520   44.3750 C.3       6 GLL5        0.0000 
     55 CA         10.0314   -7.2014   36.4289 C.3       2 GLC5        0.0000 
     56 CA         10.6290   -9.0010   35.8430 C.3       6 GLL5        0.0000 
     57 CA          9.1870   -5.5970   36.1620 C.3       4 GLP5        0.0000 
     58 CA          8.3355   -5.7100   49.7620 C.3       2 GLC5        0.0000 
     59 CA          7.5650   -7.4810   50.1640 C.3       4 GLP5        0.0000 
     60 CA          8.4902    0.1985   48.1882 C.3       2 GLC5        0.0000 
     61 CA          7.7790   -2.0090   48.2450 C.3       6 GLL5        0.0000 
     62 CA          8.8460    2.1340   47.5070 C.3       4 GLP5        0.0000 
     63 CA          8.6535   -8.5070   45.8197 C.3       2 GLC5        0.0000 
     64 CA          8.2220  -10.1980   46.3820 C.3       4 GLP5        0.0000 
     65 CA          7.5605   -6.0370   44.1483 C.3       2 GLC5        0.0000 
     66 CA         10.6033   -6.4056   46.5018 C.3       2 GLC5        0.0000 
     67 CA          8.8630   -5.0170   45.5180 C.3       6 GLL5        0.0000 
@<TRIPOS>BOND
@<TRIPOS>SUBSTRUCTURE
     1 ALC1       17 GROUP        1 X    ALC  0     ROOT ALC X 1
     2 GLC5        1 GROUP        1 X    GLC  0     **** GLC X 6
     3 ALP1       19 GROUP        1 Y    ALP  0     ROOT ALP Y 8
     4 GLP5        3 GROUP        1 Y    GLP  0     **** GLP Y 13
     5 ALL1       18 GROUP        1 Z    ALL  0     ROOT ALL Z 15
     6 GLL5        2 GROUP        1 Z    GLL  0     **** GLL Z 20
@<TRIPOS>SET

