#    Name: 4kfp_1R7_2_ligand
#    Modification time : Tue Mar 25 07:52:00 2014

@<TRIPOS>MOLECULE
4kfp_1R7_2_ligand
   65    69     1     0     0
SMALL
NO_CHARGES


@<TRIPOS>ATOM
      1 C4         10.0100   -4.5300   44.9270 C.ar      1 1R7601      0.0000 
      2 C5         10.9210   -5.3900   44.3640 C.ar      1 1R7601      0.0000 
      3 C6         10.6880   -6.7520   44.3750 C.ar      1 1R7601      0.0000 
      4 C7         11.7210   -7.6720   43.7630 C.3       1 1R7601      0.0000 
      5 C13        10.9210   -8.7670   38.1920 C.ar      1 1R7601      0.0000 
      6 C15        10.6290   -9.0010   35.8430 C.ar      1 1R7601      0.0000 
      7 C17         9.2010  -10.1290   37.2590 C.ar      1 1R7601      0.0000 
      8 C24         8.7620   -4.2380   48.7430 C.3       1 1R7601      0.0000 
      9 C28         7.7790   -2.0090   48.2450 C.3       1 1R7601      0.0000 
     10 C1          9.5440   -7.2500   44.9750 C.ar      1 1R7601      0.0000 
     11 C2          8.6260   -6.3820   45.5400 C.ar      1 1R7601      0.0000 
     12 C3          8.8630   -5.0170   45.5180 C.ar      1 1R7601      0.0000 
     13 N8         11.5740   -7.9200   42.3260 N.am      1 1R7601      0.0000 
     14 C9         10.6090   -8.7400   41.8590 C.2       1 1R7601      0.0000 
     15 O10         9.8120   -9.2870   42.6090 O.2       1 1R7601      0.0000 
     16 N11        10.5510   -8.9490   40.5410 N.am      1 1R7601      0.0000 
     17 C12        11.4450   -8.3600   39.5320 C.2       1 1R7601      0.0000 
     18 C14        11.3240   -8.4540   36.9050 C.ar      1 1R7601      0.0000 
     19 N16         9.6040   -9.8040   36.0390 N.ar      1 1R7601      0.0000 
     20 C18         9.8440   -9.6210   38.3680 C.ar      1 1R7601      0.0000 
     21 C19         9.5960   -9.8080   39.8370 C.2       1 1R7601      0.0000 
     22 S20         7.7250   -3.8710   46.2330 S.o2      1 1R7601      0.0000 
     23 O21         7.5920   -2.8750   45.2230 O.2       1 1R7601      0.0000 
     24 O22         6.5910   -4.6330   46.6300 O.2       1 1R7601      0.0000 
     25 C23         8.5900   -3.1690   47.6670 C.3       1 1R7601      0.0000 
     26 C25         9.4500   -3.6400   49.9770 C.3       1 1R7601      0.0000 
     27 N26         8.6310   -2.5360   50.4970 N.4       1 1R7601      0.0000 
     28 C27         8.4900   -1.4650   49.4940 C.3       1 1R7601      0.0000 
     29 C29         9.1050   -1.9970   51.7850 C.3       1 1R7601      0.0000 
     30 C30         8.6620   -2.8900   52.9490 C.3       1 1R7601      0.0000 
     31 C31         9.1020   -2.2340   54.2690 C.3       1 1R7601      0.0000 
     32 O32        10.5250   -2.0970   54.2690 O.3       1 1R7601      0.0000 
     33 C33        11.0430   -1.2950   53.1990 C.3       1 1R7601      0.0000 
     34 C34        10.6350   -1.8730   51.8330 C.3       1 1R7601      0.0000 
     35 H          10.1832   -3.5089   44.9089 H         1 1R7601      0.0000 
     36 H          11.7837   -5.0214   43.9303 H         1 1R7601      0.0000 
     37 H          11.6961   -8.6405   44.3207 H         1 1R7601      0.0000 
     38 H          12.7328   -7.2459   43.9740 H         1 1R7601      0.0000 
     39 H          10.9467   -8.7540   34.8723 H         1 1R7601      0.0000 
     40 H           8.3918  -10.7736   37.4070 H         1 1R7601      0.0000 
     41 H           9.3703   -5.0483   48.3538 H         1 1R7601      0.0000 
     42 H           7.7884   -4.6227   49.0295 H         1 1R7601      0.0000 
     43 H           6.7938   -2.3588   48.5206 H         1 1R7601      0.0000 
     44 H           7.7003   -1.2210   47.5089 H         1 1R7601      0.0000 
     45 H           9.3764   -8.2661   45.0008 H         1 1R7601      0.0000 
     46 H           7.7688   -6.7489   45.9758 H         1 1R7601      0.0000 
     47 H          12.2408   -7.4384   41.7054 H         1 1R7601      0.0000 
     48 H          12.1750   -7.8480   39.6797 H         1 1R7601      0.0000 
     49 H          12.1178   -7.8323   36.7450 H         1 1R7601      0.0000 
     50 H           8.9717  -10.3516   40.1968 H         1 1R7601      0.0000 
     51 H           9.5058   -2.8531   47.2707 H         1 1R7601      0.0000 
     52 H          10.4357   -3.2873   49.6820 H         1 1R7601      0.0000 
     53 H           9.5612   -4.4255   50.7211 H         1 1R7601      0.0000 
     54 H           7.5956   -2.9444   50.6715 H         1 1R7601      0.0000 
     55 H           7.9000   -0.6387   49.8906 H         1 1R7601      0.0000 
     56 H           9.4666   -1.0854   49.1933 H         1 1R7601      0.0000 
     57 H           8.6890   -1.0081   51.9571 H         1 1R7601      0.0000 
     58 H           9.1296   -3.8573   52.8590 H         1 1R7601      0.0000 
     59 H           7.5883   -2.9868   52.9402 H         1 1R7601      0.0000 
     60 H           8.7524   -2.8688   55.0857 H         1 1R7601      0.0000 
     61 H           8.5983   -1.2680   54.3416 H         1 1R7601      0.0000 
     62 H          12.1408   -1.2469   53.2226 H         1 1R7601      0.0000 
     63 H          10.6672   -0.2632   53.2465 H         1 1R7601      0.0000 
     64 H          10.9656   -1.2081   51.0512 H         1 1R7601      0.0000 
     65 H          11.0778   -2.8486   51.7118 H         1 1R7601      0.0000 
@<TRIPOS>BOND
     1    2    1 ar   
     2   12    1 ar   
     3   35    1 1    
     4    3    2 ar   
     5   36    2 1    
     6    4    3 1    
     7   10    3 ar   
     8   13    4 1    
     9   37    4 1    
    10   38    4 1    
    11   17    5 2    
    12   18    5 ar   
    13   20    5 ar   
    14   18    6 ar   
    15   19    6 ar   
    16   39    6 1    
    17   19    7 ar   
    18   20    7 ar   
    19   40    7 1    
    20   25    8 1    
    21   26    8 1    
    22   41    8 1    
    23   42    8 1    
    24   25    9 1    
    25   28    9 1    
    26   43    9 1    
    27   44    9 1    
    28   11   10 ar   
    29   45   10 1    
    30   12   11 ar   
    31   46   11 1    
    32   22   12 1    
    33   14   13 am   
    34   47   13 1    
    35   15   14 2    
    36   16   14 am   
    37   17   16 1    
    38   21   16 1    
    39   48   17 1    
    40   49   18 1    
    41   21   20 2    
    42   50   21 1    
    43   23   22 2    
    44   24   22 2    
    45   25   22 1    
    46   51   25 1    
    47   27   26 1    
    48   52   26 1    
    49   53   26 1    
    50   28   27 1    
    51   29   27 1    
    52   54   27 1    
    53   55   28 1    
    54   56   28 1    
    55   30   29 1    
    56   34   29 1    
    57   57   29 1    
    58   31   30 1    
    59   58   30 1    
    60   59   30 1    
    61   32   31 1    
    62   60   31 1    
    63   61   31 1    
    64   33   32 1    
    65   34   33 1    
    66   62   33 1    
    67   63   33 1    
    68   64   34 1    
    69   65   34 1    
@<TRIPOS>SUBSTRUCTURE
     1 1R7601      1 GROUP   
@<TRIPOS>SET

