#    Name: 4emt_C2E_1_INTS_M
#    Modification time : Mon Mar 24 18:17:43 2014

@<TRIPOS>MOLECULE
4emt_C2E_1_INTS_M
   56     0     9     0     0
SMALL
NO_CHARGES


@<TRIPOS>ATOM
      1 CA         54.2290   20.2265   76.6605 C.3       3 GLC5        0.0000 
      2 CA         53.2490   18.8080   75.5500 C.3       9 GLL5        0.0000 
      3 CA         55.2090   21.6450   77.7710 C.3       6 GLP5        0.0000 
      4 CA         53.8210   20.8050   73.8735 C.3       3 GLC5        0.0000 
      5 CA         52.3350   19.2720   74.5340 C.3       9 GLL5        0.0000 
      6 CA         55.3070   22.3380   73.2130 C.3       6 GLP5        0.0000 
      7 O          50.0320   19.9460   71.3325 O.2       1 ALC1        0.0000 
      8 O          50.0610   19.8750   72.9400 O.2       7 ALL1        0.0000 
      9 O          50.0030   20.0170   69.7250 O.2       4 ALP1        0.0000 
     10 CA         52.7045   20.3550   71.5160 C.3       3 GLC5        0.0000 
     11 CA         52.0240   18.7300   72.2940 C.3       9 GLL5        0.0000 
     12 CA         53.3850   21.9800   70.7380 C.3       6 GLP5        0.0000 
     13 CA         54.0135   18.6050   71.3805 C.3       3 GLC5        0.0000 
     14 CA         56.0030   18.4800   70.4670 C.3       6 GLP5        0.0000 
     15 N          53.6970   14.1040   72.0260 N.am      2 SEC2        0.0000 
     16 N          53.1980   15.3570   71.4860 N.am      8 SEL2        0.0000 
     17 N          54.1960   12.8510   72.5660 N.am      5 SEP2        0.0000 
     18 O          51.1680   19.1835   66.7365 O.2       1 ALC1        0.0000 
     19 O          51.0530   17.7430   67.1080 O.2       7 ALL1        0.0000 
     20 O          51.2830   20.6240   66.3650 O.2       4 ALP1        0.0000 
     21 N          50.8440   18.8415   69.5510 N.am      2 SEC2        0.0000 
     22 N          51.6850   17.6660   69.3770 N.am      8 SEL2        0.0000 
     23 N          50.0030   20.0170   69.7250 N.am      5 SEP2        0.0000 
     24 CA         49.7480   19.4290   78.7515 C.3       3 GLC5        0.0000 
     25 CA         50.6030   17.6780   78.1970 C.3       9 GLL5        0.0000 
     26 CA         48.8930   21.1800   79.3060 C.3       6 GLP5        0.0000 
     27 CA         50.1260   17.3425   80.7950 C.3       3 GLC5        0.0000 
     28 CA         51.5170   16.8800   79.1150 C.3       9 GLL5        0.0000 
     29 CA         48.7350   17.8050   82.4750 C.3       6 GLP5        0.0000 
     30 CA         53.9965   14.0970   80.6320 C.3       3 GLC5        0.0000 
     31 CA         52.8650   15.1610   79.2480 C.3       9 GLL5        0.0000 
     32 CA         55.1280   13.0330   82.0160 C.3       6 GLP5        0.0000 
     33 O          53.7035   14.4300   81.2070 O.2       1 ALC1        0.0000 
     34 O          53.6950   15.6710   80.2480 O.2       7 ALL1        0.0000 
     35 O          53.7120   13.1890   82.1660 O.2       4 ALP1        0.0000 
     36 CA         51.0335   15.0705   81.6505 C.3       3 GLC5        0.0000 
     37 CA         51.5450   14.7610   79.8210 C.3       9 GLL5        0.0000 
     38 CA         50.5220   15.3800   83.4800 C.3       6 GLP5        0.0000 
     39 CA         49.4990   14.1000   80.3225 C.3       3 GLC5        0.0000 
     40 CA         47.4530   13.4390   80.8240 C.3       6 GLP5        0.0000 
     41 O          50.6690    8.4255   80.2730 O.2       1 ALC1        0.0000 
     42 O          50.9470    9.6920   79.8020 O.2       7 ALL1        0.0000 
     43 O          50.3910    7.1590   80.7440 O.2       4 ALP1        0.0000 
     44 O          52.2320   10.3820   83.2520 O.2       1 ALC1        0.0000 
     45 O          52.1640    9.8940   81.8290 O.2       7 ALL1        0.0000 
     46 O          52.3000   10.8700   84.6750 O.2       4 ALP1        0.0000 
     47 N          52.6700   12.5025   81.3585 N.am      2 SEC2        0.0000 
     48 N          51.6280   11.8160   80.5510 N.am      8 SEL2        0.0000 
     49 N          53.7120   13.1890   82.1660 N.am      5 SEP2        0.0000 
     50 CA         49.9778   19.3107   71.2512 C.3       3 GLC5        0.0000 
     51 CA         50.7350   18.6470   73.0270 C.3       9 GLL5        0.0000 
     52 CA         48.5760   19.9330   69.8420 C.3       6 GLP5        0.0000 
     53 CA         54.2368   17.4275   70.4070 C.3       3 GLC5        0.0000 
     54 CA         52.2270   17.0220   70.4160 C.3       9 GLL5        0.0000 
     55 CA         49.0885   12.7045   79.9112 C.3       3 GLC5        0.0000 
     56 CA         50.3940   11.5840   78.5240 C.3       9 GLL5        0.0000 
@<TRIPOS>BOND
@<TRIPOS>SUBSTRUCTURE
     1 ALC1        7 GROUP        1 X    ALC  0     ROOT ALC X 1
     2 SEC2       15 GROUP        1 X    SEC  0     **** SEC X 2
     3 GLC5        1 GROUP        1 X    GLC  0     **** GLC X 6
     4 ALP1        9 GROUP        1 Y    ALP  0     ROOT ALP Y 8
     5 SEP2       17 GROUP        1 Y    SEP  0     **** SEP Y 9
     6 GLP5        3 GROUP        1 Y    GLP  0     **** GLP Y 13
     7 ALL1        8 GROUP        1 Z    ALL  0     ROOT ALL Z 15
     8 SEL2       16 GROUP        1 Z    SEL  0     **** SEL Z 16
     9 GLL5        2 GROUP        1 Z    GLL  0     **** GLL Z 20
@<TRIPOS>SET

