#    Name: 4emt_C2E_1_ligand
#    Modification time : Mon Mar 24 18:17:43 2014

@<TRIPOS>MOLECULE
4emt_C2E_1_ligand
   68    74     1     0     0
SMALL
NO_CHARGES


@<TRIPOS>ATOM
      1 P1         54.4070   16.8200   76.6630 P.3       1 C2E401      0.0000 
      2 O2P        55.7250   17.6500   76.8540 O.co2     1 C2E401      0.0000 
      3 O1P        54.7330   15.3540   76.4060 O.co2     1 C2E401      0.0000 
      4 O5'        53.6820   17.4840   75.4520 O.3       1 C2E401      0.0000 
      5 C5'        53.2490   18.8080   75.5500 C.3       1 C2E401      0.0000 
      6 C4'        52.3350   19.2720   74.5340 C.3       1 C2E401      0.0000 
      7 O4'        52.9910   19.2280   73.1670 O.3       1 C2E401      0.0000 
      8 C3'        51.1520   18.4060   74.4030 C.3       1 C2E401      0.0000 
      9 O3'        50.1980   18.8080   75.3300 O.3       1 C2E401      0.0000 
     10 C2'        50.7350   18.6470   73.0270 C.3       1 C2E401      0.0000 
     11 O2'        50.0610   19.8750   72.9400 O.3       1 C2E401      0.0000 
     12 C1'        52.0240   18.7300   72.2940 C.3       1 C2E401      0.0000 
     13 N9         52.4090   17.3980   71.6920 N.pl3     1 C2E401      0.0000 
     14 C8         52.9980   16.3730   72.3370 C.2       1 C2E401      0.0000 
     15 N7         53.1980   15.3570   71.4860 N.2       1 C2E401      0.0000 
     16 C5         52.7140   15.7280   70.2780 C.2       1 C2E401      0.0000 
     17 C6         52.6290   15.1370   69.0150 C.2       1 C2E401      0.0000 
     18 O6         53.0740   13.8950   68.7780 O.2       1 C2E401      0.0000 
     19 N1         52.0760   15.8180   68.0090 N.am      1 C2E401      0.0000 
     20 C2         51.6200   17.0670   68.1900 C.2       1 C2E401      0.0000 
     21 N2         51.0530   17.7430   67.1080 N.pl3     1 C2E401      0.0000 
     22 N3         51.6850   17.6660   69.3770 N.2       1 C2E401      0.0000 
     23 C4         52.2270   17.0220   70.4160 C.2       1 C2E401      0.0000 
     24 P11        49.2220   17.6990   75.9800 P.3       1 C2E401      0.0000 
     25 O21        48.1010   18.4490   76.6470 O.co2     1 C2E401      0.0000 
     26 O11        48.7260   16.7040   75.0090 O.co2     1 C2E401      0.0000 
     27 O5A        49.9880   16.9250   77.1150 O.3       1 C2E401      0.0000 
     28 C5A        50.6030   17.6780   78.1970 C.3       1 C2E401      0.0000 
     29 C4A        51.5170   16.8800   79.1150 C.3       1 C2E401      0.0000 
     30 O4A        50.7610   15.8920   79.7400 O.3       1 C2E401      0.0000 
     31 C3A        52.4910   16.1540   78.3560 C.3       1 C2E401      0.0000 
     32 O3A        53.5960   17.0510   78.0030 O.3       1 C2E401      0.0000 
     33 C2A        52.8650   15.1610   79.2480 C.3       1 C2E401      0.0000 
     34 O2A        53.6950   15.6710   80.2480 O.3       1 C2E401      0.0000 
     35 C1A        51.5450   14.7610   79.8210 C.3       1 C2E401      0.0000 
     36 N91        50.9530   13.6400   79.0890 N.pl3     1 C2E401      0.0000 
     37 C81        50.2750   13.6730   77.9250 C.2       1 C2E401      0.0000 
     38 N71        49.9310   12.4290   77.5740 N.2       1 C2E401      0.0000 
     39 C51        50.3940   11.5840   78.5240 C.2       1 C2E401      0.0000 
     40 C61        50.3550   10.2050   78.7190 C.2       1 C2E401      0.0000 
     41 O61        49.7390    9.3560   77.8350 O.2       1 C2E401      0.0000 
     42 N11        50.9470    9.6920   79.8020 N.am      1 C2E401      0.0000 
     43 C21        51.5510   10.5010   80.6870 C.2       1 C2E401      0.0000 
     44 N21        52.1640    9.8940   81.8290 N.pl3     1 C2E401      0.0000 
     45 N31        51.6280   11.8160   80.5510 N.2       1 C2E401      0.0000 
     46 C41        51.0540   12.3560   79.4730 C.2       1 C2E401      0.0000 
     47 H          54.1439   19.5121   75.5740 H         1 C2E401      0.0000 
     48 H          52.7733   18.9902   76.5686 H         1 C2E401      0.0000 
     49 H          52.0185   20.2831   74.7072 H         1 C2E401      0.0000 
     50 H          51.4633   17.3948   74.5129 H         1 C2E401      0.0000 
     51 H          50.1819   17.8266   72.6654 H         1 C2E401      0.0000 
     52 H          51.8722   19.4371   71.4554 H         1 C2E401      0.0000 
     53 H          53.2414   16.3734   73.2827 H         1 C2E401      0.0000 
     54 H          51.9950   15.3721   67.0596 H         1 C2E401      0.0000 
     55 H          50.5684   17.1774   66.4408 H         1 C2E401      0.0000 
     56 H          51.1802   18.7347   67.0932 H         1 C2E401      0.0000 
     57 H          49.8167   18.1559   78.8328 H         1 C2E401      0.0000 
     58 H          51.1964   18.5325   77.7865 H         1 C2E401      0.0000 
     59 H          51.9753   17.5315   79.8096 H         1 C2E401      0.0000 
     60 H          52.0303   15.7510   77.4832 H         1 C2E401      0.0000 
     61 H          53.2702   14.3175   78.7449 H         1 C2E401      0.0000 
     62 H          51.7139   14.4791   80.8568 H         1 C2E401      0.0000 
     63 H          50.0697   14.4819   77.4207 H         1 C2E401      0.0000 
     64 H          50.9412    8.6582   79.9628 H         1 C2E401      0.0000 
     65 H          52.5456    8.9802   81.6899 H         1 C2E401      0.0000 
     66 H          52.1592   10.4346   82.6703 H         1 C2E401      0.0000 
     67 H          49.7787   19.9480   71.9835 H         1 C2E401      0.0000 
     68 H          53.9488   14.8785   80.8026 H         1 C2E401      0.0000 
@<TRIPOS>BOND
     1    2    1 ar   
     2    3    1 ar   
     3    4    1 1    
     4   32    1 1    
     5    5    4 1    
     6    6    5 1    
     7   47    5 1    
     8   48    5 1    
     9    7    6 1    
    10    8    6 1    
    11   49    6 1    
    12   12    7 1    
    13    9    8 1    
    14   10    8 1    
    15   50    8 1    
    16   24    9 1    
    17   11   10 1    
    18   12   10 1    
    19   51   10 1    
    20   67   11 1    
    21   13   12 1    
    22   52   12 1    
    23   14   13 1    
    24   23   13 1    
    25   15   14 2    
    26   53   14 1    
    27   16   15 1    
    28   17   16 1    
    29   23   16 2    
    30   18   17 2    
    31   19   17 am   
    32   20   19 1    
    33   54   19 1    
    34   21   20 1    
    35   22   20 2    
    36   55   21 1    
    37   56   21 1    
    38   23   22 1    
    39   25   24 ar   
    40   26   24 ar   
    41   27   24 1    
    42   28   27 1    
    43   29   28 1    
    44   57   28 1    
    45   58   28 1    
    46   30   29 1    
    47   31   29 1    
    48   59   29 1    
    49   35   30 1    
    50   32   31 1    
    51   33   31 1    
    52   60   31 1    
    53   34   33 1    
    54   35   33 1    
    55   61   33 1    
    56   68   34 1    
    57   36   35 1    
    58   62   35 1    
    59   37   36 1    
    60   46   36 1    
    61   38   37 2    
    62   63   37 1    
    63   39   38 1    
    64   40   39 1    
    65   46   39 2    
    66   41   40 2    
    67   42   40 am   
    68   43   42 1    
    69   64   42 1    
    70   44   43 1    
    71   45   43 2    
    72   65   44 1    
    73   66   44 1    
    74   46   45 1    
@<TRIPOS>SUBSTRUCTURE
     1 C2E401      1 GROUP   
@<TRIPOS>SET

