#    Name: 3l5f_BDX_2_INTS_M
#    Modification time : Mon Mar 24 21:02:46 2014

@<TRIPOS>MOLECULE
3l5f_BDX_2_INTS_M
   54     0     9     0     0
SMALL
NO_CHARGES


@<TRIPOS>ATOM
      1 OD1        20.9860   37.1395   57.7455 O.co2     2 ASC3        0.0000 
      2 OD1        21.2490   35.2220   58.1390 O.co2     8 ASL3        0.0000 
      3 OD1        20.2520   38.6900   58.3070 O.co2     5 ASP3        0.0000 
      4 OD1        21.3880   38.2640   56.5120 O.co2     5 ASP3        0.0000 
      5 OD1        20.1645   35.8210   60.3160 O.co2     2 ASC3        0.0000 
      6 OD1        19.7450   35.6270   61.6530 O.co2     5 ASP3        0.0000 
      7 O          21.6520   36.9700   56.7810 O.2       1 ALC1        0.0000 
      8 O          21.9160   35.6760   57.0500 O.2       7 ALL1        0.0000 
      9 O          21.3880   38.2640   56.5120 O.2       4 ALP1        0.0000 
     10 O          20.4180   37.3525   58.6430 O.2       1 ALC1        0.0000 
     11 O          20.5840   36.0150   58.9790 O.2       7 ALL1        0.0000 
     12 O          20.2520   38.6900   58.3070 O.2       4 ALP1        0.0000 
     13 O          20.9860   37.1395   57.7455 O.2       1 ALC1        0.0000 
     14 O          20.1645   35.8210   60.3160 O.2       1 ALC1        0.0000 
     15 O          19.7450   35.6270   61.6530 O.2       4 ALP1        0.0000 
     16 CA         24.6800   32.5335   56.1000 C.3       3 GLC5        0.0000 
     17 CA         24.0410   34.5920   56.4120 C.3       9 GLL5        0.0000 
     18 CA         25.3190   30.4750   55.7880 C.3       6 GLP5        0.0000 
     19 CA         21.3650   32.0775   54.1870 C.3       3 GLC5        0.0000 
     20 CA         20.5790   33.9700   54.6860 C.3       9 GLL5        0.0000 
     21 CA         22.1510   30.1850   53.6880 C.3       6 GLP5        0.0000 
     22 CA         21.4770   32.2025   52.8310 C.3       3 GLC5        0.0000 
     23 CA         20.3630   33.7160   53.1860 C.3       9 GLL5        0.0000 
     24 CA         22.5910   30.6890   52.4760 C.3       6 GLP5        0.0000 
     25 CA         22.5310   32.2545   54.8480 C.3       3 GLC5        0.0000 
     26 CA         22.0370   34.3720   54.9300 C.3       9 GLL5        0.0000 
     27 CA         23.0250   30.1370   54.7660 C.3       6 GLP5        0.0000 
     28 CA         22.3190   36.2110   53.7660 C.3       3 GLC5        0.0000 
     29 CA         22.6010   38.0500   52.6020 C.3       6 GLP5        0.0000 
     30 CA         29.1125   37.0825   60.2810 C.3       3 GLC5        0.0000 
     31 CA         28.0370   35.7030   59.3920 C.3       9 GLL5        0.0000 
     32 CA         30.1880   38.4620   61.1700 C.3       6 GLP5        0.0000 
     33 CA         30.1215   35.3025   56.1335 C.3       3 GLC5        0.0000 
     34 CA         28.4950   34.5520   57.1900 C.3       9 GLL5        0.0000 
     35 CA         31.7480   36.0530   55.0770 C.3       6 GLP5        0.0000 
     36 CA         26.1600   32.3465   56.4190 C.3       3 GLC5        0.0000 
     37 CA         27.0010   34.2180   57.0500 C.3       9 GLL5        0.0000 
     38 CA         24.4902   36.5633   57.1337 C.3       3 GLC5        0.0000 
     39 CA         24.6500   38.5050   57.1560 C.3       6 GLP5        0.0000 
     40 CA         17.7706   36.3169   53.8983 C.3       3 GLC5        0.0000 
     41 CA         17.9860   34.4940   53.2980 C.3       9 GLL5        0.0000 
     42 CA         17.1250   37.9750   53.6420 C.3       6 GLP5        0.0000 
     43 CA         17.6397   34.9720   51.4802 C.3       3 GLC5        0.0000 
     44 CA         16.8290   35.9880   49.9180 C.3       6 GLP5        0.0000 
     45 CA         20.7775   33.7040   51.4222 C.3       3 GLC5        0.0000 
     46 CA         18.9150   33.4180   52.7870 C.3       9 GLL5        0.0000 
     47 CA         21.9160   33.8410   49.8580 C.3       6 GLP5        0.0000 
     48 CA         25.4913   36.8498   57.8705 C.3       3 GLC5        0.0000 
     49 CA         26.0820   35.1230   57.8660 C.3       9 GLL5        0.0000 
     50 CA         26.7460   35.7067   61.2855 C.3       3 GLC5        0.0000 
     51 CA         26.5830   35.2660   59.3040 C.3       9 GLL5        0.0000 
     52 CA         26.1820   35.9290   63.2230 C.3       6 GLP5        0.0000 
     53 CA         28.1480   33.9485   55.3720 C.3       3 GLC5        0.0000 
     54 CA         28.5480   33.5120   53.6240 C.3       6 GLP5        0.0000 
@<TRIPOS>BOND
@<TRIPOS>SUBSTRUCTURE
     1 ALC1        7 GROUP        1 X    ALC  0     ROOT ALC X 1
     2 ASC3        1 GROUP        1 X    ASC  0     **** ASC X 3
     3 GLC5       16 GROUP        1 X    GLC  0     **** GLC X 6
     4 ALP1        9 GROUP        1 Y    ALP  0     ROOT ALP Y 8
     5 ASP3        3 GROUP        1 Y    ASP  0     **** ASP Y 10
     6 GLP5       18 GROUP        1 Y    GLP  0     **** GLP Y 13
     7 ALL1        8 GROUP        1 Z    ALL  0     ROOT ALL Z 15
     8 ASL3        2 GROUP        1 Z    ASL  0     **** ASL Z 17
     9 GLL5       17 GROUP        1 Z    GLL  0     **** GLL Z 20
@<TRIPOS>SET

