#    Name: 3l5f_BDX_2_ligand
#    Modification time : Mon Mar 24 21:02:46 2014

@<TRIPOS>MOLECULE
3l5f_BDX_2_ligand
   57    59     1     0     0
SMALL
NO_CHARGES


@<TRIPOS>ATOM
      1 C1         21.2490   35.2220   58.1390 C.cat     1 BDX1        0.0000 
      2 N1         21.3100   33.8820   58.3070 N.am      1 BDX1        0.0000 
      3 O1         22.3280   32.1720   57.1170 O.2       1 BDX1        0.0000 
      4 C2         22.0480   33.3610   57.2960 C.2       1 BDX1        0.0000 
      5 N2         21.9160   35.6760   57.0500 N.pl3     1 BDX1        0.0000 
      6 C3         22.5070   34.5150   56.3960 C.3       1 BDX1        0.0000 
      7 N3         20.5840   36.0150   58.9790 N.pl3     1 BDX1        0.0000 
      8 C4         24.0410   34.5920   56.4120 C.3       1 BDX1        0.0000 
      9 C5         20.5790   33.9700   54.6860 C.3       1 BDX1        0.0000 
     10 C6         19.5670   34.9770   55.2160 C.3       1 BDX1        0.0000 
     11 C7         18.1260   34.6700   54.8060 C.3       1 BDX1        0.0000 
     12 C8         17.9860   34.4940   53.2980 C.3       1 BDX1        0.0000 
     13 C9         18.9150   33.4180   52.7870 C.3       1 BDX1        0.0000 
     14 C10        20.3630   33.7160   53.1860 C.3       1 BDX1        0.0000 
     15 C11        22.0370   34.3720   54.9300 C.3       1 BDX1        0.0000 
     16 C12        24.6200   34.6510   57.8110 C.3       1 BDX1        0.0000 
     17 C13        26.0820   35.1230   57.8660 C.3       1 BDX1        0.0000 
     18 C14        26.5830   35.2660   59.3040 C.3       1 BDX1        0.0000 
     19 C15        28.0370   35.7030   59.3920 C.3       1 BDX1        0.0000 
     20 C16        28.9280   34.7230   58.6440 C.3       1 BDX1        0.0000 
     21 C17        28.4950   34.5520   57.1900 C.3       1 BDX1        0.0000 
     22 C18        27.0010   34.2180   57.0500 C.3       1 BDX1        0.0000 
     23 C19        20.6950   33.1230   59.3760 C.3       1 BDX1        0.0000 
     24 H          22.0139   36.5496   56.7296 H         1 BDX1        0.0000 
     25 H          20.1470   35.5639   59.7572 H         1 BDX1        0.0000 
     26 H          20.5819   36.9897   58.7554 H         1 BDX1        0.0000 
     27 H          24.3536   35.4828   55.8488 H         1 BDX1        0.0000 
     28 H          24.4420   33.7134   55.8868 H         1 BDX1        0.0000 
     29 H          20.4090   33.0092   55.1965 H         1 BDX1        0.0000 
     30 H          19.8339   35.9815   54.8525 H         1 BDX1        0.0000 
     31 H          19.6262   35.0030   56.3152 H         1 BDX1        0.0000 
     32 H          17.4790   35.4885   55.1350 H         1 BDX1        0.0000 
     33 H          17.7993   33.7543   55.3076 H         1 BDX1        0.0000 
     34 H          18.2170   35.4413   52.8059 H         1 BDX1        0.0000 
     35 H          16.9529   34.2269   53.0650 H         1 BDX1        0.0000 
     36 H          18.8522   33.3632   51.7001 H         1 BDX1        0.0000 
     37 H          18.6252   32.4532   53.2035 H         1 BDX1        0.0000 
     38 H          21.0009   32.8692   52.8752 H         1 BDX1        0.0000 
     39 H          20.7142   34.5997   52.6235 H         1 BDX1        0.0000 
     40 H          22.7012   33.6304   54.4236 H         1 BDX1        0.0000 
     41 H          22.2328   35.3393   54.4071 H         1 BDX1        0.0000 
     42 H          24.5574   33.6519   58.2749 H         1 BDX1        0.0000 
     43 H          24.0098   35.3299   58.4308 H         1 BDX1        0.0000 
     44 H          26.1179   36.1286   57.4053 H         1 BDX1        0.0000 
     45 H          26.4634   34.3020   59.8195 H         1 BDX1        0.0000 
     46 H          25.9528   35.9988   59.8286 H         1 BDX1        0.0000 
     47 H          28.3399   35.7413   60.4362 H         1 BDX1        0.0000 
     48 H          28.1434   36.6934   58.9547 H         1 BDX1        0.0000 
     49 H          28.8943   33.7498   59.1438 H         1 BDX1        0.0000 
     50 H          29.9616   35.0824   58.6692 H         1 BDX1        0.0000 
     51 H          29.0816   33.7480   56.7306 H         1 BDX1        0.0000 
     52 H          28.7036   35.4769   56.6399 H         1 BDX1        0.0000 
     53 H          26.7226   34.2866   55.9860 H         1 BDX1        0.0000 
     54 H          26.8432   33.1719   57.3582 H         1 BDX1        0.0000 
     55 H          20.8800   32.1440   59.2905 H         1 BDX1        0.0000 
     56 H          21.0306   33.4073   60.2741 H         1 BDX1        0.0000 
     57 H          19.7012   33.2337   59.3860 H         1 BDX1        0.0000 
@<TRIPOS>BOND
     1    2    1 ar   
     2    5    1 ar   
     3    7    1 ar   
     4    4    2 am   
     5   23    2 1    
     6    4    3 2    
     7    6    4 1    
     8    6    5 1    
     9   24    5 1    
    10    8    6 1    
    11   15    6 1    
    12   25    7 1    
    13   26    7 1    
    14   16    8 1    
    15   27    8 1    
    16   28    8 1    
    17   10    9 1    
    18   14    9 1    
    19   15    9 1    
    20   29    9 1    
    21   11   10 1    
    22   30   10 1    
    23   31   10 1    
    24   12   11 1    
    25   32   11 1    
    26   33   11 1    
    27   13   12 1    
    28   34   12 1    
    29   35   12 1    
    30   14   13 1    
    31   36   13 1    
    32   37   13 1    
    33   38   14 1    
    34   39   14 1    
    35   40   15 1    
    36   41   15 1    
    37   17   16 1    
    38   42   16 1    
    39   43   16 1    
    40   18   17 1    
    41   22   17 1    
    42   44   17 1    
    43   19   18 1    
    44   45   18 1    
    45   46   18 1    
    46   20   19 1    
    47   47   19 1    
    48   48   19 1    
    49   21   20 1    
    50   49   20 1    
    51   50   20 1    
    52   22   21 1    
    53   51   21 1    
    54   52   21 1    
    55   53   22 1    
    56   54   22 1    
    57   55   23 1    
    58   56   23 1    
    59   57   23 1    
@<TRIPOS>SUBSTRUCTURE
     1 BDX1        1 GROUP   
@<TRIPOS>SET

