#    Name: 1WU8_1_CAVITY_N1_ALL.mol2
#    Modification time : Mon Mar 10 16:57:02 2014

@<TRIPOS>MOLECULE
1WU8_1_CAVITY_N1_ALL.mol2
   38     0     6     0     0
SMALL
NO_CHARGES


@<TRIPOS>ATOM
      1 N         -43.4365   -7.5606   12.8231 N.2       2 ALA2        0.0000 
      2 CZ        -42.6543   -7.9194   11.5945 C.ar      4 PHE5        0.0000 
      3 N         -44.5199   -8.5127   12.4114 N.2       2 ALA2        0.0000 
      4 CZ        -43.7378   -8.8715   11.1828 C.ar      4 PHE5        0.0000 
      5 N         -44.8212   -9.8237   10.7711 N.2       2 ALA2        0.0000 
      6 CZ        -44.1179   -6.4585   12.0674 C.ar      4 PHE5        0.0000 
      7 CZ        -43.3357   -6.8173   10.8388 C.ar      4 PHE5        0.0000 
      8 CZ        -42.5536   -7.1761    9.6102 C.ar      4 PHE5        0.0000 
      9 N         -45.9835   -7.0518   12.8843 N.2       2 ALA2        0.0000 
     10 N         -45.2014   -7.4106   11.6557 N.2       2 ALA2        0.0000 
     11 DU        -44.4192   -7.7694   10.4271 H         6 CUB7        0.0000 
     12 OG        -43.6370   -8.1282    9.1985 O.2       1 SER1        0.0000 
     13 N         -47.0670   -8.0040   12.4727 N.2       2 ALA2        0.0000 
     14 N         -46.2848   -8.3628   11.2440 N.2       2 ALA2        0.0000 
     15 N         -45.5027   -8.7216   10.0154 N.2       2 ALA2        0.0000 
     16 N         -44.7205   -9.0804    8.7868 N.2       2 ALA2        0.0000 
     17 OG        -43.9383   -9.4392    7.5582 O.2       1 SER1        0.0000 
     18 N         -47.3683   -9.3149   10.8324 N.2       2 ALA2        0.0000 
     19 NZ        -44.7993   -5.3563   11.3118 N.2       3 LYS4        0.0000 
     20 O         -46.6649   -5.9497   12.1287 O.2       2 ALA2        0.0000 
     21 CZ        -45.8828   -6.3085   10.9001 C.ar      4 PHE5        0.0000 
     22 CZ        -45.1006   -6.6673    9.6715 C.ar      4 PHE5        0.0000 
     23 CZ        -44.3185   -7.0261    8.4428 C.ar      4 PHE5        0.0000 
     24 CZ        -43.5363   -7.3849    7.2142 C.ar      4 PHE5        0.0000 
     25 CA        -47.7484   -6.9019   11.7170 C.3       5 GLY6        0.0000 
     26 CZ        -46.9662   -7.2607   10.4884 C.ar      4 PHE5        0.0000 
     27 N         -46.1841   -7.6195    9.2598 N.2       2 ALA2        0.0000 
     28 N         -45.4019   -7.9783    8.0312 N.2       2 ALA2        0.0000 
     29 CZ        -44.6198   -8.3371    6.8025 C.ar      4 PHE5        0.0000 
     30 CA        -48.8319   -7.8540   11.3053 C.3       5 GLY6        0.0000 
     31 N         -48.0497   -8.2128   10.0767 N.2       2 ALA2        0.0000 
     32 N         -45.7032   -9.2892    6.3909 N.2       2 ALA2        0.0000 
     33 CZ        -45.7820   -5.5652    8.9158 C.ar      4 PHE5        0.0000 
     34 CZ        -44.9999   -5.9240    7.6872 C.ar      4 PHE5        0.0000 
     35 CZ        -46.8655   -6.5174    8.5041 C.ar      4 PHE5        0.0000 
     36 CZ        -46.0833   -6.8762    7.2755 C.ar      4 PHE5        0.0000 
     37 CZ        -45.3012   -7.2350    6.0469 C.ar      4 PHE5        0.0000 
     38 CZ        -47.1668   -7.8283    6.8638 C.ar      4 PHE5        0.0000 
@<TRIPOS>BOND
@<TRIPOS>SUBSTRUCTURE
     1 SER1       12 GROUP   
     2 ALA2        1 GROUP   
     3 LYS4       19 GROUP   
     4 PHE5        2 GROUP   
     5 GLY6       25 GROUP   
     6 CUB7       11 GROUP   
@<TRIPOS>SET

