#    Name: 1wu8_ADN_1_INTS_M
#    Modification time : Tue Mar 25 09:18:25 2014

@<TRIPOS>MOLECULE
1wu8_ADN_1_INTS_M
   57     0     9     0     0
SMALL
NO_CHARGES


@<TRIPOS>ATOM
      1 O         -44.6895   -8.3140    8.2505 O.2       1 ALC1        0.0000 
      2 O         -44.9100   -6.9630    9.1070 O.2       7 ALL1        0.0000 
      3 O         -44.4690   -9.6650    7.3940 O.2       4 ALP1        0.0000 
      4 CA        -47.3105   -5.7100    9.7780 C.3       3 GLC5        0.0000 
      5 CA        -46.1100   -7.5260    9.6440 C.3       9 GLL5        0.0000 
      6 CA        -48.5110   -3.8940    9.9120 C.3       6 GLP5        0.0000 
      7 CA        -47.9325   -7.8315    8.3725 C.3       3 GLC5        0.0000 
      8 CA        -49.7550   -8.1370    7.1010 C.3       6 GLP5        0.0000 
      9 CA        -45.8625   -9.5670   12.0160 C.3       3 GLC5        0.0000 
     10 CA        -45.9720   -7.7140   11.1570 C.3       9 GLL5        0.0000 
     11 CA        -45.7530  -11.4200   12.8750 C.3       6 GLP5        0.0000 
     12 CA        -47.1315   -5.1425   10.9015 C.3       3 GLC5        0.0000 
     13 CA        -45.7520   -6.3910   11.8910 C.3       9 GLL5        0.0000 
     14 CA        -46.9570   -6.9575   13.4965 C.3       3 GLC5        0.0000 
     15 CA        -48.1620   -7.5240   15.1020 C.3       6 GLP5        0.0000 
     16 N         -46.4545   -6.0455   14.3980 N.am      2 SEC2        0.0000 
     17 N         -46.1210   -6.4960   13.2680 N.am      8 SEL2        0.0000 
     18 N         -46.7880   -5.5950   15.5280 N.am      5 SEP2        0.0000 
     19 O         -45.9345   -7.6090   14.0225 O.2       1 ALC1        0.0000 
     20 O         -46.1210   -6.4960   13.2680 O.2       7 ALL1        0.0000 
     21 O         -45.7480   -8.7220   14.7770 O.2       4 ALP1        0.0000 
     22 N         -42.3750   -5.4070   13.6645 N.am      2 SEC2        0.0000 
     23 N         -43.6910   -5.3170   12.6960 N.am      8 SEL2        0.0000 
     24 N         -41.0590   -5.4970   14.6330 N.am      5 SEP2        0.0000 
     25 O         -44.5710   -4.0140   12.5100 O.2       1 ALC1        0.0000 
     26 O         -43.6910   -5.3170   12.6960 O.2       7 ALL1        0.0000 
     27 O         -45.4510   -2.7110   12.3240 O.2       4 ALP1        0.0000 
     28 CA        -43.6345   -8.0645   14.2030 C.3       3 GLC5        0.0000 
     29 CA        -43.8030   -7.6960   12.0480 C.3       9 GLL5        0.0000 
     30 CA        -43.4660   -8.4330   16.3580 C.3       6 GLP5        0.0000 
     31 CA        -44.7780   -9.5580   12.4615 C.3       3 GLC5        0.0000 
     32 CA        -43.1765   -9.5820   11.0885 C.3       3 GLC5        0.0000 
     33 CA        -42.5500  -11.4680   10.1290 C.3       6 GLP5        0.0000 
     34 N         -40.3955   -8.3870    8.5830 N.am      2 SEC2        0.0000 
     35 N         -40.8690   -8.1910   10.0090 N.am      8 SEL2        0.0000 
     36 N         -39.9220   -8.5830    7.1570 N.am      5 SEP2        0.0000 
     37 CA        -39.7965  -11.0505   12.2590 C.3       3 GLC5        0.0000 
     38 CA        -39.1920   -9.1840   11.5910 C.3       9 GLL5        0.0000 
     39 CA        -40.4010  -12.9170   12.9270 C.3       6 GLP5        0.0000 
     40 CA        -37.8425   -8.6770   13.1900 C.3       3 GLC5        0.0000 
     41 CA        -36.4930   -8.1700   14.7890 C.3       6 GLP5        0.0000 
     42 O         -38.0235   -9.3145    9.2315 O.2       1 ALC1        0.0000 
     43 O         -38.1670   -9.3080   10.7510 O.2       7 ALL1        0.0000 
     44 O         -37.8800   -9.3210    7.7120 O.2       4 ALP1        0.0000 
     45 O         -36.7670   -9.7540   11.2365 O.2       1 ALC1        0.0000 
     46 O         -35.3670  -10.2000   11.7220 O.2       4 ALP1        0.0000 
     47 N         -37.8580   -9.5330   13.5490 N.am      2 SEC2        0.0000 
     48 N         -39.0600   -9.5650   12.8710 N.am      8 SEL2        0.0000 
     49 N         -36.6560   -9.5010   14.2270 N.am      5 SEP2        0.0000 
     50 CA        -41.7635   -8.9355   15.0420 C.3       3 GLC5        0.0000 
     51 CA        -40.0610   -9.4380   13.7260 C.3       9 GLL5        0.0000 
     52 CA        -40.2310  -11.1775   13.3265 C.3       3 GLC5        0.0000 
     53 CA        -38.9730   -9.1110   15.2455 C.3       3 GLC5        0.0000 
     54 CA        -37.8850   -8.7840   16.7650 C.3       6 GLP5        0.0000 
     55 CA        -43.7673   -5.0910   10.9333 C.3       3 GLC5        0.0000 
     56 CA        -44.2370   -6.2570   11.7680 C.3       9 GLL5        0.0000 
     57 CA        -42.5400   -3.8580   10.0370 C.3       6 GLP5        0.0000 
@<TRIPOS>BOND
@<TRIPOS>SUBSTRUCTURE
     1 ALC1        1 GROUP        1 X    ALC  0     ROOT ALC X 1
     2 SEC2       16 GROUP        1 X    SEC  0     **** SEC X 2
     3 GLC5        4 GROUP        1 X    GLC  0     **** GLC X 6
     4 ALP1        3 GROUP        1 Y    ALP  0     ROOT ALP Y 8
     5 SEP2       18 GROUP        1 Y    SEP  0     **** SEP Y 9
     6 GLP5        6 GROUP        1 Y    GLP  0     **** GLP Y 13
     7 ALL1        2 GROUP        1 Z    ALL  0     ROOT ALL Z 15
     8 SEL2       17 GROUP        1 Z    SEL  0     **** SEL Z 16
     9 GLL5        5 GROUP        1 Z    GLL  0     **** GLL Z 20
@<TRIPOS>SET

