#    Name: 1wu8_ADN_1_ligand
#    Modification time : Tue Mar 25 09:18:25 2014

@<TRIPOS>MOLECULE
1wu8_ADN_1_ligand
   32    34     1     0     0
SMALL
NO_CHARGES


@<TRIPOS>ATOM
      1 O5'       -44.9100   -6.9630    9.1070 O.3       1 ADN500      0.0000 
      2 C5'       -46.1100   -7.5260    9.6440 C.3       1 ADN500      0.0000 
      3 C4'       -45.9720   -7.7140   11.1570 C.3       1 ADN500      0.0000 
      4 O4'       -44.8270   -8.5290   11.4720 O.3       1 ADN500      0.0000 
      5 C3'       -45.7520   -6.3910   11.8910 C.3       1 ADN500      0.0000 
      6 O3'       -46.1210   -6.4960   13.2680 O.3       1 ADN500      0.0000 
      7 C2'       -44.2370   -6.2570   11.7680 C.3       1 ADN500      0.0000 
      8 O2'       -43.6910   -5.3170   12.6960 O.3       1 ADN500      0.0000 
      9 C1'       -43.8030   -7.6960   12.0480 C.3       1 ADN500      0.0000 
     10 N9        -42.4720   -7.9910   11.4700 N.pl3     1 ADN500      0.0000 
     11 C8        -42.1260   -7.7910   10.1970 C.2       1 ADN500      0.0000 
     12 N7        -40.8690   -8.1910   10.0090 N.2       1 ADN500      0.0000 
     13 C5        -40.4050   -8.6510   11.1680 C.ar      1 ADN500      0.0000 
     14 C6        -39.1920   -9.1840   11.5910 C.ar      1 ADN500      0.0000 
     15 N6        -38.1670   -9.3080   10.7510 N.pl3     1 ADN500      0.0000 
     16 N1        -39.0600   -9.5650   12.8710 N.ar      1 ADN500      0.0000 
     17 C2        -40.0610   -9.4380   13.7260 C.ar      1 ADN500      0.0000 
     18 N3        -41.2270   -8.9310   13.3620 N.ar      1 ADN500      0.0000 
     19 C4        -41.4300   -8.5290   12.0990 C.ar      1 ADN500      0.0000 
     20 H         -46.3303   -8.5070    9.2051 H         1 ADN500      0.0000 
     21 H         -46.9775   -6.8783    9.4665 H         1 ADN500      0.0000 
     22 H         -46.8697   -8.1635   11.5437 H         1 ADN500      0.0000 
     23 H         -46.2036   -5.6250   11.3589 H         1 ADN500      0.0000 
     24 H         -44.0160   -6.0485   10.7473 H         1 ADN500      0.0000 
     25 H         -43.7842   -7.8225   13.1205 H         1 ADN500      0.0000 
     26 H         -42.7070   -7.4091    9.5079 H         1 ADN500      0.0000 
     27 H         -38.4010   -9.4375    9.7874 H         1 ADN500      0.0000 
     28 H         -37.2553   -9.2605   11.1592 H         1 ADN500      0.0000 
     29 H         -39.9248   -9.7516   14.7321 H         1 ADN500      0.0000 
     30 H         -44.5672   -7.6488    8.4650 H         1 ADN500      0.0000 
     31 H         -45.8244   -7.4095   13.5464 H         1 ADN500      0.0000 
     32 H         -44.2678   -4.5046   12.6108 H         1 ADN500      0.0000 
@<TRIPOS>BOND
     1    2    1 1    
     2   30    1 1    
     3    3    2 1    
     4   20    2 1    
     5   21    2 1    
     6    4    3 1    
     7    5    3 1    
     8   22    3 1    
     9    9    4 1    
    10    6    5 1    
    11    7    5 1    
    12   23    5 1    
    13   31    6 1    
    14    8    7 1    
    15    9    7 1    
    16   24    7 1    
    17   32    8 1    
    18   10    9 1    
    19   25    9 1    
    20   11   10 1    
    21   19   10 1    
    22   12   11 2    
    23   26   11 1    
    24   13   12 1    
    25   14   13 ar   
    26   19   13 ar   
    27   15   14 1    
    28   16   14 ar   
    29   27   15 1    
    30   28   15 1    
    31   17   16 ar   
    32   18   17 ar   
    33   29   17 1    
    34   19   18 ar   
@<TRIPOS>SUBSTRUCTURE
     1 ADN500      1 GROUP   
@<TRIPOS>SET

