#    Name: 4ju2_1O0_2_INTS_M
#    Modification time : Tue Mar 25 06:22:29 2014

@<TRIPOS>MOLECULE
4ju2_1O0_2_INTS_M
   83     0     6     0     0
SMALL
NO_CHARGES


@<TRIPOS>ATOM
      1 N         -20.0980  -23.0825  -11.3675 N.am      1 SEC2        0.0000 
      2 N         -20.3760  -23.0990  -12.7050 N.am      5 SEL2        0.0000 
      3 N         -19.8200  -23.0660  -10.0300 N.am      3 SEP2        0.0000 
      4 CA        -24.6625  -22.9750  -13.2775 C.3       2 GLC5        0.0000 
      5 CA        -23.5090  -22.9070  -14.8760 C.3       6 GLL5        0.0000 
      6 CA        -25.8160  -23.0430  -11.6790 C.3       4 GLP5        0.0000 
      7 CA        -25.6380  -22.6420  -15.2120 C.3       2 GLC5        0.0000 
      8 CA        -23.8760  -22.7850  -16.2330 C.3       6 GLL5        0.0000 
      9 CA        -27.4000  -22.4990  -14.1910 C.3       4 GLP5        0.0000 
     10 CA        -22.4575  -23.7155  -19.0605 C.3       2 GLC5        0.0000 
     11 CA        -22.8410  -22.6880  -17.2230 C.3       6 GLL5        0.0000 
     12 CA        -22.0740  -24.7430  -20.8980 C.3       4 GLP5        0.0000 
     13 N         -22.4870  -22.3970  -10.8940 N.am      1 SEC2        0.0000 
     14 N         -22.6270  -23.1470  -12.2300 N.am      5 SEL2        0.0000 
     15 N         -22.3470  -21.6470   -9.5580 N.am      3 SEP2        0.0000 
     16 CA        -24.3155  -19.2445  -20.1295 C.3       2 GLC5        0.0000 
     17 CA        -25.0570  -20.0090  -18.7540 C.3       6 GLL5        0.0000 
     18 CA        -23.5740  -18.4800  -21.5050 C.3       4 GLP5        0.0000 
     19 CA        -26.5370  -22.8465  -15.9905 C.3       2 GLC5        0.0000 
     20 CA        -25.6740  -23.1940  -17.7900 C.3       6 GLL5        0.0000 
     21 CA        -24.0390  -24.8935  -20.1420 C.3       2 GLC5        0.0000 
     22 CA        -26.0040  -25.0440  -19.3860 C.3       6 GLL5        0.0000 
     23 CA        -24.7995  -24.0135  -21.6795 C.3       2 GLC5        0.0000 
     24 CA        -26.4420  -24.1190  -20.3640 C.3       6 GLL5        0.0000 
     25 CA        -23.1570  -23.9080  -22.9950 C.3       4 GLP5        0.0000 
     26 CA        -18.6875  -16.7810  -19.4690 C.3       2 GLC5        0.0000 
     27 CA        -17.9250  -17.4280  -18.0710 C.3       6 GLL5        0.0000 
     28 CA        -19.4500  -16.1340  -20.8670 C.3       4 GLP5        0.0000 
     29 CA        -16.5575  -17.7165  -19.0620 C.3       2 GLC5        0.0000 
     30 CA        -15.1900  -18.0050  -20.0530 C.3       4 GLP5        0.0000 
     31 CA        -26.8365  -21.4905  -15.5960 C.3       2 GLC5        0.0000 
     32 CA        -26.2730  -20.4820  -17.0010 C.3       6 GLL5        0.0000 
     33 CA        -27.0425  -18.7420  -16.6965 C.3       2 GLC5        0.0000 
     34 CA        -27.8120  -17.0020  -16.3920 C.3       4 GLP5        0.0000 
     35 CA        -28.9565  -19.7615  -18.7705 C.3       2 GLC5        0.0000 
     36 CA        -27.2690  -20.0090  -18.8470 C.3       6 GLL5        0.0000 
     37 CA        -30.6440  -19.5140  -18.6940 C.3       4 GLP5        0.0000 
     38 CA        -17.7485  -21.0845  -12.4705 C.3       2 GLC5        0.0000 
     39 CA        -17.6430  -20.4150  -14.3710 C.3       6 GLL5        0.0000 
     40 CA        -17.8540  -21.7540  -10.5700 C.3       4 GLP5        0.0000 
     41 CA        -19.0000  -19.6975  -13.4390 C.3       2 GLC5        0.0000 
     42 CA        -20.3570  -18.9800  -12.5070 C.3       4 GLP5        0.0000 
     43 CA        -19.9685  -22.4820  -20.4715 C.3       2 GLC5        0.0000 
     44 CA        -18.9450  -22.0340  -18.7150 C.3       6 GLL5        0.0000 
     45 CA        -20.9920  -22.9300  -22.2280 C.3       4 GLP5        0.0000 
     46 CA        -17.3335  -21.1720  -19.6360 C.3       2 GLC5        0.0000 
     47 CA        -15.7220  -20.3100  -20.5570 C.3       4 GLP5        0.0000 
     48 CA        -30.7020  -21.0035  -23.0700 C.3       2 GLC5        0.0000 
     49 CA        -28.8360  -21.2200  -22.6200 C.3       6 GLL5        0.0000 
     50 CA        -32.5680  -20.7870  -23.5200 C.3       4 GLP5        0.0000 
     51 CA        -19.6803  -19.2268  -16.0913 C.3       2 GLC5        0.0000 
     52 CA        -17.7680  -18.9050  -16.1860 C.3       6 GLL5        0.0000 
     53 CA        -21.5260  -18.8900  -16.2560 C.3       4 GLP5        0.0000 
     54 CA        -17.7620  -16.2495  -17.5513 C.3       2 GLC5        0.0000 
     55 CA        -18.0410  -18.6740  -17.5640 C.3       6 GLL5        0.0000 
     56 CA        -17.5410  -14.4480  -17.2850 C.3       4 GLP5        0.0000 
     57 CA        -19.3253  -18.2335  -19.2413 C.3       2 GLC5        0.0000 
     58 CA        -20.4110  -17.2600  -20.4930 C.3       4 GLP5        0.0000 
     59 CA        -19.9798  -20.0375  -16.7210 C.3       2 GLC5        0.0000 
     60 CA        -18.5640  -21.0470  -17.8800 C.3       6 GLL5        0.0000 
     61 CA        -21.3912  -20.8358  -16.2133 C.3       2 GLC5        0.0000 
     62 CA        -21.4690  -22.7200  -16.8500 C.3       6 GLL5        0.0000 
     63 CA        -23.3080  -21.1010  -15.0083 C.3       2 GLC5        0.0000 
     64 CA        -22.1170  -22.9370  -14.5090 C.3       6 GLL5        0.0000 
     65 CA        -23.8030  -19.2800  -15.3240 C.3       4 GLP5        0.0000 
     66 CA        -23.5808  -21.0083  -16.0260 C.3       2 GLC5        0.0000 
     67 CA        -19.8041  -18.6037  -17.1431 C.3       2 GLC5        0.0000 
     68 CA        -24.8749  -19.8491  -16.5516 C.3       2 GLC5        0.0000 
     69 CA        -26.6939  -18.4459  -18.1496 C.3       2 GLC5        0.0000 
     70 CA        -26.9430  -16.7100  -17.5970 C.3       4 GLP5        0.0000 
     71 CA        -26.6964  -18.8474  -19.9356 C.3       2 GLC5        0.0000 
     72 CA        -26.9480  -17.5130  -21.1690 C.3       4 GLP5        0.0000 
     73 CA        -24.9693  -19.6090  -22.0490 C.3       2 GLC5        0.0000 
     74 CA        -26.1020  -21.1060  -22.0470 C.3       6 GLL5        0.0000 
     75 CA        -24.7658  -21.8780  -23.4195 C.3       2 GLC5        0.0000 
     76 CA        -23.1670  -23.0180  -24.2460 C.3       4 GLP5        0.0000 
     77 CA        -28.7790  -19.0535  -22.6995 C.3       2 GLC5        0.0000 
     78 CA        -28.0120  -20.4180  -23.4420 C.3       6 GLL5        0.0000 
     79 CA        -29.1340  -17.2880  -22.3680 C.3       4 GLP5        0.0000 
     80 CA        -26.7467  -21.4005  -24.9002 C.3       2 GLC5        0.0000 
     81 CA        -26.1740  -22.4070  -26.5100 C.3       4 GLP5        0.0000 
     82 CA        -26.7681  -19.2236  -21.7831 C.3       2 GLC5        0.0000 
     83 CA        -26.6270  -20.3700  -23.1390 C.3       6 GLL5        0.0000 
@<TRIPOS>BOND
@<TRIPOS>SUBSTRUCTURE
     1 SEC2        1 GROUP        1 X    SEC  0     ROOT SEC X 2
     2 GLC5        4 GROUP        1 X    GLC  0     **** GLC X 6
     3 SEP2        3 GROUP        1 Y    SEP  0     ROOT SEP Y 9
     4 GLP5        6 GROUP        1 Y    GLP  0     **** GLP Y 13
     5 SEL2        2 GROUP        1 Z    SEL  0     ROOT SEL Z 16
     6 GLL5        5 GROUP        1 Z    GLL  0     **** GLL Z 20
@<TRIPOS>SET

