#    Name: 4ju2_1O0_2_ligand
#    Modification time : Tue Mar 25 06:22:29 2014

@<TRIPOS>MOLECULE
4ju2_1O0_2_ligand
   53    57     1     0     0
SMALL
NO_CHARGES


@<TRIPOS>ATOM
      1 C1        -17.9010  -20.2220  -15.6670 C.ar      1 1O0602      0.0000 
      2 C2        -17.7680  -18.9050  -16.1860 C.ar      1 1O0602      0.0000 
      3 C3        -18.0410  -18.6740  -17.5640 C.ar      1 1O0602      0.0000 
      4 C4        -18.4380  -19.7400  -18.4150 C.ar      1 1O0602      0.0000 
      5 C5        -18.5640  -21.0470  -17.8800 C.ar      1 1O0602      0.0000 
      6 C6        -18.3030  -21.3230  -16.4920 C.ar      1 1O0602      0.0000 
      7 C7        -18.4580  -22.7290  -15.9250 C.3       1 1O0602      0.0000 
      8 N8        -20.3760  -23.0990  -12.7050 N.2       1 1O0602      0.0000 
      9 C9        -19.4680  -23.0090  -13.6450 C.2       1 1O0602      0.0000 
     10 N10       -19.6560  -22.8800  -15.0250 N.pl3     1 1O0602      0.0000 
     11 C11       -21.0440  -22.8430  -15.4910 C.ar      1 1O0602      0.0000 
     12 C12       -22.1170  -22.9370  -14.5090 C.ar      1 1O0602      0.0000 
     13 C13       -23.5090  -22.9070  -14.8760 C.ar      1 1O0602      0.0000 
     14 C14       -23.8760  -22.7850  -16.2330 C.ar      1 1O0602      0.0000 
     15 C15       -22.8410  -22.6880  -17.2230 C.ar      1 1O0602      0.0000 
     16 C16       -21.4690  -22.7200  -16.8500 C.ar      1 1O0602      0.0000 
     17 C17       -21.7300  -23.0680  -13.0630 C.2       1 1O0602      0.0000 
     18 O18       -22.6270  -23.1470  -12.2300 O.2       1 1O0602      0.0000 
     19 F19       -25.0570  -20.0090  -18.7540 F         1 1O0602      0.0000 
     20 O20       -25.2650  -22.7720  -16.5220 O.3       1 1O0602      0.0000 
     21 C21       -25.6740  -23.1940  -17.7900 C.ar      1 1O0602      0.0000 
     22 C22       -25.6200  -24.5900  -18.1130 C.ar      1 1O0602      0.0000 
     23 C23       -26.0040  -25.0440  -19.3860 C.ar      1 1O0602      0.0000 
     24 C24       -26.4420  -24.1190  -20.3640 C.ar      1 1O0602      0.0000 
     25 C25       -26.5250  -22.7050  -20.1090 C.ar      1 1O0602      0.0000 
     26 C26       -26.1340  -22.2010  -18.7640 C.ar      1 1O0602      0.0000 
     27 C27       -26.1840  -20.7000  -18.3610 C.3       1 1O0602      0.0000 
     28 F28       -17.9250  -17.4280  -18.0710 F         1 1O0602      0.0000 
     29 F29       -26.2730  -20.4820  -17.0010 F         1 1O0602      0.0000 
     30 F30       -27.2690  -20.0090  -18.8470 F         1 1O0602      0.0000 
     31 F31       -17.6430  -20.4150  -14.3710 F         1 1O0602      0.0000 
     32 F32       -18.9450  -22.0340  -18.7150 F         1 1O0602      0.0000 
     33 C33       -26.9970  -21.8910  -21.2640 C.ar      1 1O0602      0.0000 
     34 C34       -26.1020  -21.1060  -22.0470 C.ar      1 1O0602      0.0000 
     35 N35       -28.3580  -21.9530  -21.5450 N.ar      1 1O0602      0.0000 
     36 C36       -28.8360  -21.2200  -22.6200 C.ar      1 1O0602      0.0000 
     37 C37       -28.0120  -20.4180  -23.4420 C.ar      1 1O0602      0.0000 
     38 C38       -26.6270  -20.3700  -23.1390 C.ar      1 1O0602      0.0000 
     39 H         -17.4837  -18.1430  -15.5858 H         1 1O0602      0.0000 
     40 H         -18.6292  -19.5665  -19.3958 H         1 1O0602      0.0000 
     41 H         -17.5440  -22.9879  -15.3658 H         1 1O0602      0.0000 
     42 H         -18.5359  -23.4418  -16.7623 H         1 1O0602      0.0000 
     43 H         -18.4112  -23.0352  -13.3429 H         1 1O0602      0.0000 
     44 H         -24.2161  -22.9744  -14.1496 H         1 1O0602      0.0000 
     45 H         -23.0994  -22.5949  -18.2072 H         1 1O0602      0.0000 
     46 H         -20.7479  -22.6517  -17.5894 H         1 1O0602      0.0000 
     47 H         -25.2975  -25.2507  -17.4021 H         1 1O0602      0.0000 
     48 H         -25.9688  -26.0399  -19.6103 H         1 1O0602      0.0000 
     49 H         -26.7149  -24.4626  -21.3005 H         1 1O0602      0.0000 
     50 H         -25.1196  -21.0769  -21.8270 H         1 1O0602      0.0000 
     51 H         -29.8604  -21.2548  -22.8442 H         1 1O0602      0.0000 
     52 H         -28.3909  -19.9001  -24.2131 H         1 1O0602      0.0000 
     53 H         -26.0020  -19.7992  -23.7137 H         1 1O0602      0.0000 
@<TRIPOS>BOND
     1    2    1 ar   
     2    6    1 ar   
     3   31    1 1    
     4    3    2 ar   
     5   39    2 1    
     6    4    3 ar   
     7   28    3 1    
     8    5    4 ar   
     9   40    4 1    
    10    6    5 ar   
    11   32    5 1    
    12    7    6 1    
    13   10    7 1    
    14   41    7 1    
    15   42    7 1    
    16    9    8 2    
    17   17    8 1    
    18   10    9 1    
    19   43    9 1    
    20   11   10 1    
    21   12   11 ar   
    22   16   11 ar   
    23   13   12 ar   
    24   17   12 1    
    25   14   13 ar   
    26   44   13 1    
    27   15   14 ar   
    28   20   14 1    
    29   16   15 ar   
    30   45   15 1    
    31   46   16 1    
    32   18   17 2    
    33   27   19 1    
    34   21   20 1    
    35   22   21 ar   
    36   26   21 ar   
    37   23   22 ar   
    38   47   22 1    
    39   24   23 ar   
    40   48   23 1    
    41   25   24 ar   
    42   49   24 1    
    43   26   25 ar   
    44   33   25 1    
    45   27   26 1    
    46   29   27 1    
    47   30   27 1    
    48   34   33 ar   
    49   35   33 ar   
    50   38   34 ar   
    51   50   34 1    
    52   36   35 ar   
    53   37   36 ar   
    54   51   36 1    
    55   38   37 ar   
    56   52   37 1    
    57   53   38 1    
@<TRIPOS>SUBSTRUCTURE
     1 1O0602      1 GROUP   
@<TRIPOS>SET

