#    Name: 3b1x_GNP_1_INTS_M
#    Modification time : Mon Mar 24 18:43:49 2014

@<TRIPOS>MOLECULE
3b1x_GNP_1_INTS_M
   76     0    15     0     0
SMALL
NO_CHARGES


@<TRIPOS>ATOM
      1 NZ          4.4325   14.8555  -31.7515 N.4       3 LYC4        0.0000 
      2 NZ          4.9860   13.8820  -32.4720 N.4      13 LYL4        0.0000 
      3 NZ          3.8790   15.8290  -31.0310 N.4       8 LYP4        0.0000 
      4 N           4.4325   14.8555  -31.7515 N.am      2 SEC2        0.0000 
      5 N           4.9860   13.8820  -32.4720 N.am     12 SEL2        0.0000 
      6 N           3.8790   15.8290  -31.0310 N.am      7 SEP2        0.0000 
      7 N           4.7115   11.5420  -35.5015 N.am      2 SEC2        0.0000 
      8 N           5.3610   12.3990  -34.5110 N.am     12 SEL2        0.0000 
      9 N           4.0620   10.6850  -36.4920 N.am      7 SEP2        0.0000 
     10 N           6.1700   11.4890  -35.2640 N.am      2 SEC2        0.0000 
     11 N           6.9790   10.5790  -36.0170 N.am      7 SEP2        0.0000 
     12 Zn          7.9680   14.0445  -32.8655 Zn        4 ZIC7        0.0000 
     13 Zn          7.3500   13.3670  -33.3360 Zn       14 ZIL7        0.0000 
     14 Zn          8.5860   14.7220  -32.3950 Zn        9 ZIP7        0.0000 
     15 N           8.1345   12.1495  -33.5620 N.am      2 SEC2        0.0000 
     16 N           7.3500   13.3670  -33.3360 N.am     12 SEL2        0.0000 
     17 N           8.9190   10.9320  -33.7880 N.am      7 SEP2        0.0000 
     18 NZ          4.5390   16.3375  -32.0340 N.4       3 LYC4        0.0000 
     19 NZ          5.1990   16.8460  -33.0370 N.4      13 LYL4        0.0000 
     20 N           4.9025   18.2930  -33.6635 N.am      2 SEC2        0.0000 
     21 N           5.1990   16.8460  -33.0370 N.am     12 SEL2        0.0000 
     22 N           4.6060   19.7400  -34.2900 N.am      7 SEP2        0.0000 
     23 N           5.8280   18.1760  -32.5880 N.am      2 SEC2        0.0000 
     24 N           6.4570   19.5060  -32.1390 N.am      7 SEP2        0.0000 
     25 N           4.5390   16.3375  -32.0340 N.am      2 SEC2        0.0000 
     26 Zn          8.1185   15.4415  -32.8040 Zn        4 ZIC7        0.0000 
     27 Zn          7.6510   16.1610  -33.2130 Zn       14 ZIL7        0.0000 
     28 N           8.3960   17.3225  -32.4635 N.am      2 SEC2        0.0000 
     29 N           7.6510   16.1610  -33.2130 N.am     12 SEL2        0.0000 
     30 N           9.1410   18.4840  -31.7140 N.am      7 SEP2        0.0000 
     31 N           5.5145   18.5855  -34.7330 N.am      2 SEC2        0.0000 
     32 N           6.4230   17.4310  -35.1760 N.am     12 SEL2        0.0000 
     33 N           9.6140   19.3790  -34.1540 N.am      2 SEC2        0.0000 
     34 N           8.6820   18.6310  -34.8400 N.am     12 SEL2        0.0000 
     35 N          10.5460   20.1270  -33.4680 N.am      7 SEP2        0.0000 
     36 N           9.1890   19.7055  -35.4550 N.am      2 SEC2        0.0000 
     37 N           9.6960   20.7800  -36.0700 N.am      7 SEP2        0.0000 
     38 N           9.3605   15.9915  -37.7490 N.am      2 SEC2        0.0000 
     39 N           8.5400   16.6130  -36.4180 N.am     12 SEL2        0.0000 
     40 N          10.1810   15.3700  -39.0800 N.am      7 SEP2        0.0000 
     41 CA          4.6740   17.3255  -37.3905 C.3       5 GLC5        0.0000 
     42 CA          6.4540   18.3220  -38.0400 C.3      15 GLL5        0.0000 
     43 CA          2.8940   16.3290  -36.7410 C.3      10 GLP5        0.0000 
     44 CA          6.1505   19.4180  -36.1510 C.3       5 GLC5        0.0000 
     45 CA          5.8470   20.5140  -34.2620 C.3      10 GLP5        0.0000 
     46 CA          5.1135   21.6285  -38.6550 C.3       5 GLC5        0.0000 
     47 CA          6.9160   21.4260  -39.5660 C.3      15 GLL5        0.0000 
     48 CA          3.3110   21.8310  -37.7440 C.3      10 GLP5        0.0000 
     49 N           5.6110   23.8715  -35.5170 N.am      2 SEC2        0.0000 
     50 N           6.5470   23.7180  -36.7890 N.am     12 SEL2        0.0000 
     51 N           4.6750   24.0250  -34.2450 N.am      7 SEP2        0.0000 
     52 CA          4.3790   24.4725  -37.6365 C.3       5 GLC5        0.0000 
     53 CA          6.1550   24.5000  -37.7920 C.3      15 GLL5        0.0000 
     54 CA          2.6030   24.4450  -37.4810 C.3      10 GLP5        0.0000 
     55 CA          7.5800   24.9495  -36.4250 C.3       5 GLC5        0.0000 
     56 CA          9.0050   25.3990  -35.0580 C.3      10 GLP5        0.0000 
     57 N           4.0650   26.6440  -36.1620 N.am      2 SEC2        0.0000 
     58 N           5.6270   26.5060  -36.8330 N.am     12 SEL2        0.0000 
     59 N           2.5030   26.7820  -35.4910 N.am      7 SEP2        0.0000 
     60 N           6.7310   27.0140  -36.0905 N.am      2 SEC2        0.0000 
     61 N           7.8350   27.5220  -35.3480 N.am      7 SEP2        0.0000 
     62 O           4.8915   27.6250  -39.0535 O.2       1 ALC1        0.0000 
     63 O           5.3650   26.3700  -39.0930 O.2      11 ALL1        0.0000 
     64 O           4.4180   28.8800  -39.0140 O.2       6 ALP1        0.0000 
     65 O           5.1570   27.6740  -40.1145 O.2       1 ALC1        0.0000 
     66 O           4.9490   28.9780  -41.1360 O.2       6 ALP1        0.0000 
     67 O           5.0470   27.5290  -41.2785 O.2       1 ALC1        0.0000 
     68 O           5.1450   26.0800  -41.4210 O.2      11 ALL1        0.0000 
     69 CA          4.7740   22.7905  -38.3550 C.3       5 GLC5        0.0000 
     70 CA          6.2370   23.7500  -38.9660 C.3      15 GLL5        0.0000 
     71 CA          6.8742   17.7488  -40.8792 C.3       5 GLC5        0.0000 
     72 CA          6.5460   19.1060  -39.3880 C.3      15 GLL5        0.0000 
     73 CA          6.4810   16.2780  -42.1330 C.3      10 GLP5        0.0000 
     74 CA          9.6325   19.3087  -38.8765 C.3       5 GLC5        0.0000 
     75 CA          7.9890   19.3330  -39.8630 C.3      15 GLL5        0.0000 
     76 CA         11.1260   18.5710  -38.1170 C.3      10 GLP5        0.0000 
@<TRIPOS>BOND
@<TRIPOS>SUBSTRUCTURE
     1 ALC1       62 GROUP        1 X    ALC  0     ROOT ALC X 1
     2 SEC2        4 GROUP        1 X    SEC  0     **** SEC X 2
     3 LYC4        1 GROUP        1 X    LYC  0     **** LYC X 4
     4 ZIC7       12 GROUP        1 X    ZIC  0     **** ZIC X 5
     5 GLC5       41 GROUP        1 X    GLC  0     **** GLC X 6
     6 ALP1       64 GROUP        1 Y    ALP  0     ROOT ALP Y 8
     7 SEP2        6 GROUP        1 Y    SEP  0     **** SEP Y 9
     8 LYP4        3 GROUP        1 Y    LYP  0     **** LYP Y 11
     9 ZIP7       14 GROUP        1 Y    ZIP  0     **** ZIP Y 12
    10 GLP5       43 GROUP        1 Y    GLP  0     **** GLP Y 13
    11 ALL1       63 GROUP        1 Z    ALL  0     ROOT ALL Z 15
    12 SEL2        5 GROUP        1 Z    SEL  0     **** SEL Z 16
    13 LYL4        2 GROUP        1 Z    LYL  0     **** LYL Z 18
    14 ZIL7       13 GROUP        1 Z    ZIL  0     **** ZIL Z 19
    15 GLL5       42 GROUP        1 Z    GLL  0     **** GLL Z 20
@<TRIPOS>SET

