#    Name: 3b1x_GNP_1_ligand
#    Modification time : Mon Mar 24 18:43:50 2014

@<TRIPOS>MOLECULE
3b1x_GNP_1_ligand
   44    46     1     0     0
SMALL
NO_CHARGES


@<TRIPOS>ATOM
      1 PG          5.8210   13.7020  -33.6840 P.3       1 GNP300      0.0000 
      2 O1G         4.9860   13.8820  -32.4720 O.co2     1 GNP300      0.0000 
      3 O2G         5.3610   12.3990  -34.5110 O.co2     1 GNP300      0.0000 
      4 O3G         7.3500   13.3670  -33.3360 O.co2     1 GNP300      0.0000 
      5 N3B         5.8400   14.9540  -34.6900 N.4       1 GNP300      0.0000 
      6 PB          6.2460   16.3700  -33.9830 P.3       1 GNP300      0.0000 
      7 O1B         5.1990   16.8460  -33.0370 O.co2     1 GNP300      0.0000 
      8 O2B         7.6510   16.1610  -33.2130 O.co2     1 GNP300      0.0000 
      9 O3A         6.4230   17.4310  -35.1760 O.3       1 GNP300      0.0000 
     10 PA          7.8220   17.9410  -35.8340 P.3       1 GNP300      0.0000 
     11 O1A         8.6820   18.6310  -34.8400 O.co2     1 GNP300      0.0000 
     12 O2A         8.5400   16.6130  -36.4180 O.co2     1 GNP300      0.0000 
     13 O5'         7.3430   18.8490  -37.0350 O.3       1 GNP300      0.0000 
     14 C5'         6.4540   18.3220  -38.0400 C.3       1 GNP300      0.0000 
     15 C4'         6.5460   19.1060  -39.3880 C.3       1 GNP300      0.0000 
     16 O4'         5.9580   20.4170  -39.1950 O.3       1 GNP300      0.0000 
     17 C3'         7.9890   19.3330  -39.8630 C.3       1 GNP300      0.0000 
     18 O3'         8.0440   19.2250  -41.2870 O.3       1 GNP300      0.0000 
     19 C2'         8.2890   20.7600  -39.4090 C.3       1 GNP300      0.0000 
     20 O2'         9.2680   21.3540  -40.2620 O.3       1 GNP300      0.0000 
     21 C1'         6.9160   21.4260  -39.5660 C.3       1 GNP300      0.0000 
     22 N9          6.6810   22.5440  -38.6250 N.pl3     1 GNP300      0.0000 
     23 C8          6.8660   22.5300  -37.2990 C.2       1 GNP300      0.0000 
     24 N7          6.5470   23.7180  -36.7890 N.2       1 GNP300      0.0000 
     25 C5          6.1550   24.5000  -37.7920 C.2       1 GNP300      0.0000 
     26 C6          5.7160   25.8240  -37.8510 C.2       1 GNP300      0.0000 
     27 O6          5.6270   26.5060  -36.8330 O.2       1 GNP300      0.0000 
     28 N1          5.3650   26.3700  -39.0930 N.am      1 GNP300      0.0000 
     29 C2          5.4700   25.5690  -40.2420 C.2       1 GNP300      0.0000 
     30 N2          5.1450   26.0800  -41.4210 N.pl3     1 GNP300      0.0000 
     31 N3          5.8960   24.2920  -40.1530 N.2       1 GNP300      0.0000 
     32 C4          6.2370   23.7500  -38.9660 C.2       1 GNP300      0.0000 
     33 H           5.4012   18.3655  -37.7156 H         1 GNP300      0.0000 
     34 H           6.6768   17.2665  -38.2677 H         1 GNP300      0.0000 
     35 H           6.0119   18.5635  -40.1375 H         1 GNP300      0.0000 
     36 H           8.6166   18.6687  -39.3510 H         1 GNP300      0.0000 
     37 H           8.5383   20.7399  -38.3920 H         1 GNP300      0.0000 
     38 H           6.7736   21.7221  -40.5653 H         1 GNP300      0.0000 
     39 H           7.1874   21.7605  -36.7858 H         1 GNP300      0.0000 
     40 H           5.0393   27.3307  -39.1628 H         1 GNP300      0.0000 
     41 H           4.7939   27.0163  -41.4131 H         1 GNP300      0.0000 
     42 H           5.2804   25.4830  -42.2117 H         1 GNP300      0.0000 
     43 H           8.7426   18.5325  -41.4671 H         1 GNP300      0.0000 
     44 H           9.2695   20.7888  -41.0869 H         1 GNP300      0.0000 
@<TRIPOS>BOND
     1    2    1 ar   
     2    3    1 ar   
     3    4    1 ar   
     4    5    1 1    
     5    6    5 1    
     6    7    6 ar   
     7    8    6 ar   
     8    9    6 1    
     9   10    9 1    
    10   11   10 ar   
    11   12   10 ar   
    12   13   10 1    
    13   14   13 1    
    14   15   14 1    
    15   33   14 1    
    16   34   14 1    
    17   16   15 1    
    18   17   15 1    
    19   35   15 1    
    20   21   16 1    
    21   18   17 1    
    22   19   17 1    
    23   36   17 1    
    24   43   18 1    
    25   20   19 1    
    26   21   19 1    
    27   37   19 1    
    28   44   20 1    
    29   22   21 1    
    30   38   21 1    
    31   23   22 1    
    32   32   22 1    
    33   24   23 2    
    34   39   23 1    
    35   25   24 1    
    36   26   25 1    
    37   32   25 2    
    38   27   26 2    
    39   28   26 am   
    40   29   28 1    
    41   40   28 1    
    42   30   29 1    
    43   31   29 2    
    44   41   30 1    
    45   42   30 1    
    46   32   31 1    
@<TRIPOS>SUBSTRUCTURE
     1 GNP300      1 GROUP   
@<TRIPOS>SET

