#    Name: 3t4e_NAD_2_INTS_M
#    Modification time : Mon Mar 24 19:05:52 2014

@<TRIPOS>MOLECULE
3t4e_NAD_2_INTS_M
   79     0     9     0     0
SMALL
NO_CHARGES


@<TRIPOS>ATOM
      1 N          -0.5470   80.7860   17.9060 N.am      2 SEC2        0.0000 
      2 N          -0.3210   80.8080   16.4790 N.am      8 SEL2        0.0000 
      3 N          -0.7730   80.7640   19.3330 N.am      5 SEP2        0.0000 
      4 CA         -1.0185   83.5610   14.5730 C.3       3 GLC5        0.0000 
      5 CA          0.9520   84.2110   15.0780 C.3       9 GLL5        0.0000 
      6 CA         -2.9890   82.9110   14.0680 C.3       6 GLP5        0.0000 
      7 CA          2.7915   83.9780   14.0685 C.3       3 GLC5        0.0000 
      8 CA          4.6310   83.7450   13.0590 C.3       6 GLP5        0.0000 
      9 CA          2.6785   86.2490   16.5055 C.3       3 GLC5        0.0000 
     10 CA          0.9370   85.5520   15.8240 C.3       9 GLL5        0.0000 
     11 CA          4.4200   86.9460   17.1870 C.3       6 GLP5        0.0000 
     12 N           3.4815   86.3425   15.1055 N.am      2 SEC2        0.0000 
     13 N           1.8300   86.4980   15.1980 N.am      8 SEL2        0.0000 
     14 N           5.1330   86.1870   15.0130 N.am      5 SEP2        0.0000 
     15 N          -0.8805   86.9280   18.4305 N.am      2 SEC2        0.0000 
     16 N          -0.5850   86.9680   17.0170 N.am      8 SEL2        0.0000 
     17 N          -1.1760   86.8880   19.8440 N.am      5 SEP2        0.0000 
     18 O          -1.3555   88.0280   17.4700 O.2       1 ALC1        0.0000 
     19 O          -0.5850   86.9680   17.0170 O.2       7 ALL1        0.0000 
     20 O          -2.1260   89.0880   17.9230 O.2       4 ALP1        0.0000 
     21 N          -2.3415   89.2540   15.6430 N.am      2 SEC2        0.0000 
     22 N          -1.2280   88.3310   14.8280 N.am      8 SEL2        0.0000 
     23 N          -3.4550   90.1770   16.4580 N.am      5 SEP2        0.0000 
     24 O          -1.8735   88.6040   13.7485 O.2       1 ALC1        0.0000 
     25 O          -1.2280   88.3310   14.8280 O.2       7 ALL1        0.0000 
     26 O          -2.5190   88.8770   12.6690 O.2       4 ALP1        0.0000 
     27 O          -2.8040   88.6905   14.3290 O.2       1 ALC1        0.0000 
     28 O          -4.3800   89.0500   13.8300 O.2       4 ALP1        0.0000 
     29 CA          2.6855   88.0315   15.7615 C.3       3 GLC5        0.0000 
     30 CA          1.1060   87.6630   14.8070 C.3       9 GLL5        0.0000 
     31 CA          4.2650   88.4000   16.7160 C.3       6 GLP5        0.0000 
     32 CA          0.8200   91.8575   12.8090 C.3       3 GLC5        0.0000 
     33 CA          2.5430   91.6790   13.7100 C.3       9 GLL5        0.0000 
     34 CA         -0.9030   92.0360   11.9080 C.3       6 GLP5        0.0000 
     35 CA          2.0300   92.9115   15.1595 C.3       3 GLC5        0.0000 
     36 CA          1.5170   94.1440   16.6090 C.3       6 GLP5        0.0000 
     37 CA          4.2800   91.2225   13.5845 C.3       3 GLC5        0.0000 
     38 CA          6.0170   90.7660   13.4590 C.3       6 GLP5        0.0000 
     39 CA          3.9255   92.9795   14.4925 C.3       3 GLC5        0.0000 
     40 CA          5.3080   94.2800   15.2750 C.3       6 GLP5        0.0000 
     41 CA          3.1680   88.9145   15.0545 C.3       3 GLC5        0.0000 
     42 CA          2.0710   89.4290   13.3930 C.3       9 GLL5        0.0000 
     43 N           1.8700   81.0275   19.5960 N.am      2 SEC2        0.0000 
     44 N           2.0730   81.4090   18.3010 N.am      8 SEL2        0.0000 
     45 N           1.6670   80.6460   20.8910 N.am      5 SEP2        0.0000 
     46 CA          4.3565   81.8470   19.0805 C.3       3 GLC5        0.0000 
     47 CA          4.6630   82.3830   17.0230 C.3       9 GLL5        0.0000 
     48 CA          4.0500   81.3110   21.1380 C.3       6 GLP5        0.0000 
     49 CA          4.6470   83.0640   15.0410 C.3       3 GLC5        0.0000 
     50 CA          5.7035   82.6165   14.5285 C.3       3 GLC5        0.0000 
     51 CA          6.7760   81.4880   15.9980 C.3       9 GLL5        0.0000 
     52 CA          8.0025   81.3535   14.3120 C.3       3 GLC5        0.0000 
     53 CA          9.2290   81.2190   12.6260 C.3       6 GLP5        0.0000 
     54 CA          7.7805   81.8125   19.6245 C.3       3 GLC5        0.0000 
     55 CA          7.5070   80.6060   18.0440 C.3       9 GLL5        0.0000 
     56 CA          8.0540   83.0190   21.2050 C.3       6 GLP5        0.0000 
     57 CA          8.2835   81.1065   20.4365 C.3       3 GLC5        0.0000 
     58 CA          8.5130   79.1940   19.6680 C.3       9 GLL5        0.0000 
     59 O          10.6385   80.0495   20.6730 O.2       1 ALC1        0.0000 
     60 O          10.7910   78.7230   21.3870 O.2       7 ALL1        0.0000 
     61 O          10.4860   81.3760   19.9590 O.2       4 ALP1        0.0000 
     62 O          12.0560   78.8505   22.1645 O.2       1 ALC1        0.0000 
     63 O          13.3210   78.9780   22.9420 O.2       4 ALP1        0.0000 
     64 CA         -1.9305   86.0002   14.6463 C.3       3 GLC5        0.0000 
     65 CA         -0.4200   86.2420   15.8180 C.3       9 GLL5        0.0000 
     66 CA         -3.4810   85.2610   14.0410 C.3       6 GLP5        0.0000 
     67 CA          4.5953   89.3732   10.9058 C.3       3 GLC5        0.0000 
     68 CA          3.0510   90.7500   11.6140 C.3       9 GLL5        0.0000 
     69 CA          6.3750   88.6090    9.9890 C.3       6 GLP5        0.0000 
     70 CA          0.7701   90.9096   12.2579 C.3       3 GLC5        0.0000 
     71 CA          2.5800   89.5250   12.0310 C.3       9 GLL5        0.0000 
     72 CA          4.2301   90.2746   13.0334 C.3       3 GLC5        0.0000 
     73 CA          8.5095   79.3317   22.1092 C.3       3 GLC5        0.0000 
     74 CA          8.5010   79.9770   24.0790 C.3       6 GLP5        0.0000 
     75 CA          6.8502   78.3662   22.2885 C.3       3 GLC5        0.0000 
     76 CA          7.3350   77.4900   20.8510 C.3       9 GLL5        0.0000 
     77 CA          6.9430   79.0610   24.0770 C.3       6 GLP5        0.0000 
     78 CA          5.1275   79.8423   20.4120 C.3       3 GLC5        0.0000 
     79 CA          6.1800   77.8530   20.1490 C.3       9 GLL5        0.0000 
@<TRIPOS>BOND
@<TRIPOS>SUBSTRUCTURE
     1 ALC1       18 GROUP        1 X    ALC  0     ROOT ALC X 1
     2 SEC2        1 GROUP        1 X    SEC  0     **** SEC X 2
     3 GLC5        4 GROUP        1 X    GLC  0     **** GLC X 6
     4 ALP1       20 GROUP        1 Y    ALP  0     ROOT ALP Y 8
     5 SEP2        3 GROUP        1 Y    SEP  0     **** SEP Y 9
     6 GLP5        6 GROUP        1 Y    GLP  0     **** GLP Y 13
     7 ALL1       19 GROUP        1 Z    ALL  0     ROOT ALL Z 15
     8 SEL2        2 GROUP        1 Z    SEL  0     **** SEL Z 16
     9 GLL5        5 GROUP        1 Z    GLL  0     **** GLL Z 20
@<TRIPOS>SET

