#    Name: 3t4e_NAD_2_ligand
#    Modification time : Mon Mar 24 19:05:52 2014

@<TRIPOS>MOLECULE
3t4e_NAD_2_ligand
   70    74     1     0     0
SMALL
NO_CHARGES


@<TRIPOS>ATOM
      1 PA          0.4920   81.6270   15.4990 P.3       1 NAD289      0.0000 
      2 O1A         0.2620   81.5180   14.0230 O.co2     1 NAD289      0.0000 
      3 O2A        -0.3210   80.8080   16.4790 O.co2     1 NAD289      0.0000 
      4 O5B         0.2920   83.1950   15.8530 O.3       1 NAD289      0.0000 
      5 C5B         0.9520   84.2110   15.0780 C.3       1 NAD289      0.0000 
      6 C4B         0.9370   85.5520   15.8240 C.3       1 NAD289      0.0000 
      7 O4B         1.8300   86.4980   15.1980 O.3       1 NAD289      0.0000 
      8 C3B        -0.4200   86.2420   15.8180 C.3       1 NAD289      0.0000 
      9 O3B        -0.5850   86.9680   17.0170 O.3       1 NAD289      0.0000 
     10 C2B        -0.3400   87.2370   14.6850 C.3       1 NAD289      0.0000 
     11 O2B        -1.2280   88.3310   14.8280 O.3       1 NAD289      0.0000 
     12 C1B         1.1060   87.6630   14.8070 C.3       1 NAD289      0.0000 
     13 N9A         1.6690   88.1760   13.5430 N.pl3     1 NAD289      0.0000 
     14 C8A         1.9040   87.4820   12.4150 C.2       1 NAD289      0.0000 
     15 N7A         2.4580   88.2920   11.4820 N.2       1 NAD289      0.0000 
     16 C5A         2.5800   89.5250   12.0310 C.ar      1 NAD289      0.0000 
     17 C6A         3.0510   90.7500   11.6140 C.ar      1 NAD289      0.0000 
     18 N6A         3.5290   90.9110   10.3730 N.pl3     1 NAD289      0.0000 
     19 N1A         3.0140   91.7900   12.4570 N.ar      1 NAD289      0.0000 
     20 C2A         2.5430   91.6790   13.7100 C.ar      1 NAD289      0.0000 
     21 N3A         2.0680   90.5190   14.1880 N.ar      1 NAD289      0.0000 
     22 C4A         2.0710   89.4290   13.3930 C.ar      1 NAD289      0.0000 
     23 O3          2.0690   81.3770   15.7380 O.3       1 NAD289      0.0000 
     24 PN          2.6440   80.7190   17.0800 P.3       1 NAD289      0.0000 
     25 O1N         2.5840   79.2250   16.9990 O.co2     1 NAD289      0.0000 
     26 O2N         2.0730   81.4090   18.3010 O.co2     1 NAD289      0.0000 
     27 O5D         4.1920   81.0610   16.9240 O.3       1 NAD289      0.0000 
     28 C5D         4.6630   82.3830   17.0230 C.3       1 NAD289      0.0000 
     29 C4D         6.1760   82.2940   17.1320 C.3       1 NAD289      0.0000 
     30 O4D         6.5700   81.6370   18.3520 O.3       1 NAD289      0.0000 
     31 C3D         6.7760   81.4880   15.9980 C.3       1 NAD289      0.0000 
     32 O3D         7.8920   82.1890   15.4950 O.3       1 NAD289      0.0000 
     33 C2D         7.2240   80.1780   16.6120 C.3       1 NAD289      0.0000 
     34 O2D         8.4020   79.6360   16.0040 O.3       1 NAD289      0.0000 
     35 C1D         7.5070   80.6060   18.0440 C.3       1 NAD289      0.0000 
     36 N1N         7.3930   79.5280   19.0000 N.pl3     1 NAD289      0.0000 
     37 C2N         8.5130   79.1940   19.6680 C.ar      1 NAD289      0.0000 
     38 C3N         8.5230   78.1790   20.6110 C.ar      1 NAD289      0.0000 
     39 C7N         9.7850   77.8400   21.3420 C.2       1 NAD289      0.0000 
     40 O7N         9.8650   76.7670   21.9220 O.2       1 NAD289      0.0000 
     41 N7N        10.7910   78.7230   21.3870 N.am      1 NAD289      0.0000 
     42 C4N         7.3350   77.4900   20.8510 C.ar      1 NAD289      0.0000 
     43 C5N         6.1800   77.8530   20.1490 C.ar      1 NAD289      0.0000 
     44 C6N         6.2300   78.8940   19.2230 C.ar      1 NAD289      0.0000 
     45 H           0.4590   84.3630   14.1093 H         1 NAD289      0.0000 
     46 H           1.9999   83.9508   14.8812 H         1 NAD289      0.0000 
     47 H           1.2300   85.3959   16.8488 H         1 NAD289      0.0000 
     48 H          -1.1688   85.5465   15.6235 H         1 NAD289      0.0000 
     49 H          -0.4389   86.7007   13.7701 H         1 NAD289      0.0000 
     50 H           1.1739   88.4137   15.5779 H         1 NAD289      0.0000 
     51 H           1.7066   86.5360   12.2836 H         1 NAD289      0.0000 
     52 H           3.8936   91.8165   10.1559 H         1 NAD289      0.0000 
     53 H           3.4785   90.1112    9.7748 H         1 NAD289      0.0000 
     54 H           2.5470   92.5302   14.3367 H         1 NAD289      0.0000 
     55 H           4.2934   82.8912   17.9093 H         1 NAD289      0.0000 
     56 H           4.4255   82.9763   16.1443 H         1 NAD289      0.0000 
     57 H           6.5932   83.2891   17.0928 H         1 NAD289      0.0000 
     58 H           6.0309   81.3010   15.2778 H         1 NAD289      0.0000 
     59 H           6.3983   79.5143   16.6319 H         1 NAD289      0.0000 
     60 H           8.5155   81.0237   18.0598 H         1 NAD289      0.0000 
     61 H           9.4094   79.7049   19.4821 H         1 NAD289      0.0000 
     62 H          11.6203   78.4216   21.8575 H         1 NAD289      0.0000 
     63 H          10.6227   79.6046   20.9461 H         1 NAD289      0.0000 
     64 H           7.3054   76.7288   21.5308 H         1 NAD289      0.0000 
     65 H           5.3010   77.3535   20.3169 H         1 NAD289      0.0000 
     66 H           5.3655   79.1587   18.7234 H         1 NAD289      0.0000 
     67 H          -1.2750   87.6607   16.8071 H         1 NAD289      0.0000 
     68 H          -1.9712   88.1468   14.1847 H         1 NAD289      0.0000 
     69 H           8.6202   81.5063   15.4337 H         1 NAD289      0.0000 
     70 H           9.0754   79.5884   16.7418 H         1 NAD289      0.0000 
@<TRIPOS>BOND
     1    2    1 ar   
     2    3    1 ar   
     3    4    1 1    
     4   23    1 1    
     5    5    4 1    
     6    6    5 1    
     7   45    5 1    
     8   46    5 1    
     9    7    6 1    
    10    8    6 1    
    11   47    6 1    
    12   12    7 1    
    13    9    8 1    
    14   10    8 1    
    15   48    8 1    
    16   67    9 1    
    17   11   10 1    
    18   12   10 1    
    19   49   10 1    
    20   68   11 1    
    21   13   12 1    
    22   50   12 1    
    23   14   13 1    
    24   22   13 1    
    25   15   14 2    
    26   51   14 1    
    27   16   15 1    
    28   17   16 ar   
    29   22   16 ar   
    30   18   17 1    
    31   19   17 ar   
    32   52   18 1    
    33   53   18 1    
    34   20   19 ar   
    35   21   20 ar   
    36   54   20 1    
    37   22   21 ar   
    38   24   23 1    
    39   25   24 ar   
    40   26   24 ar   
    41   27   24 1    
    42   28   27 1    
    43   29   28 1    
    44   55   28 1    
    45   56   28 1    
    46   30   29 1    
    47   31   29 1    
    48   57   29 1    
    49   35   30 1    
    50   32   31 1    
    51   33   31 1    
    52   58   31 1    
    53   69   32 1    
    54   34   33 1    
    55   35   33 1    
    56   59   33 1    
    57   70   34 1    
    58   36   35 1    
    59   60   35 1    
    60   37   36 ar   
    61   44   36 ar   
    62   38   37 ar   
    63   61   37 1    
    64   39   38 1    
    65   42   38 ar   
    66   40   39 2    
    67   41   39 am   
    68   62   41 1    
    69   63   41 1    
    70   43   42 ar   
    71   64   42 1    
    72   44   43 ar   
    73   65   43 1    
    74   66   44 1    
@<TRIPOS>SUBSTRUCTURE
     1 NAD289      1 GROUP   
@<TRIPOS>SET

