#    Name: 1ut6_A8N_1_INTS_M
#    Modification time : Tue Mar 25 07:04:46 2014

@<TRIPOS>MOLECULE
1ut6_A8N_1_INTS_M
   68     0     6     0     0
SMALL
NO_CHARGES


@<TRIPOS>ATOM
      1 CA          5.8635   68.2905   68.8920 C.3       2 GLC5        0.0000 
      2 CA          5.3560   69.9250   68.6260 C.3       6 GLL5        0.0000 
      3 CA          6.3710   66.6560   69.1580 C.3       4 GLP5        0.0000 
      4 CA          4.7655   67.6855   68.2935 C.3       2 GLC5        0.0000 
      5 CA          4.3350   69.3440   67.8600 C.3       6 GLL5        0.0000 
      6 CA          5.1960   66.0270   68.7270 C.3       4 GLP5        0.0000 
      7 CA          5.5375   71.0700   65.3170 C.3       2 GLC5        0.0000 
      8 CA          6.8330   69.9700   66.6970 C.3       6 GLL5        0.0000 
      9 CA          4.2420   72.1700   63.9370 C.3       4 GLP5        0.0000 
     10 O           1.2430   69.0570   67.1100 O.2       1 ALC1        0.0000 
     11 O           2.2490   68.0110   66.1630 O.2       5 ALL1        0.0000 
     12 O           0.2370   70.1030   68.0570 O.2       3 ALP1        0.0000 
     13 CA          1.7120   69.4580   63.9740 C.3       2 GLC5        0.0000 
     14 CA          2.7210   67.7250   63.1790 C.3       6 GLL5        0.0000 
     15 CA          0.7030   71.1910   64.7690 C.3       4 GLP5        0.0000 
     16 CA          5.4065   66.0335   60.1760 C.3       2 GLC5        0.0000 
     17 CA          4.5510   67.4580   61.4230 C.3       6 GLL5        0.0000 
     18 CA          6.2620   64.6090   58.9290 C.3       4 GLP5        0.0000 
     19 CA          7.0710   69.3745   61.7590 C.3       2 GLC5        0.0000 
     20 CA          5.5310   68.3690   62.2410 C.3       6 GLL5        0.0000 
     21 CA          8.6110   70.3800   61.2770 C.3       4 GLP5        0.0000 
     22 CA          0.2060   64.7205   66.8770 C.3       2 GLC5        0.0000 
     23 CA          0.8530   66.6770   67.7800 C.3       6 GLL5        0.0000 
     24 CA         -0.4410   62.7640   65.9740 C.3       4 GLP5        0.0000 
     25 CA          3.2050   65.9660   68.9000 C.3       2 GLC5        0.0000 
     26 CA          1.2140   65.9050   69.0730 C.3       6 GLL5        0.0000 
     27 CA         -1.2765   60.8045   69.8490 C.3       2 GLC5        0.0000 
     28 CA         -0.6600   61.7650   71.2940 C.3       6 GLL5        0.0000 
     29 CA         -1.8930   59.8440   68.4040 C.3       4 GLP5        0.0000 
     30 CA         -1.4660   59.9865   70.8100 C.3       2 GLC5        0.0000 
     31 CA         -0.1440   60.7820   72.3520 C.3       6 GLL5        0.0000 
     32 CA         -2.7880   59.1910   69.2680 C.3       4 GLP5        0.0000 
     33 CA          7.1082   68.3967   67.8635 C.3       2 GLC5        0.0000 
     34 CA          6.6200   70.2390   68.0450 C.3       6 GLL5        0.0000 
     35 CA          7.4900   66.6890   68.3560 C.3       4 GLP5        0.0000 
     36 CA          5.8425   71.4915   69.4632 C.3       2 GLC5        0.0000 
     37 CA          5.6970   72.9010   70.5910 C.3       4 GLP5        0.0000 
     38 CA          8.5832   70.2233   67.0240 C.3       2 GLC5        0.0000 
     39 CA         10.4400   70.3420   66.6770 C.3       4 GLP5        0.0000 
     40 CA          7.4902   71.5962   66.3560 C.3       2 GLC5        0.0000 
     41 CA          8.2540   73.0880   65.3410 C.3       4 GLP5        0.0000 
     42 CA          3.9038   70.7717   67.0005 C.3       2 GLC5        0.0000 
     43 CA          2.9620   71.9090   65.7580 C.3       4 GLP5        0.0000 
     44 CA          4.7293   68.8032   70.1030 C.3       2 GLC5        0.0000 
     45 CA          4.6130   67.9720   71.9630 C.3       4 GLP5        0.0000 
     46 CA          2.1605   69.7545   64.8353 C.3       2 GLC5        0.0000 
     47 CA          3.4860   68.4140   65.5980 C.3       6 GLL5        0.0000 
     48 CA          2.4015   66.1621   61.4532 C.3       2 GLC5        0.0000 
     49 CA          3.0970   67.9520   61.6810 C.3       6 GLL5        0.0000 
     50 CA          1.0730   64.6760   60.9800 C.3       4 GLP5        0.0000 
     51 CA          6.5785   66.7319   62.5376 C.3       2 GLC5        0.0000 
     52 CA          8.2280   65.5000   62.8780 C.3       4 GLP5        0.0000 
     53 CA          3.2875   66.0505   67.3632 C.3       2 GLC5        0.0000 
     54 CA          1.9830   66.6590   66.7230 C.3       6 GLL5        0.0000 
     55 CA          5.1570   65.4330   67.4750 C.3       4 GLP5        0.0000 
     56 CA          1.5005   66.3173   70.8215 C.3       2 GLC5        0.0000 
     57 CA          2.3540   67.2070   72.3370 C.3       4 GLP5        0.0000 
     58 CA         -1.7272   64.0798   70.1970 C.3       2 GLC5        0.0000 
     59 CA          0.0800   64.9500   69.5390 C.3       6 GLL5        0.0000 
     60 CA         -3.7870   63.9100   70.6570 C.3       4 GLP5        0.0000 
     61 CA         -0.6506   67.1492   69.5189 C.3       2 GLC5        0.0000 
     62 CA         -1.8580   68.6780   70.0550 C.3       4 GLP5        0.0000 
     63 CA         -0.0543   63.5067   67.8555 C.3       2 GLC5        0.0000 
     64 CA          1.5882   64.6420   71.6737 C.3       2 GLC5        0.0000 
     65 CA          0.5850   63.5490   69.9350 C.3       6 GLL5        0.0000 
     66 CA          2.8490   65.9470   72.7140 C.3       4 GLP5        0.0000 
     67 CA         -2.0410   63.1775   70.9850 C.3       2 GLC5        0.0000 
     68 CA          0.0700   63.1250   71.3320 C.3       6 GLL5        0.0000 
@<TRIPOS>BOND
@<TRIPOS>SUBSTRUCTURE
     1 ALC1       10 GROUP        1 X    ALC  0     ROOT ALC X 1
     2 GLC5        1 GROUP        1 X    GLC  0     **** GLC X 6
     3 ALP1       12 GROUP        1 Y    ALP  0     ROOT ALP Y 8
     4 GLP5        3 GROUP        1 Y    GLP  0     **** GLP Y 13
     5 ALL1       11 GROUP        1 Z    ALL  0     ROOT ALL Z 15
     6 GLL5        2 GROUP        1 Z    GLL  0     **** GLL Z 20
@<TRIPOS>SET

