#    Name: 1ut6_A8N_1_ligand
#    Modification time : Tue Mar 25 07:04:46 2014

@<TRIPOS>MOLECULE
1ut6_A8N_1_ligand
   56    58     1     0     0
SMALL
NO_CHARGES


@<TRIPOS>ATOM
      1 C1          6.6200   70.2390   68.0450 C.3       1 A8N1538     0.0000 
      2 C2          5.3560   69.9250   68.6260 C.3       1 A8N1538     0.0000 
      3 C3          4.3350   69.3440   67.8600 C.3       1 A8N1538     0.0000 
      4 C4          4.5060   69.0390   66.4520 C.ar      1 A8N1538     0.0000 
      5 C5          5.7850   69.3710   65.8820 C.ar      1 A8N1538     0.0000 
      6 C6          6.8330   69.9700   66.6970 C.3       1 A8N1538     0.0000 
      7 C7          3.4860   68.4140   65.5980 C.ar      1 A8N1538     0.0000 
      8 C8          3.7500   68.2220   64.2050 C.ar      1 A8N1538     0.0000 
      9 C9          5.0830   68.5700   63.7020 C.ar      1 A8N1538     0.0000 
     10 N10         6.0550   69.1120   64.5090 N.ar      1 A8N1538     0.0000 
     11 N11         2.2490   68.0110   66.1630 N.pl3     1 A8N1538     0.0000 
     12 C13         2.7210   67.7250   63.1790 C.ar      1 A8N1538     0.0000 
     13 C14         3.0970   67.9520   61.6810 C.ar      1 A8N1538     0.0000 
     14 C15         4.5510   67.4580   61.4230 C.ar      1 A8N1538     0.0000 
     15 C16         5.5310   68.3690   62.2410 C.ar      1 A8N1538     0.0000 
     16 C17         1.9830   66.6590   66.7230 C.3       1 A8N1538     0.0000 
     17 C18         0.8530   66.6770   67.7800 C.3       1 A8N1538     0.0000 
     18 C19         1.2140   65.9050   69.0730 C.3       1 A8N1538     0.0000 
     19 C20         0.0800   64.9500   69.5390 C.3       1 A8N1538     0.0000 
     20 C21         0.5850   63.5490   69.9350 C.3       1 A8N1538     0.0000 
     21 C22         0.0700   63.1250   71.3320 C.3       1 A8N1538     0.0000 
     22 C23        -0.6600   61.7650   71.2940 C.3       1 A8N1538     0.0000 
     23 C24        -0.1440   60.7820   72.3520 C.3       1 A8N1538     0.0000 
     24 N25        -1.3560   60.3440   73.1460 N.4       1 A8N1538     0.0000 
     25 H           7.4406   69.7309   68.6735 H         1 A8N1538     0.0000 
     26 H           6.8475   71.3480   68.2571 H         1 A8N1538     0.0000 
     27 H           4.9469   70.8819   69.1347 H         1 A8N1538     0.0000 
     28 H           5.5440   69.2692   69.5621 H         1 A8N1538     0.0000 
     29 H           3.3717   69.9849   67.9603 H         1 A8N1538     0.0000 
     30 H           3.9726   68.3723   68.3826 H         1 A8N1538     0.0000 
     31 H           7.7785   69.3165   66.5738 H         1 A8N1538     0.0000 
     32 H           7.1797   70.9314   66.1569 H         1 A8N1538     0.0000 
     33 H           1.4585   68.6858   66.2010 H         1 A8N1538     0.0000 
     34 H           1.9125   67.3090   63.4253 H         1 A8N1538     0.0000 
     35 H           2.5576   68.3115   61.0658 H         1 A8N1538     0.0000 
     36 H           4.7884   66.7839   60.9077 H         1 A8N1538     0.0000 
     37 H           6.2890   68.7377   61.8755 H         1 A8N1538     0.0000 
     38 H           2.8863   66.2579   67.1991 H         1 A8N1538     0.0000 
     39 H           1.6899   65.9656   65.9250 H         1 A8N1538     0.0000 
     40 H          -0.0476   66.2335   67.3434 H         1 A8N1538     0.0000 
     41 H           0.6277   67.7162   68.0401 H         1 A8N1538     0.0000 
     42 H           1.4187   66.6227   69.8700 H         1 A8N1538     0.0000 
     43 H           2.1173   65.3178   68.8958 H         1 A8N1538     0.0000 
     44 H          -0.6495   64.8521   68.7276 H         1 A8N1538     0.0000 
     45 H          -0.4281   65.4037   70.3970 H         1 A8N1538     0.0000 
     46 H           1.6743   63.5514   69.9465 H         1 A8N1538     0.0000 
     47 H           0.2426   62.8237   69.1978 H         1 A8N1538     0.0000 
     48 H          -0.6160   63.8873   71.7020 H         1 A8N1538     0.0000 
     49 H           0.9171   63.0557   72.0148 H         1 A8N1538     0.0000 
     50 H          -0.5312   61.3238   70.3000 H         1 A8N1538     0.0000 
     51 H          -1.7301   61.9351   71.4527 H         1 A8N1538     0.0000 
     52 H           0.5529   61.2837   72.9911 H         1 A8N1538     0.0000 
     53 H           0.3009   59.9392   71.8647 H         1 A8N1538     0.0000 
     54 H          -1.1132   59.6939   73.8660 H         1 A8N1538     0.0000 
     55 H          -1.8086   61.1174   73.5898 H         1 A8N1538     0.0000 
     56 H          -2.0383   59.8982   72.5666 H         1 A8N1538     0.0000 
@<TRIPOS>BOND
     1    2    1 1    
     2    6    1 1    
     3   25    1 1    
     4   26    1 1    
     5    3    2 1    
     6   27    2 1    
     7   28    2 1    
     8    4    3 1    
     9   29    3 1    
    10   30    3 1    
    11    5    4 ar   
    12    7    4 ar   
    13    6    5 1    
    14   10    5 ar   
    15   31    6 1    
    16   32    6 1    
    17    8    7 ar   
    18   11    7 1    
    19    9    8 ar   
    20   12    8 ar   
    21   10    9 ar   
    22   15    9 ar   
    23   16   11 1    
    24   33   11 1    
    25   13   12 ar   
    26   34   12 1    
    27   14   13 ar   
    28   35   13 1    
    29   15   14 ar   
    30   36   14 1    
    31   37   15 1    
    32   17   16 1    
    33   38   16 1    
    34   39   16 1    
    35   18   17 1    
    36   40   17 1    
    37   41   17 1    
    38   19   18 1    
    39   42   18 1    
    40   43   18 1    
    41   20   19 1    
    42   44   19 1    
    43   45   19 1    
    44   21   20 1    
    45   46   20 1    
    46   47   20 1    
    47   22   21 1    
    48   48   21 1    
    49   49   21 1    
    50   23   22 1    
    51   50   22 1    
    52   51   22 1    
    53   24   23 1    
    54   52   23 1    
    55   53   23 1    
    56   54   24 1    
    57   55   24 1    
    58   56   24 1    
@<TRIPOS>SUBSTRUCTURE
     1 A8N1538     1 GROUP   
@<TRIPOS>SET

