#    Name: 3ivh_1LI_1_INTS_M
#    Modification time : Tue Mar 25 17:31:50 2014

@<TRIPOS>MOLECULE
3ivh_1LI_1_INTS_M
   77     0    12     0     0
SMALL
NO_CHARGES


@<TRIPOS>ATOM
      1 CA         14.7390   -4.4235   14.3715 C.3       4 GLC5        0.0000 
      2 CA         15.6830   -5.5280   16.0490 C.3      12 GLL5        0.0000 
      3 CA         13.7950   -3.3190   12.6940 C.3       8 GLP5        0.0000 
      4 CA         13.6085   -4.9320   14.0505 C.3       4 GLC5        0.0000 
      5 CA         13.4220   -6.5450   15.4070 C.3      12 GLL5        0.0000 
      6 CA         11.8970   -9.5995   18.6890 C.3       4 GLC5        0.0000 
      7 CA         10.2280   -8.4380   18.5820 C.3      12 GLL5        0.0000 
      8 CA         13.5660  -10.7610   18.7960 C.3       8 GLP5        0.0000 
      9 CA         10.1775   -8.9350   20.3395 C.3       4 GLC5        0.0000 
     10 CA         10.1270   -9.4320   22.0970 C.3       8 GLP5        0.0000 
     11 CA          9.9620   -9.8775   18.0305 C.3       4 GLC5        0.0000 
     12 CA          9.6960  -11.3170   17.4790 C.3       8 GLP5        0.0000 
     13 CA         12.9985   -8.0340   18.4065 C.3       4 GLC5        0.0000 
     14 CA         11.7510   -7.5270   17.0260 C.3      12 GLL5        0.0000 
     15 CA         14.2460   -8.5410   19.7870 C.3       8 GLP5        0.0000 
     16 CA          6.8390   -5.5310   15.5990 C.3       4 GLC5        0.0000 
     17 CA          8.6070   -5.6230   15.1510 C.3      12 GLL5        0.0000 
     18 CA          5.0710   -5.4390   16.0470 C.3       8 GLP5        0.0000 
     19 CA          7.5415   -6.7845   14.5290 C.3       4 GLC5        0.0000 
     20 CA          6.4760   -7.9460   13.9070 C.3       8 GLP5        0.0000 
     21 O          13.0900   -3.8805   15.8615 O.2       1 ALC1        0.0000 
     22 O          13.5850   -4.7050   16.9810 O.2       9 ALL1        0.0000 
     23 O          12.5950   -3.0560   14.7420 O.2       5 ALP1        0.0000 
     24 N          14.1875   -5.9120   20.4085 N.am      2 SEC2        0.0000 
     25 N          13.4770   -5.3380   19.1160 N.am     10 SEL2        0.0000 
     26 N          14.8980   -6.4860   21.7010 N.am      6 SEP2        0.0000 
     27 CA         13.4195   -3.6900   20.3105 C.3       4 GLC5        0.0000 
     28 CA         12.4310   -3.2930   18.5710 C.3      12 GLL5        0.0000 
     29 CA         14.4080   -4.0870   22.0500 C.3       8 GLP5        0.0000 
     30 CA         13.0940   -1.9300   16.9490 C.3       4 GLC5        0.0000 
     31 CA         13.7570   -0.5670   15.3270 C.3       8 GLP5        0.0000 
     32 O          16.1240   -7.1385   14.4375 O.2       1 ALC1        0.0000 
     33 O          16.4000   -6.6910   15.6900 O.2       9 ALL1        0.0000 
     34 O          15.8480   -7.5860   13.1850 O.2       5 ALP1        0.0000 
     35 O          16.1820   -6.1190   14.0840 O.2       1 ALC1        0.0000 
     36 O          15.9640   -5.5470   12.4780 O.2       5 ALP1        0.0000 
     37 OD1        17.7810   -3.5630   16.1660 O.co2     3 ASC3        0.0000 
     38 OD1        17.8760   -4.7100   16.9280 O.co2    11 ASL3        0.0000 
     39 OD1        17.6860   -2.4160   15.4040 O.co2     7 ASP3        0.0000 
     40 CA         19.7525   -4.6685   15.2575 C.3       4 GLC5        0.0000 
     41 CA         20.1930   -4.2100   17.3920 C.3      12 GLL5        0.0000 
     42 CA         19.3120   -5.1270   13.1230 C.3       8 GLP5        0.0000 
     43 CA         20.2665   -9.0115   15.4415 C.3       4 GLC5        0.0000 
     44 CA         21.0730   -9.0790   17.5150 C.3      12 GLL5        0.0000 
     45 CA         19.4600   -8.9440   13.3680 C.3       8 GLP5        0.0000 
     46 CA         22.3440   -8.8185   15.9095 C.3       4 GLC5        0.0000 
     47 CA         23.6150   -8.5580   14.3040 C.3       8 GLP5        0.0000 
     48 CA         22.1545   -7.5835   17.1835 C.3       4 GLC5        0.0000 
     49 CA         23.2360   -6.0880   16.8520 C.3       8 GLP5        0.0000 
     50 CA         18.4755   -9.7105   15.8975 C.3       4 GLC5        0.0000 
     51 CA         18.7590   -9.9850   17.7150 C.3      12 GLL5        0.0000 
     52 CA         18.1920   -9.4360   14.0800 C.3       8 GLP5        0.0000 
     53 CA         17.8295  -11.5650   18.0440 C.3       4 GLC5        0.0000 
     54 CA         16.9000  -13.1450   18.3730 C.3       8 GLP5        0.0000 
     55 CA         16.9205   -9.6890   17.6385 C.3       4 GLC5        0.0000 
     56 CA         15.0820   -9.3930   17.5620 C.3       8 GLP5        0.0000 
     57 CA         14.6405   -7.7616   16.7021 C.3       4 GLC5        0.0000 
     58 CA         12.8588   -8.1660   14.4462 C.3       4 GLC5        0.0000 
     59 CA         13.0070   -9.6950   13.2340 C.3       8 GLP5        0.0000 
     60 CA         19.9887   -0.5370   18.8978 C.3       4 GLC5        0.0000 
     61 CA         19.3990   -2.5060   19.6350 C.3      12 GLL5        0.0000 
     62 CA         19.8890    1.3740   18.4840 C.3       8 GLP5        0.0000 
     63 CA          9.2196   -6.0274   13.5144 C.3       4 GLC5        0.0000 
     64 CA         10.9310   -6.0910   15.2820 C.3      12 GLL5        0.0000 
     65 CA          8.9950   -6.1560   11.6940 C.3       8 GLP5        0.0000 
     66 CA         22.9352   -2.7498   19.0553 C.3       4 GLC5        0.0000 
     67 CA         21.2150   -3.7330   18.4190 C.3      12 GLL5        0.0000 
     68 CA         24.8740   -2.4380   19.4070 C.3       8 GLP5        0.0000 
     69 CA         21.9700   -5.0297   17.3788 C.3       4 GLC5        0.0000 
     70 CA         21.1589   -2.6139   16.7899 C.3       4 GLC5        0.0000 
     71 CA         21.7230   -1.5920   15.5320 C.3       8 GLP5        0.0000 
     72 CA         16.9249   -7.6781   20.6796 C.3       4 GLC5        0.0000 
     73 CA         18.4330   -5.7000   20.2190 C.3      12 GLL5        0.0000 
     74 CA         15.2740   -8.7780   20.8960 C.3       8 GLP5        0.0000 
     75 CA         16.6155   -5.8565   21.6565 C.3       4 GLC5        0.0000 
     76 CA         18.4810   -6.8700   20.9810 C.3      12 GLL5        0.0000 
     77 CA         14.7740   -5.4280   22.7130 C.3       8 GLP5        0.0000 
@<TRIPOS>BOND
@<TRIPOS>SUBSTRUCTURE
     1 ALC1       21 GROUP        1 X    ALC  0     ROOT ALC X 1
     2 SEC2       24 GROUP        1 X    SEC  0     **** SEC X 2
     3 ASC3       37 GROUP        1 X    ASC  0     **** ASC X 3
     4 GLC5        1 GROUP        1 X    GLC  0     **** GLC X 6
     5 ALP1       23 GROUP        1 Y    ALP  0     ROOT ALP Y 8
     6 SEP2       26 GROUP        1 Y    SEP  0     **** SEP Y 9
     7 ASP3       39 GROUP        1 Y    ASP  0     **** ASP Y 10
     8 GLP5        3 GROUP        1 Y    GLP  0     **** GLP Y 13
     9 ALL1       22 GROUP        1 Z    ALL  0     ROOT ALL Z 15
    10 SEL2       25 GROUP        1 Z    SEL  0     **** SEL Z 16
    11 ASL3       38 GROUP        1 Z    ASL  0     **** ASL Z 17
    12 GLL5        2 GROUP        1 Z    GLL  0     **** GLL Z 20
@<TRIPOS>SET

