#    Name: 3ivh_1LI_1_ligand
#    Modification time : Tue Mar 25 17:31:50 2014

@<TRIPOS>MOLECULE
3ivh_1LI_1_ligand
   71    73     1     0     0
SMALL
NO_CHARGES


@<TRIPOS>ATOM
      1 C4         13.2080   -4.5360   18.2520 C.2       1 1LI1        0.0000 
      2 C7         15.6830   -5.5280   16.0490 C.3       1 1LI1        0.0000 
      3 C8         13.4220   -6.5450   15.4070 C.3       1 1LI1        0.0000 
      4 C10        10.9310   -6.0910   15.2820 C.ar      1 1LI1        0.0000 
      5 C13        10.4510   -7.6790   17.5070 C.ar      1 1LI1        0.0000 
      6 C17        16.4400   -4.7730   17.1580 C.3       1 1LI1        0.0000 
      7 C20        18.8230   -4.4490   18.0190 C.3       1 1LI1        0.0000 
      8 C21        18.3630   -3.1590   18.7120 C.3       1 1LI1        0.0000 
      9 C22        19.3990   -2.5060   19.6350 C.3       1 1LI1        0.0000 
     10 C24        18.8690   -5.6940   18.8930 C.ar      1 1LI1        0.0000 
     11 C26        18.9560   -8.0430   20.4340 C.ar      1 1LI1        0.0000 
     12 C28        19.3470   -6.8890   18.3550 C.ar      1 1LI1        0.0000 
     13 F16        10.2280   -8.4380   18.5820 F         1 1LI1        0.0000 
     14 C14        11.7510   -7.5270   17.0260 C.ar      1 1LI1        0.0000 
     15 C12         9.3910   -7.0440   16.8750 C.ar      1 1LI1        0.0000 
     16 C11         9.6320   -6.2580   15.7550 C.ar      1 1LI1        0.0000 
     17 F15         8.6070   -5.6230   15.1510 F         1 1LI1        0.0000 
     18 C9         11.9990   -6.7290   15.9100 C.ar      1 1LI1        0.0000 
     19 C31        14.2690   -5.9030   16.5060 C.3       1 1LI1        0.0000 
     20 N6         13.5850   -4.7050   16.9810 N.am      1 1LI1        0.0000 
     21 O5         13.4770   -5.3380   19.1160 O.2       1 1LI1        0.0000 
     22 C3         12.4310   -3.2930   18.5710 C.3       1 1LI1        0.0000 
     23 O18        16.4000   -6.6910   15.6900 O.3       1 1LI1        0.0000 
     24 N19        17.8760   -4.7100   16.9280 N.4       1 1LI1        0.0000 
     25 C34        20.7780   -2.3900   18.9880 C.3       1 1LI1        0.0000 
     26 C33        21.2150   -3.7330   18.4190 C.3       1 1LI1        0.0000 
     27 C32        20.1930   -4.2100   17.3920 C.3       1 1LI1        0.0000 
     28 C23        18.4330   -5.7000   20.2190 C.ar      1 1LI1        0.0000 
     29 C27        19.4110   -8.0750   19.1090 C.ar      1 1LI1        0.0000 
     30 C25        18.4810   -6.8700   20.9810 C.ar      1 1LI1        0.0000 
     31 C29        19.9210   -9.3560   18.4800 C.3       1 1LI1        0.0000 
     32 C30        21.0730   -9.0790   17.5150 C.3       1 1LI1        0.0000 
     33 C2         20.4570  -10.3410   19.5220 C.3       1 1LI1        0.0000 
     34 C1         18.7590   -9.9850   17.7150 C.3       1 1LI1        0.0000 
     35 H          15.5874   -4.8505   15.2031 H         1 1LI1        0.0000 
     36 H          13.4191   -5.9010   14.5360 H         1 1LI1        0.0000 
     37 H          13.8434   -7.5088   15.1482 H         1 1LI1        0.0000 
     38 H          11.1043   -5.4914   14.4617 H         1 1LI1        0.0000 
     39 H          16.2156   -5.2760   18.1167 H         1 1LI1        0.0000 
     40 H          16.0064   -3.7583   17.2262 H         1 1LI1        0.0000 
     41 H          17.4510   -3.3780   19.2998 H         1 1LI1        0.0000 
     42 H          18.0656   -2.4268   17.9370 H         1 1LI1        0.0000 
     43 H          19.4813   -3.0996   20.5533 H         1 1LI1        0.0000 
     44 H          19.0468   -1.5055   19.9131 H         1 1LI1        0.0000 
     45 H          18.9807   -8.9080   20.9955 H         1 1LI1        0.0000 
     46 H          19.6672   -6.9090   17.3662 H         1 1LI1        0.0000 
     47 H          12.5306   -8.0060   17.4969 H         1 1LI1        0.0000 
     48 H           8.4355   -7.1539   17.2320 H         1 1LI1        0.0000 
     49 H          14.3545   -6.6132   17.3265 H         1 1LI1        0.0000 
     50 H          13.4040   -3.9721   16.2525 H         1 1LI1        0.0000 
     51 H          21.4977   -2.0624   19.7352 H         1 1LI1        0.0000 
     52 H          20.7373   -1.6541   18.1877 H         1 1LI1        0.0000 
     53 H          21.2850   -4.4597   19.2208 H         1 1LI1        0.0000 
     54 H          22.1821   -3.6254   17.9405 H         1 1LI1        0.0000 
     55 H          20.1002   -3.4588   16.6019 H         1 1LI1        0.0000 
     56 H          20.5474   -5.1402   16.9379 H         1 1LI1        0.0000 
     57 H          18.0713   -4.8313   20.6414 H         1 1LI1        0.0000 
     58 H          18.1561   -6.8476   21.9612 H         1 1LI1        0.0000 
     59 H          12.9506   -2.4654   18.3585 H         1 1LI1        0.0000 
     60 H          11.5778   -3.2448   18.0517 H         1 1LI1        0.0000 
     61 H          12.1875   -3.2456   19.5397 H         1 1LI1        0.0000 
     62 H          21.8456   -8.6413   17.9749 H         1 1LI1        0.0000 
     63 H          21.4183   -9.9197   17.0977 H         1 1LI1        0.0000 
     64 H          20.7951   -8.4741   16.7688 H         1 1LI1        0.0000 
     65 H          20.7938  -11.1823   19.0991 H         1 1LI1        0.0000 
     66 H          21.2153   -9.9521   20.0452 H         1 1LI1        0.0000 
     67 H          19.7521  -10.6056   20.1801 H         1 1LI1        0.0000 
     68 H          19.0265  -10.8398   17.2704 H         1 1LI1        0.0000 
     69 H          17.9890  -10.1962   18.3171 H         1 1LI1        0.0000 
     70 H          18.4136   -9.3780   16.9993 H         1 1LI1        0.0000 
     71 H          16.0730   -6.9241   14.7742 H         1 1LI1        0.0000 
@<TRIPOS>BOND
     1   20    1 am   
     2   21    1 2    
     3   22    1 1    
     4    6    2 1    
     5   19    2 1    
     6   23    2 1    
     7   35    2 1    
     8   18    3 1    
     9   19    3 1    
    10   36    3 1    
    11   37    3 1    
    12   16    4 ar   
    13   18    4 ar   
    14   38    4 1    
    15   13    5 1    
    16   14    5 ar   
    17   15    5 ar   
    18   24    6 1    
    19   39    6 1    
    20   40    6 1    
    21    8    7 1    
    22   10    7 1    
    23   24    7 1    
    24   27    7 1    
    25    9    8 1    
    26   41    8 1    
    27   42    8 1    
    28   25    9 1    
    29   43    9 1    
    30   44    9 1    
    31   12   10 ar   
    32   28   10 ar   
    33   29   11 ar   
    34   30   11 ar   
    35   45   11 1    
    36   29   12 ar   
    37   46   12 1    
    38   18   14 ar   
    39   47   14 1    
    40   16   15 ar   
    41   48   15 1    
    42   17   16 1    
    43   20   19 1    
    44   49   19 1    
    45   50   20 1    
    46   59   22 1    
    47   60   22 1    
    48   61   22 1    
    49   71   23 1    
    50   26   25 1    
    51   51   25 1    
    52   52   25 1    
    53   27   26 1    
    54   53   26 1    
    55   54   26 1    
    56   55   27 1    
    57   56   27 1    
    58   30   28 ar   
    59   57   28 1    
    60   31   29 1    
    61   58   30 1    
    62   32   31 1    
    63   33   31 1    
    64   34   31 1    
    65   62   32 1    
    66   63   32 1    
    67   64   32 1    
    68   65   33 1    
    69   66   33 1    
    70   67   33 1    
    71   68   34 1    
    72   69   34 1    
    73   70   34 1    
@<TRIPOS>SUBSTRUCTURE
     1 1LI1        1 GROUP   
@<TRIPOS>SET

