#    Name: 3g0h_ANP_1_INTS_M
#    Modification time : Tue Mar 25 06:58:10 2014

@<TRIPOS>MOLECULE
3g0h_ANP_1_INTS_M
   68     0    15     0     0
SMALL
NO_CHARGES


@<TRIPOS>ATOM
      1 Zn          3.3010   -9.3325  -21.6145 Zn        4 ZIC7        0.0000 
      2 Zn          3.7520   -9.7310  -22.3750 Zn       14 ZIL7        0.0000 
      3 Zn          2.8500   -8.9340  -20.8540 Zn        9 ZIP7        0.0000 
      4 NZ          4.6875  -12.6845  -22.0750 N.4       3 LYC4        0.0000 
      5 NZ          5.1150  -11.7440  -23.1510 N.4      13 LYL4        0.0000 
      6 NZ          4.2600  -13.6250  -20.9990 N.4       8 LYP4        0.0000 
      7 N           4.6875  -12.6845  -22.0750 N.am      2 SEC2        0.0000 
      8 N           5.1150  -11.7440  -23.1510 N.am     12 SEL2        0.0000 
      9 N           4.2600  -13.6250  -20.9990 N.am      7 SEP2        0.0000 
     10 NZ          3.4365   -9.7975  -25.6125 N.4       3 LYC4        0.0000 
     11 NZ          3.4150  -10.7060  -24.7060 N.4      13 LYL4        0.0000 
     12 NZ          4.2260   -8.5830  -27.5530 N.4       8 LYP4        0.0000 
     13 NZ          1.8560  -10.3660  -24.8320 N.4       3 LYC4        0.0000 
     14 NZ          0.3400  -10.3630  -26.2440 N.4       8 LYP4        0.0000 
     15 N           3.4365   -9.7975  -25.6125 N.am      2 SEC2        0.0000 
     16 N           3.4150  -10.7060  -24.7060 N.am     12 SEL2        0.0000 
     17 N           3.4580   -8.8890  -26.5190 N.am      7 SEP2        0.0000 
     18 N           2.4210  -10.8385  -25.7160 N.am      2 SEC2        0.0000 
     19 N           1.4270  -10.9710  -26.7260 N.am      7 SEP2        0.0000 
     20 N           1.8560  -10.3660  -24.8320 N.am      2 SEC2        0.0000 
     21 N           0.2970  -10.0260  -24.9580 N.am      7 SEP2        0.0000 
     22 NZ          2.4625  -13.2425  -21.1425 N.4       3 LYC4        0.0000 
     23 NZ          0.6650  -12.8600  -21.2860 N.4      13 LYL4        0.0000 
     24 N          -0.2195  -13.6315  -20.8035 N.am      2 SEC2        0.0000 
     25 N           0.6650  -12.8600  -21.2860 N.am     12 SEL2        0.0000 
     26 N          -1.1040  -14.4030  -20.3210 N.am      7 SEP2        0.0000 
     27 N           0.4900  -12.9800  -19.7280 N.am      2 SEC2        0.0000 
     28 N           0.3150  -13.1000  -18.1700 N.am      7 SEP2        0.0000 
     29 NZ          3.2905  -12.3895  -20.6520 N.4       3 LYC4        0.0000 
     30 NZ          2.3210  -11.1540  -20.3050 N.4      13 LYL4        0.0000 
     31 Zn          2.5855  -10.0440  -20.5795 Zn        4 ZIC7        0.0000 
     32 Zn          2.3210  -11.1540  -20.3050 Zn       14 ZIL7        0.0000 
     33 N           3.2905  -12.3895  -20.6520 N.am      2 SEC2        0.0000 
     34 N           2.3210  -11.1540  -20.3050 N.am     12 SEL2        0.0000 
     35 N          -0.4200  -10.7450  -18.6640 N.am      2 SEC2        0.0000 
     36 N          -1.1290  -10.9810  -20.2200 N.am     12 SEL2        0.0000 
     37 N           0.2890  -10.5090  -17.1080 N.am      7 SEP2        0.0000 
     38 N          -0.5815   -9.6955  -19.5075 N.am      2 SEC2        0.0000 
     39 N          -0.0340   -8.4100  -18.7950 N.am      7 SEP2        0.0000 
     40 CA         -1.4145  -12.8535  -23.5515 C.3       5 GLC5        0.0000 
     41 CA         -2.8560  -11.8670  -22.4410 C.3      15 GLL5        0.0000 
     42 CA          0.0270  -13.8400  -24.6620 C.3      10 GLP5        0.0000 
     43 CA         -2.3215  -12.8160  -20.8185 C.3       5 GLC5        0.0000 
     44 CA         -1.7870  -13.7650  -19.1960 C.3      10 GLP5        0.0000 
     45 CA         -3.6105  -13.7640  -22.4175 C.3       5 GLC5        0.0000 
     46 CA         -4.3650  -15.6610  -22.3940 C.3      10 GLP5        0.0000 
     47 CA         -4.5305  -13.2175  -23.9600 C.3       5 GLC5        0.0000 
     48 CA         -4.0810  -11.3480  -23.1650 C.3      15 GLL5        0.0000 
     49 CA         -4.9800  -15.0870  -24.7550 C.3      10 GLP5        0.0000 
     50 O          -4.6515   -8.4760  -24.2330 O.2       1 ALC1        0.0000 
     51 O          -5.3130   -9.3050  -23.5730 O.2      11 ALL1        0.0000 
     52 O          -3.9900   -7.6470  -24.8930 O.2       6 ALP1        0.0000 
     53 CA         -5.1845  -13.7445  -22.1440 C.3       5 GLC5        0.0000 
     54 CA         -6.0040  -11.8280  -21.8940 C.3      15 GLL5        0.0000 
     55 N          -4.9080  -14.3450  -17.8070 N.am      2 SEC2        0.0000 
     56 N          -5.7960  -14.0110  -18.9170 N.am     12 SEL2        0.0000 
     57 N          -4.0200  -14.6790  -16.6970 N.am      7 SEP2        0.0000 
     58 CA         -9.3450  -14.7140  -18.0985 C.3       5 GLC5        0.0000 
     59 CA         -7.8900  -15.5470  -19.2100 C.3      15 GLL5        0.0000 
     60 CA        -10.8000  -13.8810  -16.9870 C.3      10 GLP5        0.0000 
     61 O          -8.1240  -17.6165  -17.7740 O.2       1 ALC1        0.0000 
     62 O          -7.7640  -16.3210  -18.1030 O.2      11 ALL1        0.0000 
     63 O          -8.4840  -18.9120  -17.4450 O.2       6 ALP1        0.0000 
     64 CA        -10.4635  -14.5940  -19.6105 C.3       5 GLC5        0.0000 
     65 CA         -9.0630  -14.9500  -21.1900 C.3      15 GLL5        0.0000 
     66 CA        -11.8640  -14.2380  -18.0310 C.3      10 GLP5        0.0000 
     67 CA         -6.8165  -11.0580  -19.9640 C.3       5 GLC5        0.0000 
     68 CA         -7.8780  -10.9710  -18.2550 C.3      10 GLP5        0.0000 
@<TRIPOS>BOND
@<TRIPOS>SUBSTRUCTURE
     1 ALC1       50 GROUP        1 X    ALC  0     ROOT ALC X 1
     2 SEC2        7 GROUP        1 X    SEC  0     **** SEC X 2
     3 LYC4        4 GROUP        1 X    LYC  0     **** LYC X 4
     4 ZIC7        1 GROUP        1 X    ZIC  0     **** ZIC X 5
     5 GLC5       40 GROUP        1 X    GLC  0     **** GLC X 6
     6 ALP1       52 GROUP        1 Y    ALP  0     ROOT ALP Y 8
     7 SEP2        9 GROUP        1 Y    SEP  0     **** SEP Y 9
     8 LYP4        6 GROUP        1 Y    LYP  0     **** LYP Y 11
     9 ZIP7        3 GROUP        1 Y    ZIP  0     **** ZIP Y 12
    10 GLP5       42 GROUP        1 Y    GLP  0     **** GLP Y 13
    11 ALL1       51 GROUP        1 Z    ALL  0     ROOT ALL Z 15
    12 SEL2        8 GROUP        1 Z    SEL  0     **** SEL Z 16
    13 LYL4        5 GROUP        1 Z    LYL  0     **** LYL Z 18
    14 ZIL7        2 GROUP        1 Z    ZIL  0     **** ZIL Z 19
    15 GLL5       41 GROUP        1 Z    GLL  0     **** GLL Z 20
@<TRIPOS>SET

