#    Name: 3g0h_ANP_1_ligand
#    Modification time : Tue Mar 25 06:58:10 2014

@<TRIPOS>MOLECULE
3g0h_ANP_1_ligand
   43    45     1     0     0
SMALL
NO_CHARGES


@<TRIPOS>ATOM
      1 PG          3.8440  -10.9280  -23.2880 P.3       1 ANP1        0.0000 
      2 O1G         3.7520   -9.7310  -22.3750 O.co2     1 ANP1        0.0000 
      3 O2G         5.1150  -11.7440  -23.1510 O.co2     1 ANP1        0.0000 
      4 O3G         3.4150  -10.7060  -24.7060 O.co2     1 ANP1        0.0000 
      5 PB          1.5270  -11.6490  -21.4730 P.3       1 ANP1        0.0000 
      6 O1B         0.6650  -12.8600  -21.2860 O.co2     1 ANP1        0.0000 
      7 O2B         2.3210  -11.1540  -20.3050 O.co2     1 ANP1        0.0000 
      8 N3B         2.6660  -12.0610  -22.7070 N.4       1 ANP1        0.0000 
      9 PA         -0.9470  -10.2960  -21.5510 P.3       1 ANP1        0.0000 
     10 O1A        -1.1290  -10.9810  -20.2200 O.co2     1 ANP1        0.0000 
     11 O2A        -1.3230   -8.8470  -21.7360 O.co2     1 ANP1        0.0000 
     12 O3A         0.6020  -10.4440  -21.9830 O.3       1 ANP1        0.0000 
     13 O5'        -1.7190  -11.0700  -22.7220 O.3       1 ANP1        0.0000 
     14 C5'        -2.8560  -11.8670  -22.4410 C.3       1 ANP1        0.0000 
     15 C4'        -4.0810  -11.3480  -23.1650 C.3       1 ANP1        0.0000 
     16 O4'        -5.1080  -12.2990  -22.9210 O.3       1 ANP1        0.0000 
     17 C3'        -4.5900  -10.0430  -22.5820 C.3       1 ANP1        0.0000 
     18 O3'        -5.3130   -9.3050  -23.5730 O.3       1 ANP1        0.0000 
     19 C2'        -5.5060  -10.4620  -21.4520 C.3       1 ANP1        0.0000 
     20 O2'        -6.6090   -9.5660  -21.2580 O.3       1 ANP1        0.0000 
     21 C1'        -6.0040  -11.8280  -21.8940 C.3       1 ANP1        0.0000 
     22 N9         -6.1320  -12.8180  -20.7820 N.pl3     1 ANP1        0.0000 
     23 C8         -5.3340  -12.9970  -19.7050 C.2       1 ANP1        0.0000 
     24 N7         -5.7960  -14.0110  -18.9170 N.2       1 ANP1        0.0000 
     25 C5         -6.9080  -14.4860  -19.4970 C.ar      1 ANP1        0.0000 
     26 C6         -7.8900  -15.5470  -19.2100 C.ar      1 ANP1        0.0000 
     27 N6         -7.7640  -16.3210  -18.1030 N.pl3     1 ANP1        0.0000 
     28 N1         -8.9120  -15.7140  -20.0920 N.ar      1 ANP1        0.0000 
     29 C2         -9.0630  -14.9500  -21.1900 C.ar      1 ANP1        0.0000 
     30 N3         -8.2040  -13.9730  -21.5090 N.ar      1 ANP1        0.0000 
     31 C4         -7.1300  -13.7020  -20.7200 C.ar      1 ANP1        0.0000 
     32 H          -3.0856  -11.8835  -21.3604 H         1 ANP1        0.0000 
     33 H          -2.7037  -12.9175  -22.7478 H         1 ANP1        0.0000 
     34 H          -3.8858  -11.2395  -24.1897 H         1 ANP1        0.0000 
     35 H          -3.7687   -9.5098  -22.1774 H         1 ANP1        0.0000 
     36 H          -4.9166  -10.6023  -20.5729 H         1 ANP1        0.0000 
     37 H          -6.9995  -11.6732  -22.3443 H         1 ANP1        0.0000 
     38 H          -4.5306  -12.4728  -19.5104 H         1 ANP1        0.0000 
     39 H          -7.7106  -17.3073  -18.2594 H         1 ANP1        0.0000 
     40 H          -7.7357  -15.8368  -17.2285 H         1 ANP1        0.0000 
     41 H          -9.8939  -15.1306  -21.8242 H         1 ANP1        0.0000 
     42 H          -4.8595   -8.4147  -23.6146 H         1 ANP1        0.0000 
     43 H          -6.6428   -9.0132  -22.0906 H         1 ANP1        0.0000 
@<TRIPOS>BOND
     1    2    1 ar   
     2    3    1 ar   
     3    4    1 ar   
     4    8    1 1    
     5    6    5 ar   
     6    7    5 ar   
     7    8    5 1    
     8   12    5 1    
     9   10    9 ar   
    10   11    9 ar   
    11   12    9 1    
    12   13    9 1    
    13   14   13 1    
    14   15   14 1    
    15   32   14 1    
    16   33   14 1    
    17   16   15 1    
    18   17   15 1    
    19   34   15 1    
    20   21   16 1    
    21   18   17 1    
    22   19   17 1    
    23   35   17 1    
    24   42   18 1    
    25   20   19 1    
    26   21   19 1    
    27   36   19 1    
    28   43   20 1    
    29   22   21 1    
    30   37   21 1    
    31   23   22 1    
    32   31   22 1    
    33   24   23 2    
    34   38   23 1    
    35   25   24 1    
    36   26   25 ar   
    37   31   25 ar   
    38   27   26 1    
    39   28   26 ar   
    40   39   27 1    
    41   40   27 1    
    42   29   28 ar   
    43   30   29 ar   
    44   41   29 1    
    45   31   30 ar   
@<TRIPOS>SUBSTRUCTURE
     1 ANP1        1 GROUP   
@<TRIPOS>SET

