#    Name: 4dq2_BTX_1_INTS_M
#    Modification time : Tue Mar 25 10:04:20 2014

@<TRIPOS>MOLECULE
4dq2_BTX_1_INTS_M
  104     0    12     0     0
SMALL
NO_CHARGES


@<TRIPOS>ATOM
      1 NZ         52.6795   20.3300   16.4330 N.4       3 LYC4        0.0000 
      2 NZ         52.9700   18.7140   16.3100 N.4      11 LYL4        0.0000 
      3 NZ         52.3890   21.9460   16.5560 N.4       7 LYP4        0.0000 
      4 NZ         55.1790   17.0240   16.5860 N.4       3 LYC4        0.0000 
      5 NZ         54.2500   17.0150   17.8030 N.4      11 LYL4        0.0000 
      6 NZ         57.4110   17.2430   15.4680 N.4       7 LYP4        0.0000 
      7 N          54.0080   15.8285   18.2620 N.am      2 SEC2        0.0000 
      8 N          54.2500   17.0150   17.8030 N.am     10 SEL2        0.0000 
      9 N          53.7660   14.6420   18.7210 N.am      6 SEP2        0.0000 
     10 N          55.1790   17.0240   16.5860 N.am      2 SEC2        0.0000 
     11 N          56.1080   17.0330   15.3690 N.am      6 SEP2        0.0000 
     12 CA         52.5830   20.3600   20.1995 C.3       4 GLC5        0.0000 
     13 CA         53.7860   20.3090   18.9060 C.3      12 GLL5        0.0000 
     14 CA         51.3800   20.4110   21.4930 C.3       8 GLP5        0.0000 
     15 N          53.3175   22.2120   17.7905 N.am      2 SEC2        0.0000 
     16 N          54.2460   22.4780   19.0250 N.am     10 SEL2        0.0000 
     17 N          52.3890   21.9460   16.5560 N.am      6 SEP2        0.0000 
     18 N          56.9190   24.5670   18.1280 N.am      2 SEC2        0.0000 
     19 N          56.8320   23.3090   18.9220 N.am     10 SEL2        0.0000 
     20 N          57.0060   25.8250   17.3340 N.am      6 SEP2        0.0000 
     21 N          53.2045   22.1800   24.3855 N.am      2 SEC2        0.0000 
     22 N          53.2130   22.9260   23.1060 N.am     10 SEL2        0.0000 
     23 N          53.1960   21.4340   25.6650 N.am      6 SEP2        0.0000 
     24 O          50.6910   23.4895   25.3205 O.2       1 ALC1        0.0000 
     25 O          50.5630   24.3720   24.0410 O.2       9 ALL1        0.0000 
     26 O          50.8190   22.6070   26.6000 O.2       5 ALP1        0.0000 
     27 O          49.2125   25.0525   24.1800 O.2       1 ALC1        0.0000 
     28 O          47.8620   25.7330   24.3190 O.2       5 ALP1        0.0000 
     29 N          49.4435   25.9885   22.1435 N.am      2 SEC2        0.0000 
     30 N          50.6770   25.3630   21.9870 N.am     10 SEL2        0.0000 
     31 N          48.2100   26.6140   22.3000 N.am      6 SEP2        0.0000 
     32 CA         50.9065   24.6105   18.9915 C.3       4 GLC5        0.0000 
     33 CA         51.2550   25.6680   20.7070 C.3      12 GLL5        0.0000 
     34 CA         50.5580   23.5530   17.2760 C.3       8 GLP5        0.0000 
     35 CA         52.8800   26.2055   21.8405 C.3       4 GLC5        0.0000 
     36 CA         54.5050   26.7430   22.9740 C.3       8 GLP5        0.0000 
     37 CA         51.6155   27.4815   20.7295 C.3       4 GLC5        0.0000 
     38 CA         51.9760   29.2950   20.7520 C.3       8 GLP5        0.0000 
     39 CA         51.3775   15.7790   17.1300 C.3       4 GLC5        0.0000 
     40 CA         50.4050   17.4520   18.1000 C.3      12 GLL5        0.0000 
     41 CA         52.3500   14.1060   16.1600 C.3       8 GLP5        0.0000 
     42 CA         49.5310   18.6000   21.9545 C.3       4 GLC5        0.0000 
     43 CA         48.3150   16.9360   21.1550 C.3      12 GLL5        0.0000 
     44 CA         50.7470   20.2640   22.7540 C.3       8 GLP5        0.0000 
     45 CA         49.8345   18.1965   23.2805 C.3       4 GLC5        0.0000 
     46 CA         48.6560   16.9320   22.6470 C.3      12 GLL5        0.0000 
     47 CA         51.0130   19.4610   23.9140 C.3       8 GLP5        0.0000 
     48 CA         45.4635   16.6585   22.5670 C.3       4 GLC5        0.0000 
     49 CA         47.4270   16.4520   23.3900 C.3      12 GLL5        0.0000 
     50 CA         43.5000   16.8650   21.7440 C.3       8 GLP5        0.0000 
     51 CA         46.2950   17.9850   26.7145 C.3       4 GLC5        0.0000 
     52 CA         47.2630   17.2930   24.9230 C.3      12 GLL5        0.0000 
     53 CA         45.3270   18.6770   28.5060 C.3       8 GLP5        0.0000 
     54 CA         45.1140   17.3270   26.4200 C.3       4 GLC5        0.0000 
     55 CA         46.1310   15.9910   25.2390 C.3      12 GLL5        0.0000 
     56 CA         44.0970   18.6630   27.6010 C.3       8 GLP5        0.0000 
     57 CA         44.0590   15.8685   25.9320 C.3       4 GLC5        0.0000 
     58 CA         41.9870   15.7460   26.6250 C.3       8 GLP5        0.0000 
     59 CA         44.8155   16.4280   23.4915 C.3       4 GLC5        0.0000 
     60 CA         47.3650   12.5770   25.1220 C.3       4 GLC5        0.0000 
     61 CA         46.8140   14.6830   24.8870 C.3      12 GLL5        0.0000 
     62 CA         47.9160   10.4710   25.3570 C.3       8 GLP5        0.0000 
     63 O          46.4805   13.9450   26.7225 O.2       1 ALC1        0.0000 
     64 O          47.8070   14.2410   25.8400 O.2       9 ALL1        0.0000 
     65 O          45.1540   13.6490   27.6050 O.2       5 ALP1        0.0000 
     66 O          47.7710   14.6650   27.2720 O.2       1 ALC1        0.0000 
     67 O          47.7350   15.0890   28.7040 O.2       5 ALP1        0.0000 
     68 N          49.8225   12.9795   26.9255 N.am      2 SEC2        0.0000 
     69 N          50.1070   13.9320   26.0200 N.am     10 SEL2        0.0000 
     70 N          49.5380   12.0270   27.8310 N.am      6 SEP2        0.0000 
     71 N          51.5060   14.4270   25.7820 N.am      2 SEC2        0.0000 
     72 N          52.9050   14.9220   25.5440 N.am      6 SEP2        0.0000 
     73 O          50.2965   14.7325   23.5850 O.2       1 ALC1        0.0000 
     74 O          49.0410   14.8460   24.1110 O.2       9 ALL1        0.0000 
     75 O          51.5520   14.6190   23.0590 O.2       5 ALP1        0.0000 
     76 CA         56.5500   19.4553   18.5897 C.3       4 GLC5        0.0000 
     77 CA         54.9740   21.2160   18.8090 C.3      12 GLL5        0.0000 
     78 CA         57.5830   17.6990   17.8630 C.3       8 GLP5        0.0000 
     79 CA         56.3727   24.6515   20.7647 C.3       4 GLC5        0.0000 
     80 CA         56.2580   22.7010   20.0690 C.3      12 GLL5        0.0000 
     81 CA         57.1700   26.2850   21.5220 C.3       8 GLP5        0.0000 
     82 CA         52.6870   23.9252   24.5200 C.3       4 GLC5        0.0000 
     83 CA         52.3990   23.7970   22.4950 C.3      12 GLL5        0.0000 
     84 CA         53.5780   23.6960   26.3620 C.3       8 GLP5        0.0000 
     85 CA         53.4398   25.4229   22.4748 C.3       4 GLC5        0.0000 
     86 CA         48.8023   18.6665   18.4733 C.3       4 GLC5        0.0000 
     87 CA         49.9500   17.0980   19.2330 C.3      12 GLL5        0.0000 
     88 CA         47.4270   20.0580   18.2800 C.3       8 GLP5        0.0000 
     89 CA         50.5593   18.6545   20.6477 C.3       4 GLC5        0.0000 
     90 CA         48.9183   15.0080   19.0293 C.3       4 GLC5        0.0000 
     91 CA         48.0980   13.1180   18.2560 C.3       8 GLP5        0.0000 
     92 CA         51.2976   16.2112   20.1471 C.3       4 GLC5        0.0000 
     93 CA         49.5270   16.6980   20.3720 C.3      12 GLL5        0.0000 
     94 CA         52.7430   15.4360   20.7750 C.3       8 GLP5        0.0000 
     95 CA         48.1740   18.4375   19.5218 C.3       4 GLC5        0.0000 
     96 CA         47.3969   16.7930   19.2469 C.3       4 GLC5        0.0000 
     97 CA         45.7670   16.6690   18.0150 C.3       8 GLP5        0.0000 
     98 CA         46.6818   18.2860   23.1047 C.3       4 GLC5        0.0000 
     99 CA         45.3220   19.8800   23.1910 C.3       8 GLP5        0.0000 
    100 CA         48.7055   18.3338   24.4917 C.3       4 GLC5        0.0000 
    101 CA         50.0660   19.7950   24.8270 C.3       8 GLP5        0.0000 
    102 CA         46.0095   18.2610   24.1360 C.3       4 GLC5        0.0000 
    103 CA         45.8524   14.4081   23.1149 C.3       4 GLC5        0.0000 
    104 CA         44.6960   13.2900   21.9400 C.3       8 GLP5        0.0000 
@<TRIPOS>BOND
@<TRIPOS>SUBSTRUCTURE
     1 ALC1       24 GROUP        1 X    ALC  0     ROOT ALC X 1
     2 SEC2        7 GROUP        1 X    SEC  0     **** SEC X 2
     3 LYC4        1 GROUP        1 X    LYC  0     **** LYC X 4
     4 GLC5       12 GROUP        1 X    GLC  0     **** GLC X 6
     5 ALP1       26 GROUP        1 Y    ALP  0     ROOT ALP Y 8
     6 SEP2        9 GROUP        1 Y    SEP  0     **** SEP Y 9
     7 LYP4        3 GROUP        1 Y    LYP  0     **** LYP Y 11
     8 GLP5       14 GROUP        1 Y    GLP  0     **** GLP Y 13
     9 ALL1       25 GROUP        1 Z    ALL  0     ROOT ALL Z 15
    10 SEL2        8 GROUP        1 Z    SEL  0     **** SEL Z 16
    11 LYL4        2 GROUP        1 Z    LYL  0     **** LYL Z 18
    12 GLL5       13 GROUP        1 Z    GLL  0     **** GLL Z 20
@<TRIPOS>SET

