#    Name: 4dq2_BTX_1_ligand
#    Modification time : Tue Mar 25 10:04:20 2014

@<TRIPOS>MOLECULE
4dq2_BTX_1_ligand
   66    70     1     0     0
SMALL
NO_CHARGES


@<TRIPOS>ATOM
      1 P          53.2020   18.0870   17.6130 P.3       1 BTX500      0.0000 
      2 O1P        52.9700   18.7140   16.3100 O.co2     1 BTX500      0.0000 
      3 O2P        54.2500   17.0150   17.8030 O.co2     1 BTX500      0.0000 
      4 O5'        54.0190   19.0330   18.5860 O.3       1 BTX500      0.0000 
      5 C5'        53.7860   20.3090   18.9060 C.3       1 BTX500      0.0000 
      6 C4'        54.9740   21.2160   18.8090 C.3       1 BTX500      0.0000 
      7 O4'        54.2460   22.4780   19.0250 O.3       1 BTX500      0.0000 
      8 C3'        56.0600   21.2070   19.8240 C.3       1 BTX500      0.0000 
      9 O3'        57.3170   20.7970   19.3340 O.3       1 BTX500      0.0000 
     10 C2'        56.2580   22.7010   20.0690 C.3       1 BTX500      0.0000 
     11 O2'        56.8320   23.3090   18.9220 O.3       1 BTX500      0.0000 
     12 C1'        54.8930   23.3350   19.9460 C.3       1 BTX500      0.0000 
     13 N9         54.0490   23.3010   21.1660 N.pl3     1 BTX500      0.0000 
     14 C8         54.2280   22.5970   22.2970 C.2       1 BTX500      0.0000 
     15 N7         53.2130   22.9260   23.1060 N.2       1 BTX500      0.0000 
     16 C5         52.3990   23.7970   22.4950 C.ar      1 BTX500      0.0000 
     17 C6         51.1930   24.5120   22.8610 C.ar      1 BTX500      0.0000 
     18 N6         50.5630   24.3720   24.0410 N.pl3     1 BTX500      0.0000 
     19 N1         50.6770   25.3630   21.9870 N.ar      1 BTX500      0.0000 
     20 C2         51.2550   25.6680   20.7070 C.ar      1 BTX500      0.0000 
     21 N3         52.4630   24.9630   20.4420 N.ar      1 BTX500      0.0000 
     22 C4         52.9530   24.0510   21.2730 C.ar      1 BTX500      0.0000 
     23 CBB        50.4050   17.4520   18.1000 C.3       1 BTX500      0.0000 
     24 OBB        51.8590   17.6360   18.3940 O.3       1 BTX500      0.0000 
     25 CAB        49.9500   17.0980   19.2330 C.3       1 BTX500      0.0000 
     26 C9B        49.5270   16.6980   20.3720 C.3       1 BTX500      0.0000 
     27 C8B        48.3150   16.9360   21.1550 C.3       1 BTX500      0.0000 
     28 C7B        48.6560   16.9320   22.6470 C.3       1 BTX500      0.0000 
     29 C2B        47.4270   16.4520   23.3900 C.3       1 BTX500      0.0000 
     30 S1B        47.2630   17.2930   24.9230 S.3       1 BTX500      0.0000 
     31 C6B        46.1310   15.9910   25.2390 C.3       1 BTX500      0.0000 
     32 C5B        46.8140   14.6830   24.8870 C.3       1 BTX500      0.0000 
     33 N1B        47.8070   14.2410   25.8400 N.am      1 BTX500      0.0000 
     34 C3B        49.0630   14.2890   25.3630 C.2       1 BTX500      0.0000 
     35 O3B        50.1070   13.9320   26.0200 O.2       1 BTX500      0.0000 
     36 N2B        49.0410   14.8460   24.1110 N.am      1 BTX500      0.0000 
     37 C4B        47.6630   14.9790   23.6430 C.3       1 BTX500      0.0000 
     38 H          53.3795   20.4288   19.9576 H         1 BTX500      0.0000 
     39 H          52.9746   20.7786   18.2683 H         1 BTX500      0.0000 
     40 H          55.3345   21.2402   17.8123 H         1 BTX500      0.0000 
     41 H          55.7627   20.7776   20.7117 H         1 BTX500      0.0000 
     42 H          56.6839   22.9250   20.9379 H         1 BTX500      0.0000 
     43 H          54.9761   24.3058   19.5506 H         1 BTX500      0.0000 
     44 H          54.9375   21.9859   22.4831 H         1 BTX500      0.0000 
     45 H          49.7565   24.9466   24.1801 H         1 BTX500      0.0000 
     46 H          50.9573   23.7058   24.6740 H         1 BTX500      0.0000 
     47 H          50.8539   26.2968   20.0862 H         1 BTX500      0.0000 
     48 H          50.3381   16.7084   17.3031 H         1 BTX500      0.0000 
     49 H          50.0402   18.4061   17.7139 H         1 BTX500      0.0000 
     50 H          48.5845   17.5447   18.8556 H         1 BTX500      0.0000 
     51 H          49.8299   18.5159   19.6592 H         1 BTX500      0.0000 
     52 H          50.4206   16.8622   21.2079 H         1 BTX500      0.0000 
     53 H          49.6457   15.4706   20.4314 H         1 BTX500      0.0000 
     54 H          47.5721   16.1578   20.9720 H         1 BTX500      0.0000 
     55 H          47.8734   17.9028   20.9079 H         1 BTX500      0.0000 
     56 H          48.9054   17.9312   22.9572 H         1 BTX500      0.0000 
     57 H          49.4768   16.2593   22.8221 H         1 BTX500      0.0000 
     58 H          46.5522   16.6282   22.8722 H         1 BTX500      0.0000 
     59 H          45.3087   16.2142   24.6121 H         1 BTX500      0.0000 
     60 H          45.9188   16.0864   26.2709 H         1 BTX500      0.0000 
     61 H          46.1256   13.9425   24.6337 H         1 BTX500      0.0000 
     62 H          47.5371   13.9441   26.7366 H         1 BTX500      0.0000 
     63 H          49.7842   15.1221   23.5832 H         1 BTX500      0.0000 
     64 H          47.4107   14.3999   22.8762 H         1 BTX500      0.0000 
     65 H          57.8543   21.6375   19.2646 H         1 BTX500      0.0000 
     66 H          56.3175   22.9391   18.1483 H         1 BTX500      0.0000 
@<TRIPOS>BOND
     1    2    1 ar   
     2    3    1 ar   
     3    4    1 1    
     4   24    1 1    
     5    5    4 1    
     6    6    5 1    
     7   38    5 1    
     8   39    5 1    
     9    7    6 1    
    10    8    6 1    
    11   40    6 1    
    12   12    7 1    
    13    9    8 1    
    14   10    8 1    
    15   41    8 1    
    16   65    9 1    
    17   11   10 1    
    18   12   10 1    
    19   42   10 1    
    20   66   11 1    
    21   13   12 1    
    22   43   12 1    
    23   14   13 1    
    24   22   13 1    
    25   15   14 2    
    26   44   14 1    
    27   16   15 1    
    28   17   16 ar   
    29   22   16 ar   
    30   18   17 1    
    31   19   17 ar   
    32   45   18 1    
    33   46   18 1    
    34   20   19 ar   
    35   21   20 ar   
    36   47   20 1    
    37   22   21 ar   
    38   24   23 1    
    39   25   23 1    
    40   48   23 1    
    41   49   23 1    
    42   26   25 1    
    43   50   25 1    
    44   51   25 1    
    45   27   26 1    
    46   52   26 1    
    47   53   26 1    
    48   28   27 1    
    49   54   27 1    
    50   55   27 1    
    51   29   28 1    
    52   56   28 1    
    53   57   28 1    
    54   30   29 1    
    55   37   29 1    
    56   58   29 1    
    57   31   30 1    
    58   32   31 1    
    59   59   31 1    
    60   60   31 1    
    61   33   32 1    
    62   37   32 1    
    63   61   32 1    
    64   34   33 am   
    65   62   33 1    
    66   35   34 2    
    67   36   34 am   
    68   37   36 1    
    69   63   36 1    
    70   64   37 1    
@<TRIPOS>SUBSTRUCTURE
     1 BTX500      1 GROUP   
@<TRIPOS>SET

