#    Name: 2i19_1BY_2_INTS_M
#    Modification time : Tue Mar 25 17:22:09 2014

@<TRIPOS>MOLECULE
2i19_1BY_2_INTS_M
   39     0    12     0     0
SMALL
NO_CHARGES


@<TRIPOS>ATOM
      1 CA         15.0930   16.1900   42.9515 C.3       4 GLC5        0.0000 
      2 CA         15.1900   17.6850   41.6060 C.3      12 GLL5        0.0000 
      3 CA         14.9960   14.6950   44.2970 C.3       8 GLP5        0.0000 
      4 CA         19.4560   17.7770   39.1700 C.3       4 GLC5        0.0000 
      5 CA         19.7680   16.6100   40.6860 C.3      12 GLL5        0.0000 
      6 CA         19.1440   18.9440   37.6540 C.3       8 GLP5        0.0000 
      7 NZ         22.5555   17.1805   37.8700 N.4       2 LYC4        0.0000 
      8 NZ         22.0070   15.6030   38.7540 N.4      10 LYL4        0.0000 
      9 NZ         23.1040   18.7580   36.9860 N.4       6 LYP4        0.0000 
     10 Zn         22.9235   17.0700   41.5785 Zn        3 ZIC7        0.0000 
     11 Zn         23.0310   16.7580   40.6510 Zn       11 ZIL7        0.0000 
     12 Zn         22.8160   17.3820   42.5060 Zn        7 ZIP7        0.0000 
     13 N          22.9440   17.2405   39.2075 N.am      1 SEC2        0.0000 
     14 N          23.0310   16.7580   40.6510 N.am      9 SEL2        0.0000 
     15 N          22.8570   17.7230   37.7640 N.am      5 SEP2        0.0000 
     16 Zn         21.9385   16.9210   43.0500 Zn        3 ZIC7        0.0000 
     17 Zn         21.0610   16.4600   43.5940 Zn       11 ZIL7        0.0000 
     18 Zn         20.9310   17.0610   44.4805 Zn        3 ZIC7        0.0000 
     19 Zn         20.8010   17.6620   45.3670 Zn        7 ZIP7        0.0000 
     20 NZ         18.9205   14.0095   44.3740 N.4       2 LYC4        0.0000 
     21 NZ         19.4470   14.6460   43.3570 N.4      10 LYL4        0.0000 
     22 NZ         18.3940   13.3730   45.3910 N.4       6 LYP4        0.0000 
     23 N          18.9205   14.0095   44.3740 N.am      1 SEC2        0.0000 
     24 N          19.4470   14.6460   43.3570 N.am      9 SEL2        0.0000 
     25 N          18.3940   13.3730   45.3910 N.am      5 SEP2        0.0000 
     26 N          19.1505   15.6440   44.0395 N.am      1 SEC2        0.0000 
     27 N          18.8540   16.6420   44.7220 N.am      5 SEP2        0.0000 
     28 CA         15.7950   20.4740   40.8285 C.3       4 GLC5        0.0000 
     29 CA         16.9280   19.3190   41.9220 C.3      12 GLL5        0.0000 
     30 CA         15.3130   21.7740   39.7000 C.3       8 GLP5        0.0000 
     31 CA         18.8963   19.8708   42.0600 C.3       4 GLC5        0.0000 
     32 CA         20.3890   20.9400   42.4090 C.3       8 GLP5        0.0000 
     33 CA         15.8170   19.6910   43.6915 C.3       4 GLC5        0.0000 
     34 CA         15.3570   20.2080   45.4260 C.3       8 GLP5        0.0000 
     35 CA         18.4057   18.3080   39.4880 C.3       4 GLC5        0.0000 
     36 CA         17.8790   18.2840   41.5000 C.3      12 GLL5        0.0000 
     37 CA         13.5685   18.6495   41.8280 C.3       4 GLC5        0.0000 
     38 CA         15.6260   19.0290   41.9920 C.3      12 GLL5        0.0000 
     39 CA         11.7290   18.9420   41.8570 C.3       8 GLP5        0.0000 
@<TRIPOS>BOND
@<TRIPOS>SUBSTRUCTURE
     1 SEC2       13 GROUP        1 X    SEC  0     ROOT SEC X 2
     2 LYC4        7 GROUP        1 X    LYC  0     **** LYC X 4
     3 ZIC7       10 GROUP        1 X    ZIC  0     **** ZIC X 5
     4 GLC5        1 GROUP        1 X    GLC  0     **** GLC X 6
     5 SEP2       15 GROUP        1 Y    SEP  0     ROOT SEP Y 9
     6 LYP4        9 GROUP        1 Y    LYP  0     **** LYP Y 11
     7 ZIP7       12 GROUP        1 Y    ZIP  0     **** ZIP Y 12
     8 GLP5        3 GROUP        1 Y    GLP  0     **** GLP Y 13
     9 SEL2       14 GROUP        1 Z    SEL  0     ROOT SEL Z 16
    10 LYL4        8 GROUP        1 Z    LYL  0     **** LYL Z 18
    11 ZIL7       11 GROUP        1 Z    ZIL  0     **** ZIL Z 19
    12 GLL5        2 GROUP        1 Z    GLL  0     **** GLL Z 20
@<TRIPOS>SET

