#    Name: 2i19_1BY_2_ligand
#    Modification time : Tue Mar 25 17:22:09 2014

@<TRIPOS>MOLECULE
2i19_1BY_2_ligand
   25    25     1     0     0
SMALL
NO_CHARGES


@<TRIPOS>ATOM
      1 C5         16.9280   19.3190   41.9220 C.ar      1 1BY4001     0.0000 
      2 C4         17.8790   18.2840   41.5000 C.ar      1 1BY4001     0.0000 
      3 C6         15.6260   19.0290   41.9920 C.ar      1 1BY4001     0.0000 
      4 C7         15.1900   17.6850   41.6060 C.ar      1 1BY4001     0.0000 
      5 N2         16.0320   16.8140   41.2180 N.ar      1 1BY4001     0.0000 
      6 C3         17.4560   17.0600   41.1440 C.ar      1 1BY4001     0.0000 
      7 N1         18.3620   16.1980   40.7240 N.pl3     1 1BY4001     0.0000 
      8 C2         19.7680   16.6100   40.6860 C.3       1 1BY4001     0.0000 
      9 C1         20.6830   15.4330   41.0730 C.3       1 1BY4001     0.0000 
     10 P1         22.2950   15.5420   40.2240 P.3       1 1BY4001     0.0000 
     11 O1         22.0070   15.6030   38.7540 O.co2     1 1BY4001     0.0000 
     12 O2         23.0310   16.7580   40.6510 O.co2     1 1BY4001     0.0000 
     13 O3         23.1340   14.3310   40.4400 O.co2     1 1BY4001     0.0000 
     14 P2         20.7600   15.1860   42.8750 P.3       1 1BY4001     0.0000 
     15 O4         21.0610   16.4600   43.5940 O.co2     1 1BY4001     0.0000 
     16 O5         19.4470   14.6460   43.3570 O.co2     1 1BY4001     0.0000 
     17 O6         21.8430   14.2080   43.2140 O.co2     1 1BY4001     0.0000 
     18 H          17.3183   20.2375   42.1484 H         1 1BY4001     0.0000 
     19 H          18.8750   18.5537   41.4950 H         1 1BY4001     0.0000 
     20 H          14.9101   19.6814   42.2971 H         1 1BY4001     0.0000 
     21 H          14.1605   17.5240   41.6796 H         1 1BY4001     0.0000 
     22 H          18.1555   15.2453   40.4166 H         1 1BY4001     0.0000 
     23 H          19.9555   17.4280   41.3862 H         1 1BY4001     0.0000 
     24 H          20.0515   16.9431   39.6845 H         1 1BY4001     0.0000 
     25 H          20.2626   14.4891   40.6983 H         1 1BY4001     0.0000 
@<TRIPOS>BOND
     1    2    1 ar   
     2    3    1 ar   
     3   18    1 1    
     4    6    2 ar   
     5   19    2 1    
     6    4    3 ar   
     7   20    3 1    
     8    5    4 ar   
     9   21    4 1    
    10    6    5 ar   
    11    7    6 1    
    12    8    7 1    
    13   22    7 1    
    14    9    8 1    
    15   23    8 1    
    16   24    8 1    
    17   10    9 1    
    18   14    9 1    
    19   25    9 1    
    20   11   10 ar   
    21   12   10 ar   
    22   13   10 ar   
    23   15   14 ar   
    24   16   14 ar   
    25   17   14 ar   
@<TRIPOS>SUBSTRUCTURE
     1 1BY4001     1 GROUP   
@<TRIPOS>SET

