#    Name: 1rt5_UC2_1_INTS_M
#    Modification time : Tue Mar 25 01:12:28 2014

@<TRIPOS>MOLECULE
1rt5_UC2_1_INTS_M
   74     0     6     0     0
SMALL
NO_CHARGES


@<TRIPOS>ATOM
      1 CA          0.0615  -37.5575   27.2950 C.3       2 GLC5        0.0000 
      2 CA          0.0190  -37.7160   25.1850 C.3       6 GLL5        0.0000 
      3 CA          0.1040  -37.3990   29.4050 C.3       4 GLP5        0.0000 
      4 CA          2.7420  -34.5700   22.9015 C.3       2 GLC5        0.0000 
      5 CA          3.0220  -36.5220   23.4660 C.3       6 GLL5        0.0000 
      6 CA          2.4620  -32.6180   22.3370 C.3       4 GLP5        0.0000 
      7 CA          2.7895  -38.3300   23.2300 C.3       2 GLC5        0.0000 
      8 CA          2.5570  -40.1380   22.9940 C.3       4 GLP5        0.0000 
      9 CA          3.5275  -37.0515   25.5260 C.3       2 GLC5        0.0000 
     10 CA          4.0330  -37.5810   27.5860 C.3       4 GLP5        0.0000 
     11 CA          4.7255  -35.5465   22.9325 C.3       2 GLC5        0.0000 
     12 CA          6.4290  -34.5710   22.3990 C.3       4 GLP5        0.0000 
     13 CA         -1.2915  -37.2830   21.1995 C.3       2 GLC5        0.0000 
     14 CA          0.2740  -36.1780   21.7630 C.3       6 GLL5        0.0000 
     15 CA         -2.8570  -38.3880   20.6360 C.3       4 GLP5        0.0000 
     16 CA          0.8915  -36.0600   18.5650 C.3       2 GLC5        0.0000 
     17 CA          1.4840  -36.3340   20.6100 C.3       6 GLL5        0.0000 
     18 CA          0.2990  -35.7860   16.5200 C.3       4 GLP5        0.0000 
     19 CA          0.2360  -37.7220   19.8495 C.3       2 GLC5        0.0000 
     20 CA         -1.0120  -39.1100   19.0890 C.3       4 GLP5        0.0000 
     21 O          -1.3105  -35.1320   20.1705 O.2       1 ALC1        0.0000 
     22 O          -0.8850  -35.5090   21.4010 O.2       5 ALL1        0.0000 
     23 O          -1.7360  -34.7550   18.9400 O.2       3 ALP1        0.0000 
     24 CA         -2.1360  -32.0085   25.2625 C.3       2 GLC5        0.0000 
     25 CA         -2.4270  -34.0010   24.4330 C.3       6 GLL5        0.0000 
     26 CA         -1.8450  -30.0160   26.0920 C.3       4 GLP5        0.0000 
     27 CA         -5.8515  -34.0630   22.1855 C.3       2 GLC5        0.0000 
     28 CA         -3.9940  -33.9690   22.6040 C.3       6 GLL5        0.0000 
     29 CA         -7.7090  -34.1570   21.7670 C.3       4 GLP5        0.0000 
     30 CA         -3.5385  -34.7965   19.6560 C.3       2 GLC5        0.0000 
     31 CA         -3.0590  -34.5470   21.7860 C.3       6 GLL5        0.0000 
     32 CA         -4.0180  -35.0460   17.5260 C.3       4 GLP5        0.0000 
     33 CA         -5.0080  -35.1315   24.7110 C.3       2 GLC5        0.0000 
     34 CA         -4.9010  -33.0820   24.9460 C.3       6 GLL5        0.0000 
     35 CA         -5.1150  -37.1810   24.4760 C.3       4 GLP5        0.0000 
     36 CA         -5.2030  -33.3045   26.9595 C.3       2 GLC5        0.0000 
     37 CA         -5.5050  -33.5270   28.9730 C.3       4 GLP5        0.0000 
     38 CA         -6.5530  -31.9875   24.3210 C.3       2 GLC5        0.0000 
     39 CA         -8.2050  -30.8930   23.6960 C.3       4 GLP5        0.0000 
     40 CA         -6.3050  -33.6195   23.3565 C.3       2 GLC5        0.0000 
     41 CA          1.7645  -31.8255   30.0040 C.3       2 GLC5        0.0000 
     42 CA          1.3670  -33.1640   28.7010 C.3       6 GLL5        0.0000 
     43 CA          2.1620  -30.4870   31.3070 C.3       4 GLP5        0.0000 
     44 CA          0.9840  -31.8295   24.7660 C.3       2 GLC5        0.0000 
     45 CA          1.6700  -32.1060   26.5370 C.3       6 GLL5        0.0000 
     46 CA          0.2980  -31.5530   22.9950 C.3       4 GLP5        0.0000 
     47 CA          2.3090  -30.7185   27.7360 C.3       2 GLC5        0.0000 
     48 CA          2.9480  -29.3310   28.9350 C.3       4 GLP5        0.0000 
     49 CA          0.8165  -35.9595   28.0550 C.3       2 GLC5        0.0000 
     50 CA          1.5290  -34.5200   26.7050 C.3       6 GLL5        0.0000 
     51 CA         -1.4828  -37.7070   22.1307 C.3       2 GLC5        0.0000 
     52 CA          0.4130  -36.7450   23.1630 C.3       6 GLL5        0.0000 
     53 CA         -2.1612  -37.4352   25.6762 C.3       2 GLC5        0.0000 
     54 CA         -0.6300  -37.3070   24.0880 C.3       6 GLL5        0.0000 
     55 CA         -4.0170  -37.3590   26.7160 C.3       4 GLP5        0.0000 
     56 CA         -1.6392  -39.1762   24.4243 C.3       2 GLC5        0.0000 
     57 CA         -2.9730  -40.8410   24.2120 C.3       4 GLP5        0.0000 
     58 CA          1.6705  -34.4370   21.7617 C.3       2 GLC5        0.0000 
     59 CA         -2.6413  -36.5478   21.3342 C.3       2 GLC5        0.0000 
     60 CA         -1.7920  -34.8680   22.2790 C.3       6 GLL5        0.0000 
     61 CA         -0.8672  -32.9578   23.3409 C.3       2 GLC5        0.0000 
     62 CA         -4.0865  -35.5152   24.3305 C.3       2 GLC5        0.0000 
     63 CA         -4.2995  -31.5595   25.1683 C.3       2 GLC5        0.0000 
     64 CA         -3.6890  -33.6980   23.9370 C.3       6 GLL5        0.0000 
     65 CA         -4.3040  -29.7290   25.8950 C.3       4 GLP5        0.0000 
     66 CA         -4.3208  -35.7195   23.3355 C.3       2 GLC5        0.0000 
     67 CA          0.0393  -34.2893   29.1445 C.3       2 GLC5        0.0000 
     68 CA         -1.1190  -35.3780   30.3070 C.3       4 GLP5        0.0000 
     69 CA         -0.2480  -31.3438   26.4960 C.3       2 GLC5        0.0000 
     70 CA          1.0280  -33.2370   27.2630 C.3       6 GLL5        0.0000 
     71 CA          2.7196  -34.6651   28.1627 C.3       2 GLC5        0.0000 
     72 CA          4.0760  -35.4700   28.9820 C.3       4 GLP5        0.0000 
     73 CA          1.4509  -38.6501   23.5289 C.3       2 GLC5        0.0000 
     74 CA          1.5770  -36.8810   23.8190 C.3       6 GLL5        0.0000 
@<TRIPOS>BOND
@<TRIPOS>SUBSTRUCTURE
     1 ALC1       21 GROUP        1 X    ALC  0     ROOT ALC X 1
     2 GLC5        1 GROUP        1 X    GLC  0     **** GLC X 6
     3 ALP1       23 GROUP        1 Y    ALP  0     ROOT ALP Y 8
     4 GLP5        3 GROUP        1 Y    GLP  0     **** GLP Y 13
     5 ALL1       22 GROUP        1 Z    ALL  0     ROOT ALL Z 15
     6 GLL5        2 GROUP        1 Z    GLL  0     **** GLL Z 20
@<TRIPOS>SET

