#    Name: 1rt5_UC2_1_ligand
#    Modification time : Tue Mar 25 01:12:28 2014

@<TRIPOS>MOLECULE
1rt5_UC2_1_ligand
   42    43     1     0     0
SMALL
NO_CHARGES


@<TRIPOS>ATOM
      1 O7          1.3880  -37.4790   25.0750 O.3       1 UC2999      0.0000 
      2 C8          1.5770  -36.8810   23.8190 C.2       1 UC2999      0.0000 
      3 C9          0.4130  -36.7450   23.1630 C.2       1 UC2999      0.0000 
      4 C10        -0.6300  -37.3070   24.0880 C.2       1 UC2999      0.0000 
      5 C11         0.0190  -37.7160   25.1850 C.2       1 UC2999      0.0000 
      6 CA          3.0220  -36.5220   23.4660 C.3       1 UC2999      0.0000 
      7 C           0.2740  -36.1780   21.7630 C.2       1 UC2999      0.0000 
      8 S           1.4840  -36.3340   20.6100 S.2       1 UC2999      0.0000 
      9 N          -0.8850  -35.5090   21.4010 N.am      1 UC2999      0.0000 
     10 C1         -1.7920  -34.8680   22.2790 C.ar      1 UC2999      0.0000 
     11 C2         -1.4840  -34.5800   23.6020 C.ar      1 UC2999      0.0000 
     12 C3         -2.4270  -34.0010   24.4330 C.ar      1 UC2999      0.0000 
     13 C4         -3.6890  -33.6980   23.9370 C.ar      1 UC2999      0.0000 
     14 C5         -3.9940  -33.9690   22.6040 C.ar      1 UC2999      0.0000 
     15 C6         -3.0590  -34.5470   21.7860 C.ar      1 UC2999      0.0000 
     16 CL         -4.9010  -33.0820   24.9460 Cl        1 UC2999      0.0000 
     17 CB         -2.0760  -33.7270   25.8230 C.2       1 UC2999      0.0000 
     18 NC         -0.7380  -33.3830   26.0710 N.2       1 UC2999      0.0000 
     19 OD         -0.3640  -33.1570   27.1420 O.3       1 UC2999      0.0000 
     20 CE          1.0280  -33.2370   27.2630 C.3       1 UC2999      0.0000 
     21 CF          1.3670  -33.1640   28.7010 C.3       1 UC2999      0.0000 
     22 CG          1.6700  -32.1060   26.5370 C.3       1 UC2999      0.0000 
     23 CH          1.5290  -34.5200   26.7050 C.3       1 UC2999      0.0000 
     24 H          -1.5275  -37.3233   23.8538 H         1 UC2999      0.0000 
     25 H          -0.3850  -38.1286   25.9728 H         1 UC2999      0.0000 
     26 H          -1.1275  -35.4667   20.3596 H         1 UC2999      0.0000 
     27 H          -0.5427  -34.8005   23.9669 H         1 UC2999      0.0000 
     28 H          -4.9310  -33.7293   22.2418 H         1 UC2999      0.0000 
     29 H          -3.2806  -34.7512   20.7979 H         1 UC2999      0.0000 
     30 H          -2.7627  -33.7876   26.5317 H         1 UC2999      0.0000 
     31 H           3.4153  -35.8775   24.1217 H         1 UC2999      0.0000 
     32 H           3.6134  -37.3283   23.4568 H         1 UC2999      0.0000 
     33 H           3.0894  -36.0988   22.5625 H         1 UC2999      0.0000 
     34 H           2.3542  -33.2128   28.8528 H         1 UC2999      0.0000 
     35 H           1.0486  -32.3111   29.1148 H         1 UC2999      0.0000 
     36 H           0.9535  -33.9131   29.2185 H         1 UC2999      0.0000 
     37 H           2.6672  -32.1400   26.6038 H         1 UC2999      0.0000 
     38 H           1.4411  -32.1119   25.5636 H         1 UC2999      0.0000 
     39 H           1.3819  -31.2201   26.9005 H         1 UC2999      0.0000 
     40 H           2.5231  -34.5957   26.7824 H         1 UC2999      0.0000 
     41 H           1.1372  -35.3090   27.1783 H         1 UC2999      0.0000 
     42 H           1.3023  -34.6172   25.7359 H         1 UC2999      0.0000 
@<TRIPOS>BOND
     1    2    1 1    
     2    5    1 1    
     3    3    2 2    
     4    6    2 1    
     5    4    3 1    
     6    7    3 1    
     7    5    4 2    
     8   24    4 1    
     9   25    5 1    
    10   31    6 1    
    11   32    6 1    
    12   33    6 1    
    13    8    7 2    
    14    9    7 am   
    15   10    9 1    
    16   26    9 1    
    17   11   10 ar   
    18   15   10 ar   
    19   12   11 ar   
    20   27   11 1    
    21   13   12 ar   
    22   17   12 1    
    23   14   13 ar   
    24   16   13 1    
    25   15   14 ar   
    26   28   14 1    
    27   29   15 1    
    28   18   17 2    
    29   30   17 1    
    30   19   18 1    
    31   20   19 1    
    32   21   20 1    
    33   22   20 1    
    34   23   20 1    
    35   34   21 1    
    36   35   21 1    
    37   36   21 1    
    38   37   22 1    
    39   38   22 1    
    40   39   22 1    
    41   40   23 1    
    42   41   23 1    
    43   42   23 1    
@<TRIPOS>SUBSTRUCTURE
     1 UC2999      1 GROUP   
@<TRIPOS>SET

