#    Name: 1s20_NAD_3_INTS_M
#    Modification time : Tue Mar 25 01:49:09 2014

@<TRIPOS>MOLECULE
1s20_NAD_3_INTS_M
   67     0    12     0     0
SMALL
NO_CHARGES


@<TRIPOS>ATOM
      1 N          -3.1710    9.5135  -11.2715 N.am      2 SEC2        0.0000 
      2 N          -3.8280    8.1250  -11.9340 N.am     10 SEL2        0.0000 
      3 N          -2.5140   10.9020  -10.6090 N.am      6 SEP2        0.0000 
      4 CA         -3.3010    6.7750   -9.9570 C.3       4 GLC5        0.0000 
      5 CA         -5.4270    6.8880   -9.5270 C.3      12 GLL5        0.0000 
      6 CA         -1.1750    6.6620  -10.3870 C.3       8 GLP5        0.0000 
      7 CA         -4.1745    5.5215   -8.6615 C.3       4 GLC5        0.0000 
      8 CA         -2.9220    4.1550   -7.7960 C.3       8 GLP5        0.0000 
      9 CA         -7.6535    6.3680   -6.3350 C.3       4 GLC5        0.0000 
     10 CA         -7.4080    7.7600   -8.0730 C.3      12 GLL5        0.0000 
     11 CA         -7.8990    4.9760   -4.5970 C.3       8 GLP5        0.0000 
     12 N         -10.0630    9.5035   -6.5065 N.am      2 SEC2        0.0000 
     13 N          -8.9630    9.6200   -7.6930 N.am     10 SEL2        0.0000 
     14 N         -11.1630    9.3870   -5.3200 N.am      6 SEP2        0.0000 
     15 O         -10.0790    9.6880   -8.6230 O.2       1 ALC1        0.0000 
     16 O          -8.9630    9.6200   -7.6930 O.2       9 ALL1        0.0000 
     17 O         -11.1950    9.7560   -9.5530 O.2       5 ALP1        0.0000 
     18 O         -10.4750   10.3645   -7.8530 O.2       1 ALC1        0.0000 
     19 O         -11.9870   11.1090   -8.0130 O.2       5 ALP1        0.0000 
     20 CA         -4.7385   10.5860   -8.7835 C.3       4 GLC5        0.0000 
     21 CA         -6.5550    9.9400   -8.2270 C.3      12 GLL5        0.0000 
     22 CA         -2.9220   11.2320   -9.3400 C.3       8 GLP5        0.0000 
     23 CA         -4.6715   13.7965   -7.5130 C.3       4 GLC5        0.0000 
     24 CA         -6.5280   14.3400   -7.2520 C.3      12 GLL5        0.0000 
     25 CA         -2.8150   13.2530   -7.7740 C.3       8 GLP5        0.0000 
     26 CA         -8.1420   15.4715   -6.6640 C.3       4 GLC5        0.0000 
     27 CA         -9.7560   16.6030   -6.0760 C.3       8 GLP5        0.0000 
     28 NZ         -2.0900    5.0020  -11.2110 N.4       3 LYC4        0.0000 
     29 NZ         -3.5210    4.6000  -11.3940 N.4      11 LYL4        0.0000 
     30 NZ         -0.6590    5.4040  -11.0280 N.4       7 LYP4        0.0000 
     31 N          -2.0900    5.0020  -11.2110 N.am      2 SEC2        0.0000 
     32 N          -3.5210    4.6000  -11.3940 N.am     10 SEL2        0.0000 
     33 N          -0.6590    5.4040  -11.0280 N.am      6 SEP2        0.0000 
     34 N          -2.9230    3.4745  -10.9015 N.am      2 SEC2        0.0000 
     35 N          -2.3250    2.3490  -10.4090 N.am      6 SEP2        0.0000 
     36 NZ         -2.0005    5.2850  -12.4330 N.4       3 LYC4        0.0000 
     37 NZ         -3.3420    5.1660  -13.8380 N.4      11 LYL4        0.0000 
     38 N          -6.9955    0.5025  -15.9000 N.am      2 SEC2        0.0000 
     39 N          -6.2750    1.5200  -14.9200 N.am     10 SEL2        0.0000 
     40 N          -7.7160   -0.5150  -16.8800 N.am      6 SEP2        0.0000 
     41 O          -7.5210    0.3080  -10.7270 O.2       1 ALC1        0.0000 
     42 O          -7.6760   -0.0280  -11.9640 O.2       9 ALL1        0.0000 
     43 O          -7.3660    0.6440   -9.4900 O.2       5 ALP1        0.0000 
     44 CA         -7.7755    0.1405  -15.4455 C.3       4 GLC5        0.0000 
     45 CA         -6.5410    0.3490  -14.1160 C.3      12 GLL5        0.0000 
     46 CA         -9.0100   -0.0680  -16.7750 C.3       8 GLP5        0.0000 
     47 N          -6.7000   -5.2730  -12.1300 N.am      2 SEC2        0.0000 
     48 N          -5.3330   -5.0240  -13.1300 N.am     10 SEL2        0.0000 
     49 N          -8.0670   -5.5220  -11.1300 N.am      6 SEP2        0.0000 
     50 CA         -4.0835   -0.9070  -12.1500 C.3       4 GLC5        0.0000 
     51 CA         -4.0520   -0.0960  -14.1970 C.3      12 GLL5        0.0000 
     52 CA         -4.1150   -1.7180  -10.1030 C.3       8 GLP5        0.0000 
     53 CA         -4.5659   13.2010   -8.4609 C.3       4 GLC5        0.0000 
     54 CA         -6.2320   13.1950   -9.7440 C.3      12 GLL5        0.0000 
     55 CA         -8.1510    1.1633  -15.2510 C.3       4 GLC5        0.0000 
     56 CA         -6.9460    2.6490  -14.3520 C.3      12 GLL5        0.0000 
     57 CA         -4.7423   -2.7973  -12.3190 C.3       4 GLC5        0.0000 
     58 CA         -5.6530   -2.0160  -14.0910 C.3      12 GLL5        0.0000 
     59 CA         -4.3640   -3.1140  -10.5380 C.3       8 GLP5        0.0000 
     60 CA         -1.2188   -1.7898  -14.0825 C.3       4 GLC5        0.0000 
     61 CA         -3.2790   -2.4040  -14.1710 C.3      12 GLL5        0.0000 
     62 CA          0.6990   -1.8680  -13.9720 C.3       8 GLP5        0.0000 
     63 CA         -3.0362   -2.6578  -12.5245 C.3       4 GLC5        0.0000 
     64 CA         -2.9940   -1.0190  -14.2150 C.3      12 GLL5        0.0000 
     65 CA         -2.9360   -3.6040  -10.8560 C.3       8 GLP5        0.0000 
     66 CA         -2.4505    0.4943  -13.3525 C.3       4 GLC5        0.0000 
     67 CA         -1.3780    1.5460  -12.4990 C.3       8 GLP5        0.0000 
@<TRIPOS>BOND
@<TRIPOS>SUBSTRUCTURE
     1 ALC1       15 GROUP        1 X    ALC  0     ROOT ALC X 1
     2 SEC2        1 GROUP        1 X    SEC  0     **** SEC X 2
     3 LYC4       28 GROUP        1 X    LYC  0     **** LYC X 4
     4 GLC5        4 GROUP        1 X    GLC  0     **** GLC X 6
     5 ALP1       17 GROUP        1 Y    ALP  0     ROOT ALP Y 8
     6 SEP2        3 GROUP        1 Y    SEP  0     **** SEP Y 9
     7 LYP4       30 GROUP        1 Y    LYP  0     **** LYP Y 11
     8 GLP5        6 GROUP        1 Y    GLP  0     **** GLP Y 13
     9 ALL1       16 GROUP        1 Z    ALL  0     ROOT ALL Z 15
    10 SEL2        2 GROUP        1 Z    SEL  0     **** SEL Z 16
    11 LYL4       29 GROUP        1 Z    LYL  0     **** LYL Z 18
    12 GLL5        5 GROUP        1 Z    GLL  0     **** GLL Z 20
@<TRIPOS>SET

