#    Name: 1s20_NAD_3_ligand
#    Modification time : Tue Mar 25 01:49:09 2014

@<TRIPOS>MOLECULE
1s20_NAD_3_ligand
   70    74     1     0     0
SMALL
NO_CHARGES


@<TRIPOS>ATOM
      1 PA         -5.2030    7.6580  -12.1110 P.3       1 NAD404      0.0000 
      2 O1A        -6.0070    8.3890  -13.1060 O.co2     1 NAD404      0.0000 
      3 O2A        -3.8280    8.1250  -11.9340 O.co2     1 NAD404      0.0000 
      4 O5B        -5.9300    7.6430  -10.6620 O.3       1 NAD404      0.0000 
      5 C5B        -5.4270    6.8880   -9.5270 C.3       1 NAD404      0.0000 
      6 C4B        -5.8800    7.7100   -8.3290 C.3       1 NAD404      0.0000 
      7 O4B        -5.4340    9.0520   -8.4150 O.3       1 NAD404      0.0000 
      8 C3B        -7.4080    7.7600   -8.0730 C.3       1 NAD404      0.0000 
      9 O3B        -7.8110    7.4280   -6.7170 O.3       1 NAD404      0.0000 
     10 C2B        -7.8280    9.1640   -8.4620 C.3       1 NAD404      0.0000 
     11 O2B        -8.9630    9.6200   -7.6930 O.3       1 NAD404      0.0000 
     12 C1B        -6.5550    9.9400   -8.2270 C.3       1 NAD404      0.0000 
     13 N9A        -6.3970   11.1510   -9.0940 N.pl3     1 NAD404      0.0000 
     14 C8A        -6.2120   11.2140  -10.4480 C.2       1 NAD404      0.0000 
     15 N7A        -6.1050   12.4950  -10.8780 N.2       1 NAD404      0.0000 
     16 C5A        -6.2320   13.1950   -9.7440 C.ar      1 NAD404      0.0000 
     17 C6A        -6.1910   14.5990   -9.6390 C.ar      1 NAD404      0.0000 
     18 N6A        -6.0130   15.3780  -10.7060 N.pl3     1 NAD404      0.0000 
     19 N1A        -6.3450   15.0890   -8.3730 N.ar      1 NAD404      0.0000 
     20 C2A        -6.5280   14.3400   -7.2520 C.ar      1 NAD404      0.0000 
     21 N3A        -6.5630   12.9960   -7.3730 N.ar      1 NAD404      0.0000 
     22 C4A        -6.4220   12.4010   -8.6040 C.ar      1 NAD404      0.0000 
     23 O3         -5.2650    6.0930  -12.4350 O.3       1 NAD404      0.0000 
     24 PN         -4.2120    4.9140  -12.6570 P.3       1 NAD404      0.0000 
     25 O1N        -3.5210    4.6000  -11.3940 O.co2     1 NAD404      0.0000 
     26 O2N        -3.3420    5.1660  -13.8380 O.co2     1 NAD404      0.0000 
     27 O5D        -5.1960    3.6870  -12.9630 O.3       1 NAD404      0.0000 
     28 C5D        -6.0380    3.8440  -14.1170 C.3       1 NAD404      0.0000 
     29 C4D        -6.9460    2.6490  -14.3520 C.3       1 NAD404      0.0000 
     30 O4D        -6.2750    1.5200  -14.9200 O.3       1 NAD404      0.0000 
     31 C3D        -7.6380    2.1400  -13.1020 C.3       1 NAD404      0.0000 
     32 O3D        -9.0100    1.9120  -13.4070 O.3       1 NAD404      0.0000 
     33 C2D        -6.8730    0.8690  -12.7530 C.3       1 NAD404      0.0000 
     34 O2D        -7.6760   -0.0280  -11.9640 O.3       1 NAD404      0.0000 
     35 C1D        -6.5410    0.3490  -14.1160 C.3       1 NAD404      0.0000 
     36 N1N        -5.3920   -0.6050  -14.1350 N.pl3     1 NAD404      0.0000 
     37 C2N        -5.6530   -2.0160  -14.0910 C.ar      1 NAD404      0.0000 
     38 C3N        -4.5880   -2.9450  -14.1090 C.ar      1 NAD404      0.0000 
     39 C7N        -4.7610   -4.4820  -14.0650 C.2       1 NAD404      0.0000 
     40 O7N        -5.3330   -5.0240  -13.1300 O.2       1 NAD404      0.0000 
     41 N7N        -4.2740   -5.2000  -15.0760 N.am      1 NAD404      0.0000 
     42 C4N        -3.2790   -2.4040  -14.1710 C.ar      1 NAD404      0.0000 
     43 C5N        -2.9940   -1.0190  -14.2150 C.ar      1 NAD404      0.0000 
     44 C6N        -4.0520   -0.0960  -14.1970 C.ar      1 NAD404      0.0000 
     45 H          -4.3598    6.8389   -9.5277 H         1 NAD404      0.0000 
     46 H          -5.8733    5.9191   -9.4689 H         1 NAD404      0.0000 
     47 H          -5.4369    7.2510   -7.4156 H         1 NAD404      0.0000 
     48 H          -7.8651    7.0831   -8.8016 H         1 NAD404      0.0000 
     49 H          -8.0162    9.1526   -9.5222 H         1 NAD404      0.0000 
     50 H          -6.5599   10.2710   -7.1730 H         1 NAD404      0.0000 
     51 H          -6.1637   10.4252  -11.0302 H         1 NAD404      0.0000 
     52 H          -5.9838   16.3623  -10.5322 H         1 NAD404      0.0000 
     53 H          -5.9247   14.9079  -11.5842 H         1 NAD404      0.0000 
     54 H          -6.6370   14.7933   -6.3334 H         1 NAD404      0.0000 
     55 H          -5.4327    3.9946  -15.0339 H         1 NAD404      0.0000 
     56 H          -6.6799    4.7433  -14.0220 H         1 NAD404      0.0000 
     57 H          -7.7540    2.9636  -15.0451 H         1 NAD404      0.0000 
     58 H          -7.4848    2.8553  -12.3322 H         1 NAD404      0.0000 
     59 H          -5.9682    1.1685  -12.2725 H         1 NAD404      0.0000 
     60 H          -7.4323   -0.1484  -14.5074 H         1 NAD404      0.0000 
     61 H          -6.6198   -2.3415  -14.0464 H         1 NAD404      0.0000 
     62 H          -4.4063   -6.1894  -15.0169 H         1 NAD404      0.0000 
     63 H          -3.8200   -4.6849  -15.8030 H         1 NAD404      0.0000 
     64 H          -2.4715   -3.0741  -14.1851 H         1 NAD404      0.0000 
     65 H          -2.0286   -0.6991  -14.2593 H         1 NAD404      0.0000 
     66 H          -3.8900    0.8957  -14.2262 H         1 NAD404      0.0000 
     67 H          -8.5331    8.0829   -6.4940 H         1 NAD404      0.0000 
     68 H          -9.7138    9.6801   -8.3508 H         1 NAD404      0.0000 
     69 H          -9.2940    1.1788  -12.7891 H         1 NAD404      0.0000 
     70 H          -7.2101   -0.0834  -11.0809 H         1 NAD404      0.0000 
@<TRIPOS>BOND
     1    2    1 ar   
     2    3    1 ar   
     3    4    1 1    
     4   23    1 1    
     5    5    4 1    
     6    6    5 1    
     7   45    5 1    
     8   46    5 1    
     9    7    6 1    
    10    8    6 1    
    11   47    6 1    
    12   12    7 1    
    13    9    8 1    
    14   10    8 1    
    15   48    8 1    
    16   67    9 1    
    17   11   10 1    
    18   12   10 1    
    19   49   10 1    
    20   68   11 1    
    21   13   12 1    
    22   50   12 1    
    23   14   13 1    
    24   22   13 1    
    25   15   14 2    
    26   51   14 1    
    27   16   15 1    
    28   17   16 ar   
    29   22   16 ar   
    30   18   17 1    
    31   19   17 ar   
    32   52   18 1    
    33   53   18 1    
    34   20   19 ar   
    35   21   20 ar   
    36   54   20 1    
    37   22   21 ar   
    38   24   23 1    
    39   25   24 ar   
    40   26   24 ar   
    41   27   24 1    
    42   28   27 1    
    43   29   28 1    
    44   55   28 1    
    45   56   28 1    
    46   30   29 1    
    47   31   29 1    
    48   57   29 1    
    49   35   30 1    
    50   32   31 1    
    51   33   31 1    
    52   58   31 1    
    53   69   32 1    
    54   34   33 1    
    55   35   33 1    
    56   59   33 1    
    57   70   34 1    
    58   36   35 1    
    59   60   35 1    
    60   37   36 ar   
    61   44   36 ar   
    62   38   37 ar   
    63   61   37 1    
    64   39   38 1    
    65   42   38 ar   
    66   40   39 2    
    67   41   39 am   
    68   62   41 1    
    69   63   41 1    
    70   43   42 ar   
    71   64   42 1    
    72   44   43 ar   
    73   65   43 1    
    74   66   44 1    
@<TRIPOS>SUBSTRUCTURE
     1 NAD404      1 GROUP   
@<TRIPOS>SET

