#    Name: 3cse_N22_2_INTS_M
#    Modification time : Mon Mar 24 22:17:37 2014

@<TRIPOS>MOLECULE
3cse_N22_2_INTS_M
   76     0     9     0     0
SMALL
NO_CHARGES


@<TRIPOS>ATOM
      1 CA         27.5945    6.1935   38.4620 C.3       3 GLC5        0.0000 
      2 CA         28.9320    6.3330   37.4950 C.3       9 GLL5        0.0000 
      3 CA         26.2570    6.0540   39.4290 C.3       6 GLP5        0.0000 
      4 CA         29.0765    8.4245   38.2685 C.3       3 GLC5        0.0000 
      5 CA         29.2210   10.5160   39.0420 C.3       6 GLP5        0.0000 
      6 CA         30.4630    8.9445   37.6205 C.3       3 GLC5        0.0000 
      7 CA         30.0900    7.1090   36.9540 C.3       9 GLL5        0.0000 
      8 CA         30.8360   10.7800   38.2870 C.3       6 GLP5        0.0000 
      9 N          31.9945    5.2885   36.9055 N.am      2 SEC2        0.0000 
     10 N          31.4720    5.5360   35.7160 N.am      8 SEL2        0.0000 
     11 N          32.5170    5.0410   38.0950 N.am      5 SEP2        0.0000 
     12 CA         33.1240    5.0140   32.8395 C.3       3 GLC5        0.0000 
     13 CA         32.0250    4.9290   34.5950 C.3       9 GLL5        0.0000 
     14 CA         34.2230    5.0990   31.0840 C.3       6 GLP5        0.0000 
     15 CA         31.5425    3.4565   33.3840 C.3       3 GLC5        0.0000 
     16 CA         31.0600    1.9840   32.1730 C.3       6 GLP5        0.0000 
     17 CA         31.6255    3.3040   35.7735 C.3       3 GLC5        0.0000 
     18 CA         31.2260    1.6790   36.9520 C.3       6 GLP5        0.0000 
     19 CA         32.7700    6.7685   34.9960 C.3       3 GLC5        0.0000 
     20 CA         33.5150    8.6080   35.3970 C.3       6 GLP5        0.0000 
     21 O          32.9795    2.6240   34.0350 O.2       1 ALC1        0.0000 
     22 O          33.0650    4.2080   34.6640 O.2       7 ALL1        0.0000 
     23 O          32.8940    1.0400   33.4060 O.2       4 ALP1        0.0000 
     24 O          33.6815    4.1400   35.9195 O.2       1 ALC1        0.0000 
     25 O          34.2980    4.0720   37.1750 O.2       4 ALP1        0.0000 
     26 CA         30.6610    3.8720   32.7050 C.3       3 GLC5        0.0000 
     27 CA         30.2620    5.7600   33.2370 C.3       9 GLL5        0.0000 
     28 O          30.1780    4.8585   31.0890 O.2       1 ALC1        0.0000 
     29 O          29.5980    5.8400   32.0180 O.2       7 ALL1        0.0000 
     30 O          30.7580    3.8770   30.1600 O.2       4 ALP1        0.0000 
     31 O          28.3575    6.0375   31.2715 O.2       1 ALC1        0.0000 
     32 O          27.1170    6.2350   30.5250 O.2       4 ALP1        0.0000 
     33 CA         30.0435    8.1175   33.2010 C.3       3 GLC5        0.0000 
     34 CA         28.6800    7.4090   34.1840 C.3       9 GLL5        0.0000 
     35 CA         31.4070    8.8260   32.2180 C.3       6 GLP5        0.0000 
     36 CA         24.9870    8.5980   32.7705 C.3       3 GLC5        0.0000 
     37 CA         26.7300    9.0740   33.8920 C.3       9 GLL5        0.0000 
     38 CA         23.2440    8.1220   31.6490 C.3       6 GLP5        0.0000 
     39 CA         27.1815    9.6515   31.9830 C.3       3 GLC5        0.0000 
     40 CA         27.6330   10.2290   30.0740 C.3       6 GLP5        0.0000 
     41 CA         25.2555   11.5805   34.9965 C.3       3 GLC5        0.0000 
     42 CA         27.0360   11.0830   35.6800 C.3       9 GLL5        0.0000 
     43 CA         23.4750   12.0780   34.3130 C.3       6 GLP5        0.0000 
     44 CA         27.3760   13.0015   34.7130 C.3       3 GLC5        0.0000 
     45 CA         27.7160   14.9200   33.7460 C.3       6 GLP5        0.0000 
     46 CA         25.1940   12.8170   36.2510 C.3       3 GLC5        0.0000 
     47 CA         26.4550   11.4690   36.9680 C.3       9 GLL5        0.0000 
     48 CA         23.9330   14.1650   35.5340 C.3       6 GLP5        0.0000 
     49 CA         28.4940   12.0020   37.9895 C.3       3 GLC5        0.0000 
     50 CA         27.7670   13.4880   36.9370 C.3       9 GLL5        0.0000 
     51 CA         25.8500   13.8265   36.2355 C.3       3 GLC5        0.0000 
     52 CA         26.7380   15.2465   37.4685 C.3       3 GLC5        0.0000 
     53 CA         25.7090   17.0050   38.0000 C.3       6 GLP5        0.0000 
     54 CA         27.7415   14.2040   35.3415 C.3       3 GLC5        0.0000 
     55 CA         25.5415    7.7765   38.2395 C.3       3 GLC5        0.0000 
     56 CA         24.8260    9.4990   37.0500 C.3       9 GLL5        0.0000 
     57 CA         24.7520    5.7385   36.6055 C.3       3 GLC5        0.0000 
     58 CA         23.9700    7.1770   35.5530 C.3       9 GLL5        0.0000 
     59 CA         25.5340    4.3000   37.6580 C.3       6 GLP5        0.0000 
     60 CA         23.6070    7.6495   33.6010 C.3       3 GLC5        0.0000 
     61 CA         23.9670    5.8375   34.2930 C.3       3 GLC5        0.0000 
     62 CA         23.9640    4.4980   33.0330 C.3       6 GLP5        0.0000 
     63 CA         31.7559    7.6176   35.3683 C.3       3 GLC5        0.0000 
     64 CA         30.4110    6.3380   35.6440 C.3       9 GLL5        0.0000 
     65 CA         27.3200    6.1465   33.7142 C.3       3 GLC5        0.0000 
     66 CA         26.4040    4.5140   33.3010 C.3       6 GLP5        0.0000 
     67 CA         28.9730    9.3178   33.2332 C.3       3 GLC5        0.0000 
     68 CA         27.7920    8.1490   34.0710 C.3       9 GLL5        0.0000 
     69 CA         30.6850   10.0240   32.4850 C.3       6 GLP5        0.0000 
     70 CA         24.4845   12.2735   38.0842 C.3       3 GLC5        0.0000 
     71 CA         23.0360   13.4520   38.9170 C.3       6 GLP5        0.0000 
     72 CA         27.6496   10.7573   37.9858 C.3       3 GLC5        0.0000 
     73 CA         25.4110   10.7210   37.5350 C.3       9 GLL5        0.0000 
     74 CA         24.2968   11.0940   35.8028 C.3       3 GLC5        0.0000 
     75 CA         24.7249   10.6940   34.7608 C.3       3 GLC5        0.0000 
     76 CA         25.3900    9.1490   35.8480 C.3       9 GLL5        0.0000 
@<TRIPOS>BOND
@<TRIPOS>SUBSTRUCTURE
     1 ALC1       21 GROUP        1 X    ALC  0     ROOT ALC X 1
     2 SEC2        9 GROUP        1 X    SEC  0     **** SEC X 2
     3 GLC5        1 GROUP        1 X    GLC  0     **** GLC X 6
     4 ALP1       23 GROUP        1 Y    ALP  0     ROOT ALP Y 8
     5 SEP2       11 GROUP        1 Y    SEP  0     **** SEP Y 9
     6 GLP5        3 GROUP        1 Y    GLP  0     **** GLP Y 13
     7 ALL1       22 GROUP        1 Z    ALL  0     ROOT ALL Z 15
     8 SEL2       10 GROUP        1 Z    SEL  0     **** SEL Z 16
     9 GLL5        2 GROUP        1 Z    GLL  0     **** GLL Z 20
@<TRIPOS>SET

