#    Name: 3cse_N22_2_ligand
#    Modification time : Mon Mar 24 22:17:37 2014

@<TRIPOS>MOLECULE
3cse_N22_2_ligand
   43    44     1     0     0
SMALL
NO_CHARGES


@<TRIPOS>ATOM
      1 C8         28.9320    6.3330   37.4950 C.3       1 N22229      0.0000 
      2 C7         30.0900    7.1090   36.9540 C.3       1 N22229      0.0000 
      3 C5         30.4110    6.3380   35.6440 C.ar      1 N22229      0.0000 
      4 N4         31.4720    5.5360   35.7160 N.ar      1 N22229      0.0000 
      5 C3         32.0250    4.9290   34.5950 C.ar      1 N22229      0.0000 
      6 N8         33.0650    4.2080   34.6640 N.pl3     1 N22229      0.0000 
      7 N2         31.3380    5.0310   33.4380 N.ar      1 N22229      0.0000 
      8 C1         30.2620    5.7600   33.2370 C.ar      1 N22229      0.0000 
      9 N7         29.5980    5.8400   32.0180 N.pl3     1 N22229      0.0000 
     10 C6         29.7430    6.5310   34.3800 C.ar      1 N22229      0.0000 
     11 C9         28.6800    7.4090   34.1840 C.1       1 N22229      0.0000 
     12 C10        27.7920    8.1490   34.0710 C.1       1 N22229      0.0000 
     13 C11        26.7300    9.0740   33.8920 C.3       1 N22229      0.0000 
     14 C13        26.3890    9.8680   35.2460 C.ar      1 N22229      0.0000 
     15 C18        27.0360   11.0830   35.6800 C.ar      1 N22229      0.0000 
     16 C17        26.4550   11.4690   36.9680 C.ar      1 N22229      0.0000 
     17 O2         26.7660   12.6330   37.6680 O.3       1 N22229      0.0000 
     18 C4         27.7670   13.4880   36.9370 C.3       1 N22229      0.0000 
     19 C16        25.4110   10.7210   37.5350 C.ar      1 N22229      0.0000 
     20 C15        24.8260    9.4990   37.0500 C.ar      1 N22229      0.0000 
     21 C14        25.3900    9.1490   35.8480 C.ar      1 N22229      0.0000 
     22 O10        25.0010    8.1350   35.1430 O.3       1 N22229      0.0000 
     23 C2         23.9700    7.1770   35.5530 C.3       1 N22229      0.0000 
     24 H          30.9234    7.0462   37.5969 H         1 N22229      0.0000 
     25 H          29.8055    8.0937   36.7065 H         1 N22229      0.0000 
     26 H          33.6973    4.4179   35.4097 H         1 N22229      0.0000 
     27 H          33.1549    3.4974   33.9662 H         1 N22229      0.0000 
     28 H          28.6084    5.9764   32.0640 H         1 N22229      0.0000 
     29 H          30.1673    5.7542   31.2004 H         1 N22229      0.0000 
     30 H          25.7890    8.5927   33.5880 H         1 N22229      0.0000 
     31 H          26.9577    9.8490   33.1457 H         1 N22229      0.0000 
     32 H          27.6986   11.5437   35.2345 H         1 N22229      0.0000 
     33 H          24.9850   11.0996   38.4501 H         1 N22229      0.0000 
     34 H          24.1442    9.0259   37.5239 H         1 N22229      0.0000 
     35 H          29.1152    5.3500   37.5037 H         1 N22229      0.0000 
     36 H          28.7131    6.5986   38.4339 H         1 N22229      0.0000 
     37 H          28.1048    6.4722   36.9506 H         1 N22229      0.0000 
     38 H          28.6294   13.0044   36.7872 H         1 N22229      0.0000 
     39 H          27.4292   13.7698   36.0390 H         1 N22229      0.0000 
     40 H          27.9831   14.3225   37.4439 H         1 N22229      0.0000 
     41 H          23.8205    6.4727   34.8591 H         1 N22229      0.0000 
     42 H          24.2163    6.7062   36.4002 H         1 N22229      0.0000 
     43 H          23.0896    7.6240   35.7114 H         1 N22229      0.0000 
@<TRIPOS>BOND
     1    2    1 1    
     2   35    1 1    
     3   36    1 1    
     4   37    1 1    
     5    3    2 1    
     6   24    2 1    
     7   25    2 1    
     8    4    3 ar   
     9   10    3 ar   
    10    5    4 ar   
    11    6    5 1    
    12    7    5 ar   
    13   26    6 1    
    14   27    6 1    
    15    8    7 ar   
    16    9    8 1    
    17   10    8 ar   
    18   28    9 1    
    19   29    9 1    
    20   11   10 1    
    21   12   11 3    
    22   13   12 1    
    23   14   13 1    
    24   30   13 1    
    25   31   13 1    
    26   15   14 ar   
    27   21   14 ar   
    28   16   15 ar   
    29   32   15 1    
    30   17   16 1    
    31   19   16 ar   
    32   18   17 1    
    33   38   18 1    
    34   39   18 1    
    35   40   18 1    
    36   20   19 ar   
    37   33   19 1    
    38   21   20 ar   
    39   34   20 1    
    40   22   21 1    
    41   23   22 1    
    42   41   23 1    
    43   42   23 1    
    44   43   23 1    
@<TRIPOS>SUBSTRUCTURE
     1 N22229      1 GROUP   
@<TRIPOS>SET

