#    Name: 2q1w_NAD_1_INTS_M
#    Modification time : Mon Mar 24 20:27:38 2014

@<TRIPOS>MOLECULE
2q1w_NAD_1_INTS_M
  123     0     9     0     0
SMALL
NO_CHARGES


@<TRIPOS>ATOM
      1 N          15.7875    9.0690   48.0265 N.am      2 SEC2        0.0000 
      2 N          16.4730    8.8700   49.1750 N.am      8 SEL2        0.0000 
      3 N          15.1020    9.2680   46.8780 N.am      5 SEP2        0.0000 
      4 N          15.8115    9.9030   49.6730 N.am      2 SEC2        0.0000 
      5 N          15.1500   10.9360   50.1710 N.am      5 SEP2        0.0000 
      6 N          20.1270    7.7520   49.4935 N.am      2 SEC2        0.0000 
      7 N          18.9220    8.4570   49.4970 N.am      8 SEL2        0.0000 
      8 N          21.3320    7.0470   49.4900 N.am      5 SEP2        0.0000 
      9 CA         16.8125    3.4780   46.9100 C.3       3 GLC5        0.0000 
     10 CA         16.4290    5.2440   47.3660 C.3       9 GLL5        0.0000 
     11 CA         17.1960    1.7120   46.4540 C.3       6 GLP5        0.0000 
     12 CA         15.2155    3.5245   48.0645 C.3       3 GLC5        0.0000 
     13 CA         14.0020    1.8050   48.7630 C.3       6 GLP5        0.0000 
     14 CA         15.8510    8.4580   46.3110 C.3       3 GLC5        0.0000 
     15 CA         16.5550    6.3250   46.3030 C.3       9 GLL5        0.0000 
     16 CA         15.1470   10.5910   46.3190 C.3       6 GLP5        0.0000 
     17 O          17.2400    5.4905   44.1695 O.2       1 ALC1        0.0000 
     18 O          17.7520    6.1530   45.5720 O.2       7 ALL1        0.0000 
     19 O          16.7280    4.8280   42.7670 O.2       4 ALP1        0.0000 
     20 O          17.9195    4.9865   44.8740 O.2       1 ALC1        0.0000 
     21 O          18.0870    3.8200   44.1760 O.2       4 ALP1        0.0000 
     22 CA         13.5330    7.2165   44.5285 C.3       3 GLC5        0.0000 
     23 CA         15.2610    6.2140   45.5210 C.3       9 GLL5        0.0000 
     24 CA         11.8050    8.2190   43.5360 C.3       6 GLP5        0.0000 
     25 CA         15.3720    8.3650   45.1655 C.3       3 GLC5        0.0000 
     26 CA         15.4830   10.5160   44.8100 C.3       6 GLP5        0.0000 
     27 N          15.0110    8.1245   44.1435 N.am      2 SEC2        0.0000 
     28 N          15.3960    6.6380   44.2100 N.am      8 SEL2        0.0000 
     29 N          14.6260    9.6110   44.0770 N.am      5 SEP2        0.0000 
     30 N          16.3660    7.8055   44.2930 N.am      2 SEC2        0.0000 
     31 N          17.3360    8.9730   44.3760 N.am      5 SEP2        0.0000 
     32 O          16.0620    5.7330   43.4885 O.2       1 ALC1        0.0000 
     33 O          15.3960    6.6380   44.2100 O.2       7 ALL1        0.0000 
     34 CA         16.0950    3.2175   46.0425 C.3       3 GLC5        0.0000 
     35 CA         14.9940    4.7230   45.6310 C.3       9 GLL5        0.0000 
     36 CA         14.2855    2.9030   46.5505 C.3       3 GLC5        0.0000 
     37 CA         13.5770    1.0830   47.4700 C.3       6 GLP5        0.0000 
     38 CA         11.7140    3.1795   42.1460 C.3       3 GLC5        0.0000 
     39 CA         11.0390    2.4110   44.0260 C.3       9 GLL5        0.0000 
     40 CA         12.3890    3.9480   40.2660 C.3       6 GLP5        0.0000 
     41 CA         10.7230    1.2995   42.3485 C.3       3 GLC5        0.0000 
     42 CA         10.4070    0.1880   40.6710 C.3       6 GLP5        0.0000 
     43 CA         10.5690    0.7740   44.8525 C.3       3 GLC5        0.0000 
     44 CA         10.0990   -0.8630   45.6790 C.3       6 GLP5        0.0000 
     45 O           9.0420    1.7605   42.7550 O.2       1 ALC1        0.0000 
     46 O           9.7240    2.4780   43.8900 O.2       7 ALL1        0.0000 
     47 O           8.3600    1.0430   41.6200 O.2       4 ALP1        0.0000 
     48 O           8.6065    3.1785   44.6220 O.2       1 ALC1        0.0000 
     49 O           7.4890    3.8790   45.3540 O.2       4 ALP1        0.0000 
     50 N          11.0350    0.1500   43.0535 N.am      2 SEC2        0.0000 
     51 N          11.7140    1.3700   43.3940 N.am      8 SEL2        0.0000 
     52 N          10.3560   -1.0700   42.7130 N.am      5 SEP2        0.0000 
     53 CA         14.7870    1.6465   42.5925 C.3       3 GLC5        0.0000 
     54 CA         13.1010    1.3270   43.4030 C.3       9 GLL5        0.0000 
     55 CA         16.4730    1.9660   41.7820 C.3       6 GLP5        0.0000 
     56 CA         12.7450    2.6375   41.8345 C.3       3 GLC5        0.0000 
     57 CA         11.7540    0.7575   42.0370 C.3       3 GLC5        0.0000 
     58 CA         12.5835   -0.4800   44.2140 C.3       3 GLC5        0.0000 
     59 CA         12.0660   -2.2870   45.0250 C.3       6 GLP5        0.0000 
     60 CA         13.3390    1.2050   45.4365 C.3       3 GLC5        0.0000 
     61 N          14.2545    2.8715   42.5045 N.am      2 SEC2        0.0000 
     62 N          13.7910    2.3210   44.0740 N.am      8 SEL2        0.0000 
     63 N          14.7180    3.4220   40.9350 N.am      5 SEP2        0.0000 
     64 N          20.5555    5.8680   51.7145 N.am      2 SEC2        0.0000 
     65 N          19.2050    6.2870   51.7180 N.am      8 SEL2        0.0000 
     66 N          21.9060    5.4490   51.7110 N.am      5 SEP2        0.0000 
     67 N          19.3300    5.1995   50.8110 N.am      2 SEC2        0.0000 
     68 N          19.4550    4.1120   49.9040 N.am      5 SEP2        0.0000 
     69 CA         17.5330    2.9780   52.1130 C.3       3 GLC5        0.0000 
     70 CA         17.1680    4.7550   52.9080 C.3       9 GLL5        0.0000 
     71 CA         17.8980    1.2010   51.3180 C.3       6 GLP5        0.0000 
     72 CA         16.2620    2.3620   52.6570 C.3       3 GLC5        0.0000 
     73 CA         16.1220    4.0630   53.7920 C.3       9 GLL5        0.0000 
     74 CA         16.4020    0.6610   51.5220 C.3       6 GLP5        0.0000 
     75 CA         16.2090    2.6895   55.1290 C.3       3 GLC5        0.0000 
     76 CA         16.2960    1.3160   56.4660 C.3       6 GLP5        0.0000 
     77 N          12.7370    2.9250   54.2710 N.am      2 SEC2        0.0000 
     78 N          13.8600    3.3050   53.7250 N.am      8 SEL2        0.0000 
     79 N          11.6140    2.5450   54.8170 N.am      5 SEP2        0.0000 
     80 CA         12.4475    4.2970   55.1250 C.3       3 GLC5        0.0000 
     81 CA         14.2830    5.3890   54.5530 C.3       9 GLL5        0.0000 
     82 CA         10.6120    3.2050   55.6970 C.3       6 GLP5        0.0000 
     83 N          12.2540    3.9395   54.8115 N.am      2 SEC2        0.0000 
     84 N          12.8940    5.3340   54.8060 N.am      8 SEL2        0.0000 
     85 O          12.4170    6.3975   55.4995 O.2       1 ALC1        0.0000 
     86 O          12.8940    5.3340   54.8060 O.2       7 ALL1        0.0000 
     87 O          11.9400    7.4610   56.1930 O.2       4 ALP1        0.0000 
     88 CA         15.7115    3.1125   56.0940 C.3       3 GLC5        0.0000 
     89 CA         15.1270    4.9090   55.7220 C.3       9 GLL5        0.0000 
     90 CA         16.4450    4.5105   57.4995 C.3       3 GLC5        0.0000 
     91 CA         17.7630    4.1120   59.2770 C.3       6 GLP5        0.0000 
     92 CA         17.9595    6.1080   55.8890 C.3       3 GLC5        0.0000 
     93 CA         16.2840    7.0110   56.3680 C.3       9 GLL5        0.0000 
     94 CA         19.6350    5.2050   55.4100 C.3       6 GLP5        0.0000 
     95 CA         17.0235    5.5615   57.8225 C.3       3 GLC5        0.0000 
     96 CA         18.3830    7.6415   58.0975 C.3       3 GLC5        0.0000 
     97 CA         16.4900    8.0470   57.2690 C.3       9 GLL5        0.0000 
     98 CA         20.2760    7.2360   58.9260 C.3       6 GLP5        0.0000 
     99 N          18.5295   10.1800   58.5475 N.am      2 SEC2        0.0000 
    100 N          17.2600   10.2900   57.8350 N.am      8 SEL2        0.0000 
    101 N          19.7990   10.0700   59.2600 N.am      5 SEP2        0.0000 
    102 O          19.3410   10.1895   56.2805 O.2       1 ALC1        0.0000 
    103 O          18.0010    9.3180   55.7740 O.2       7 ALL1        0.0000 
    104 O          20.6810   11.0610   56.7870 O.2       4 ALP1        0.0000 
    105 CA         16.2085    5.0705   58.5550 C.3       3 GLC5        0.0000 
    106 CA         14.6540    6.0290   57.8330 C.3       9 GLL5        0.0000 
    107 CA         18.3774    6.0076   47.3573 C.3       3 GLC5        0.0000 
    108 CA         20.3450    6.0800   47.5360 C.3       6 GLP5        0.0000 
    109 CA         17.3065    7.4278   45.0345 C.3       3 GLC5        0.0000 
    110 CA         18.7050    8.5860   44.1570 C.3       6 GLP5        0.0000 
    111 CA         10.1093    2.9307   45.7350 C.3       3 GLC5        0.0000 
    112 CA         11.7340    3.4380   44.7020 C.3       9 GLL5        0.0000 
    113 CA          8.8320    2.9370   47.1060 C.3       6 GLP5        0.0000 
    114 CA         12.9176    2.1114   46.0035 C.3       3 GLC5        0.0000 
    115 CA         18.1400    4.8070   54.3800 C.3       3 GLC5        0.0000 
    116 CA         13.0405    4.7070   52.7668 C.3       3 GLC5        0.0000 
    117 CA         14.6790    4.4170   53.4740 C.3       9 GLL5        0.0000 
    118 CA         11.6000    4.5110   51.5200 C.3       6 GLP5        0.0000 
    119 CA         16.2283    6.5710   59.9470 C.3       3 GLC5        0.0000 
    120 CA         14.8510    7.0630   58.7430 C.3       9 GLL5        0.0000 
    121 CA         17.1480    5.5670   61.2900 C.3       6 GLP5        0.0000 
    122 CA         13.2368    6.1700   59.4600 C.3       3 GLC5        0.0000 
    123 CA         11.7210    5.7940   60.6320 C.3       6 GLP5        0.0000 
@<TRIPOS>BOND
@<TRIPOS>SUBSTRUCTURE
     1 ALC1       17 GROUP        1 X    ALC  0     ROOT ALC X 1
     2 SEC2        1 GROUP        1 X    SEC  0     **** SEC X 2
     3 GLC5        9 GROUP        1 X    GLC  0     **** GLC X 6
     4 ALP1       19 GROUP        1 Y    ALP  0     ROOT ALP Y 8
     5 SEP2        3 GROUP        1 Y    SEP  0     **** SEP Y 9
     6 GLP5       11 GROUP        1 Y    GLP  0     **** GLP Y 13
     7 ALL1       18 GROUP        1 Z    ALL  0     ROOT ALL Z 15
     8 SEL2        2 GROUP        1 Z    SEL  0     **** SEL Z 16
     9 GLL5       10 GROUP        1 Z    GLL  0     **** GLL Z 20
@<TRIPOS>SET

