#    Name: 2q1w_NAD_1_ligand
#    Modification time : Mon Mar 24 20:27:38 2014

@<TRIPOS>MOLECULE
2q1w_NAD_1_ligand
   70    74     1     0     0
SMALL
NO_CHARGES


@<TRIPOS>ATOM
      1 PA         17.5170    7.9930   49.7020 P.3       1 NAD501      0.0000 
      2 O1A        16.4730    8.8700   49.1750 O.co2     1 NAD501      0.0000 
      3 O2A        18.9220    8.4570   49.4970 O.co2     1 NAD501      0.0000 
      4 O5B        17.3050    6.4500   49.1880 O.3       1 NAD501      0.0000 
      5 C5B        16.1000    5.8470   48.7420 C.3       1 NAD501      0.0000 
      6 C4B        16.4290    5.2440   47.3660 C.3       1 NAD501      0.0000 
      7 O4B        15.3780    4.4210   46.9330 O.3       1 NAD501      0.0000 
      8 C3B        16.5550    6.3250   46.3030 C.3       1 NAD501      0.0000 
      9 O3B        17.7520    6.1530   45.5720 O.3       1 NAD501      0.0000 
     10 C2B        15.2610    6.2140   45.5210 C.3       1 NAD501      0.0000 
     11 O2B        15.3960    6.6380   44.2100 O.3       1 NAD501      0.0000 
     12 C1B        14.9940    4.7230   45.6310 C.3       1 NAD501      0.0000 
     13 N9A        13.5750    4.4280   45.4430 N.pl3     1 NAD501      0.0000 
     14 C8A        12.4730    5.1640   45.8430 C.2       1 NAD501      0.0000 
     15 N7A        11.3590    4.5550   45.4100 N.2       1 NAD501      0.0000 
     16 C5A        11.7340    3.4380   44.7020 C.ar      1 NAD501      0.0000 
     17 C6A        11.0390    2.4110   44.0260 C.ar      1 NAD501      0.0000 
     18 N6A         9.7240    2.4780   43.8900 N.pl3     1 NAD501      0.0000 
     19 N1A        11.7140    1.3700   43.3940 N.ar      1 NAD501      0.0000 
     20 C2A        13.1010    1.3270   43.4030 C.ar      1 NAD501      0.0000 
     21 N3A        13.7910    2.3210   44.0740 N.ar      1 NAD501      0.0000 
     22 C4A        13.1300    3.3550   44.7100 C.ar      1 NAD501      0.0000 
     23 O3         17.2310    7.8450   51.2490 O.3       1 NAD501      0.0000 
     24 PN         18.1110    7.1130   52.3420 P.3       1 NAD501      0.0000 
     25 O1N        18.4810    8.1520   53.3080 O.co2     1 NAD501      0.0000 
     26 O2N        19.2050    6.2870   51.7180 O.co2     1 NAD501      0.0000 
     27 O5D        17.0270    6.1660   52.9950 O.3       1 NAD501      0.0000 
     28 C5D        17.1680    4.7550   52.9080 C.3       1 NAD501      0.0000 
     29 C4D        16.1220    4.0630   53.7920 C.3       1 NAD501      0.0000 
     30 O4D        16.3310    4.3850   55.1600 O.3       1 NAD501      0.0000 
     31 C3D        14.6790    4.4170   53.4740 C.3       1 NAD501      0.0000 
     32 O3D        13.8600    3.3050   53.7250 O.3       1 NAD501      0.0000 
     33 C2D        14.2830    5.3890   54.5530 C.3       1 NAD501      0.0000 
     34 O2D        12.8940    5.3340   54.8060 O.3       1 NAD501      0.0000 
     35 C1D        15.1270    4.9090   55.7220 C.3       1 NAD501      0.0000 
     36 N1N        15.3630    6.0140   56.6600 N.pl3     1 NAD501      0.0000 
     37 C2N        16.2840    7.0110   56.3680 C.ar      1 NAD501      0.0000 
     38 C3N        16.4900    8.0470   57.2690 C.ar      1 NAD501      0.0000 
     39 C7N        17.3030    9.2380   56.9140 C.2       1 NAD501      0.0000 
     40 O7N        17.2600   10.2900   57.8350 O.2       1 NAD501      0.0000 
     41 N7N        18.0010    9.3180   55.7740 N.am      1 NAD501      0.0000 
     42 C4N        15.7660    8.0870   58.4650 C.ar      1 NAD501      0.0000 
     43 C5N        14.8510    7.0630   58.7430 C.ar      1 NAD501      0.0000 
     44 C6N        14.6540    6.0290   57.8330 C.ar      1 NAD501      0.0000 
     45 H          15.3040    6.5627   48.6055 H         1 NAD501      0.0000 
     46 H          15.7763    5.0428   49.3845 H         1 NAD501      0.0000 
     47 H          17.3534    4.7164   47.4242 H         1 NAD501      0.0000 
     48 H          16.5274    7.2741   46.8439 H         1 NAD501      0.0000 
     49 H          14.5046    6.7135   46.0876 H         1 NAD501      0.0000 
     50 H          15.5979    4.2266   44.9123 H         1 NAD501      0.0000 
     51 H          12.5239    5.9821   46.3519 H         1 NAD501      0.0000 
     52 H           9.3413    2.0247   43.0850 H         1 NAD501      0.0000 
     53 H           9.2325    2.9758   44.6046 H         1 NAD501      0.0000 
     54 H          13.6001    0.5768   42.9240 H         1 NAD501      0.0000 
     55 H          18.1578    4.4187   53.2448 H         1 NAD501      0.0000 
     56 H          17.0254    4.3896   51.8822 H         1 NAD501      0.0000 
     57 H          16.2305    2.9779   53.6563 H         1 NAD501      0.0000 
     58 H          14.5859    4.8413   52.5558 H         1 NAD501      0.0000 
     59 H          14.6392    6.3538   54.2678 H         1 NAD501      0.0000 
     60 H          14.5637    4.1194   56.2107 H         1 NAD501      0.0000 
     61 H          16.8123    6.9822   55.4866 H         1 NAD501      0.0000 
     62 H          17.9615    8.5169   55.1768 H         1 NAD501      0.0000 
     63 H          18.4992   10.1717   55.6221 H         1 NAD501      0.0000 
     64 H          15.9014    8.8504   59.1263 H         1 NAD501      0.0000 
     65 H          14.3236    7.0796   59.6266 H         1 NAD501      0.0000 
     66 H          13.9776    5.2840   58.0481 H         1 NAD501      0.0000 
     67 H          17.6570    5.2631   45.1258 H         1 NAD501      0.0000 
     68 H          15.4385    5.7977   43.6694 H         1 NAD501      0.0000 
     69 H          14.3063    2.8195   54.4767 H         1 NAD501      0.0000 
     70 H          12.6990    6.1457   55.3565 H         1 NAD501      0.0000 
@<TRIPOS>BOND
     1    2    1 ar   
     2    3    1 ar   
     3    4    1 1    
     4   23    1 1    
     5    5    4 1    
     6    6    5 1    
     7   45    5 1    
     8   46    5 1    
     9    7    6 1    
    10    8    6 1    
    11   47    6 1    
    12   12    7 1    
    13    9    8 1    
    14   10    8 1    
    15   48    8 1    
    16   67    9 1    
    17   11   10 1    
    18   12   10 1    
    19   49   10 1    
    20   68   11 1    
    21   13   12 1    
    22   50   12 1    
    23   14   13 1    
    24   22   13 1    
    25   15   14 2    
    26   51   14 1    
    27   16   15 1    
    28   17   16 ar   
    29   22   16 ar   
    30   18   17 1    
    31   19   17 ar   
    32   52   18 1    
    33   53   18 1    
    34   20   19 ar   
    35   21   20 ar   
    36   54   20 1    
    37   22   21 ar   
    38   24   23 1    
    39   25   24 ar   
    40   26   24 ar   
    41   27   24 1    
    42   28   27 1    
    43   29   28 1    
    44   55   28 1    
    45   56   28 1    
    46   30   29 1    
    47   31   29 1    
    48   57   29 1    
    49   35   30 1    
    50   32   31 1    
    51   33   31 1    
    52   58   31 1    
    53   69   32 1    
    54   34   33 1    
    55   35   33 1    
    56   59   33 1    
    57   70   34 1    
    58   36   35 1    
    59   60   35 1    
    60   37   36 ar   
    61   44   36 ar   
    62   38   37 ar   
    63   61   37 1    
    64   39   38 1    
    65   42   38 ar   
    66   40   39 2    
    67   41   39 am   
    68   62   41 1    
    69   63   41 1    
    70   43   42 ar   
    71   64   42 1    
    72   44   43 ar   
    73   65   43 1    
    74   66   44 1    
@<TRIPOS>SUBSTRUCTURE
     1 NAD501      1 GROUP   
@<TRIPOS>SET

