#    Name: 3in9_H1S_2_INTS_M
#    Modification time : Tue Mar 25 16:47:29 2014

@<TRIPOS>MOLECULE
3in9_H1S_2_INTS_M
   71     0     9     0     0
SMALL
NO_CHARGES


@<TRIPOS>ATOM
      1 CA         28.5085    7.3010   15.1220 C.3       3 GLC5        0.0000 
      2 CA         28.0420    8.8630   13.6710 C.3       9 GLL5        0.0000 
      3 CA         28.9750    5.7390   16.5730 C.3       6 GLP5        0.0000 
      4 CA         28.4050   11.1760   11.5565 C.3       3 GLC5        0.0000 
      5 CA         29.7420   10.5990   13.1460 C.3       9 GLL5        0.0000 
      6 CA         27.0680   11.7530    9.9670 C.3       6 GLP5        0.0000 
      7 CA         25.4290    7.5795   15.3790 C.3       3 GLC5        0.0000 
      8 CA         26.5670    8.5970   13.9860 C.3       9 GLL5        0.0000 
      9 CA         24.2910    6.5620   16.7720 C.3       6 GLP5        0.0000 
     10 CA         26.8750   11.7995   12.1755 C.3       3 GLC5        0.0000 
     11 CA         26.6820   11.8460   14.3840 C.3       9 GLL5        0.0000 
     12 CA         28.3930   10.1040   10.9485 C.3       3 GLC5        0.0000 
     13 CA         30.1240    9.7830   11.9100 C.3       9 GLL5        0.0000 
     14 CA         26.6620   10.4250    9.9870 C.3       6 GLP5        0.0000 
     15 N          30.1715   12.8975   11.7110 N.am      1 SEC2        0.0000 
     16 N          29.9530   11.9890   12.8860 N.am      7 SEL2        0.0000 
     17 N          30.3900   13.8060   10.5360 N.am      4 SEP2        0.0000 
     18 CA         28.3485    7.8165   10.6360 C.3       3 GLC5        0.0000 
     19 CA         29.8020    8.3050   12.1540 C.3       9 GLL5        0.0000 
     20 CA         26.8950    7.3280    9.1180 C.3       6 GLP5        0.0000 
     21 CA         25.9900   11.3180   17.4455 C.3       3 GLC5        0.0000 
     22 CA         26.0740   12.4110   15.6700 C.3       9 GLL5        0.0000 
     23 CA         25.9060   10.2250   19.2210 C.3       6 GLP5        0.0000 
     24 N          30.8645    7.2230   14.6480 N.am      1 SEC2        0.0000 
     25 N          30.6070    7.8030   13.2250 N.am      7 SEL2        0.0000 
     26 N          31.1220    6.6430   16.0710 N.am      4 SEP2        0.0000 
     27 CA         27.2615   11.7810   17.7015 C.3       3 GLC5        0.0000 
     28 CA         27.0980   13.3020   16.3760 C.3       9 GLL5        0.0000 
     29 CA         27.4250   10.2600   19.0270 C.3       6 GLP5        0.0000 
     30 CA         27.4075   13.8235   18.2455 C.3       3 GLC5        0.0000 
     31 CA         27.7170   14.3450   20.1150 C.3       6 GLP5        0.0000 
     32 NZ         22.7430   10.9820   13.6500 N.4       2 LYC4        0.0000 
     33 NZ         24.1840   10.3270   13.8480 N.4       8 LYL4        0.0000 
     34 NZ         21.3020   11.6370   13.4520 N.4       5 LYP4        0.0000 
     35 N          24.2635   11.7295   12.9790 N.am      1 SEC2        0.0000 
     36 N          24.1840   10.3270   13.8480 N.am      7 SEL2        0.0000 
     37 N          24.3430   13.1320   12.1100 N.am      4 SEP2        0.0000 
     38 NZ         22.5770   10.4100   12.5505 N.4       2 LYC4        0.0000 
     39 NZ         23.8520    9.1830   11.6490 N.4       8 LYL4        0.0000 
     40 N          23.0770    8.5340   10.5170 N.am      1 SEC2        0.0000 
     41 N          23.8520    9.1830   11.6490 N.am      7 SEL2        0.0000 
     42 N          22.3020    7.8850    9.3850 N.am      4 SEP2        0.0000 
     43 N          28.0385   12.7185   18.4660 N.am      1 SEC2        0.0000 
     44 N          28.0450   12.4870   17.0740 N.am      7 SEL2        0.0000 
     45 N          28.0320   12.9500   19.8580 N.am      4 SEP2        0.0000 
     46 N          30.9100   11.7690    8.7855 N.am      1 SEC2        0.0000 
     47 N          30.7890   10.1960    9.1880 N.am      7 SEL2        0.0000 
     48 N          31.0310   13.3420    8.3830 N.am      4 SEP2        0.0000 
     49 NZ         34.2615    9.7460    8.9480 N.4       2 LYC4        0.0000 
     50 NZ         33.1800   10.2880    9.6780 N.4       8 LYL4        0.0000 
     51 NZ         35.3430    9.2040    8.2180 N.4       5 LYP4        0.0000 
     52 N          34.2615    9.7460    8.9480 N.am      1 SEC2        0.0000 
     53 N          33.1800   10.2880    9.6780 N.am      7 SEL2        0.0000 
     54 N          35.3430    9.2040    8.2180 N.am      4 SEP2        0.0000 
     55 NZ         33.6615    8.6820    9.0345 N.4       2 LYC4        0.0000 
     56 NZ         31.9800    8.1600    9.8510 N.4       8 LYL4        0.0000 
     57 N          31.7030    7.4525    8.7160 N.am      1 SEC2        0.0000 
     58 N          31.9800    8.1600    9.8510 N.am      7 SEL2        0.0000 
     59 N          31.4260    6.7450    7.5810 N.am      4 SEP2        0.0000 
     60 NZ         21.9435   12.5585   14.5700 N.4       2 LYC4        0.0000 
     61 NZ         22.5850   13.4800   15.6880 N.4       8 LYL4        0.0000 
     62 NZ         29.3080   14.2690   11.1640 N.4       2 LYC4        0.0000 
     63 NZ         28.2260   14.7320   11.7920 N.4       8 LYL4        0.0000 
     64 NZ         30.5600   14.1970    9.2810 N.4       5 LYP4        0.0000 
     65 N          27.8260   14.2530   10.2810 N.am      1 SEC2        0.0000 
     66 N          28.2260   14.7320   11.7920 N.am      7 SEL2        0.0000 
     67 N          27.4260   13.7740    8.7700 N.am      4 SEP2        0.0000 
     68 N          29.3080   14.2690   11.1640 N.am      1 SEC2        0.0000 
     69 CA         26.4832    7.3790   12.6833 C.3       3 GLC5        0.0000 
     70 CA         25.6620    6.0280   11.5380 C.3       6 GLP5        0.0000 
     71 CA         27.0109    9.7651   11.8814 C.3       3 GLC5        0.0000 
@<TRIPOS>BOND
@<TRIPOS>SUBSTRUCTURE
     1 SEC2       15 GROUP        1 X    SEC  0     ROOT SEC X 2
     2 LYC4       32 GROUP        1 X    LYC  0     **** LYC X 4
     3 GLC5        1 GROUP        1 X    GLC  0     **** GLC X 6
     4 SEP2       17 GROUP        1 Y    SEP  0     ROOT SEP Y 9
     5 LYP4       34 GROUP        1 Y    LYP  0     **** LYP Y 11
     6 GLP5        3 GROUP        1 Y    GLP  0     **** GLP Y 13
     7 SEL2       16 GROUP        1 Z    SEL  0     ROOT SEL Z 16
     8 LYL4       33 GROUP        1 Z    LYL  0     **** LYL Z 18
     9 GLL5        2 GROUP        1 Z    GLL  0     **** GLL Z 20
@<TRIPOS>SET

