#    Name: 3in9_H1S_2_ligand
#    Modification time : Tue Mar 25 16:47:29 2014

@<TRIPOS>MOLECULE
3in9_H1S_2_ligand
   50    51     1     0     0
SMALL
NO_CHARGES


@<TRIPOS>ATOM
      1 C1         28.2630   10.3640   13.4600 C.3       1 H1S601      0.0000 
      2 C2         28.0420    8.8630   13.6710 C.3       1 H1S601      0.0000 
      3 O3         27.9000   11.1060   14.6530 O.3       1 H1S601      0.0000 
      4 C4         29.7420   10.5990   13.1460 C.3       1 H1S601      0.0000 
      5 O5         28.4090    8.1500   12.4770 O.3       1 H1S601      0.0000 
      6 C6         26.5670    8.5970   13.9860 C.3       1 H1S601      0.0000 
      7 C7         26.6820   11.8460   14.3840 C.3       1 H1S601      0.0000 
      8 C8         30.1240    9.7830   11.9100 C.3       1 H1S601      0.0000 
      9 O9         29.9530   11.9890   12.8860 O.3       1 H1S601      0.0000 
     10 C10        29.8020    8.3050   12.1540 C.3       1 H1S601      0.0000 
     11 O11        25.7150    8.9850   12.9030 O.3       1 H1S601      0.0000 
     12 C12        26.0740   12.4110   15.6700 C.3       1 H1S601      0.0000 
     13 O13        26.9300   12.9330   13.4740 O.3       1 H1S601      0.0000 
     14 N14        31.5540    9.9610   11.6220 N.pl3     1 H1S601      0.0000 
     15 O15        30.6070    7.8030   13.2250 O.3       1 H1S601      0.0000 
     16 S16        24.2950    9.0440   13.0770 S.o2      1 H1S601      0.0000 
     17 C17        27.0980   13.3020   16.3760 C.3       1 H1S601      0.0000 
     18 O18        24.9330   13.1970   15.3130 O.3       1 H1S601      0.0000 
     19 C19        27.7170   13.9240   13.9780 C.2       1 H1S601      0.0000 
     20 S20        31.8800    9.6420   10.0560 S.o2      1 H1S601      0.0000 
     21 O21        24.1840   10.3270   13.8480 O.co2     1 H1S601      0.0000 
     22 O22        24.0640    7.7450   13.7860 O.co2     1 H1S601      0.0000 
     23 O23        23.8520    9.1830   11.6490 O.co2     1 H1S601      0.0000 
     24 C24        27.8380   14.1570   15.3450 C.2       1 H1S601      0.0000 
     25 O25        28.0450   12.4870   17.0740 O.3       1 H1S601      0.0000 
     26 S26        23.8840   13.0010   16.2670 S.o2      1 H1S601      0.0000 
     27 C27        28.4840   14.8270   13.0090 C.2       1 H1S601      0.0000 
     28 O28        30.7890   10.1960    9.1880 O.co2     1 H1S601      0.0000 
     29 O29        33.1800   10.2880    9.6780 O.co2     1 H1S601      0.0000 
     30 O30        31.9800    8.1600    9.8510 O.co2     1 H1S601      0.0000 
     31 O31        23.7740   11.5430   16.6000 O.co2     1 H1S601      0.0000 
     32 O32        24.1900   13.7790   17.5120 O.co2     1 H1S601      0.0000 
     33 O33        22.5850   13.4800   15.6880 O.co2     1 H1S601      0.0000 
     34 O34        29.3350   15.6080   13.4910 O.co2     1 H1S601      0.0000 
     35 O35        28.2260   14.7320   11.7920 O.co2     1 H1S601      0.0000 
     36 H          27.6858   10.6776   12.6132 H         1 H1S601      0.0000 
     37 H          28.6299    8.5479   14.5111 H         1 H1S601      0.0000 
     38 H          30.3232   10.2547   13.9746 H         1 H1S601      0.0000 
     39 H          26.3207    9.1459   14.9113 H         1 H1S601      0.0000 
     40 H          26.4650    7.5224   14.2161 H         1 H1S601      0.0000 
     41 H          25.9312   11.1758   13.9507 H         1 H1S601      0.0000 
     42 H          29.5275   10.1282   11.0813 H         1 H1S601      0.0000 
     43 H          30.0308    7.7731   11.2326 H         1 H1S601      0.0000 
     44 H          25.8153   11.6023   16.3108 H         1 H1S601      0.0000 
     45 H          32.2286   10.2110   12.1787 H         1 H1S601      0.0000 
     46 H          26.5745   13.9579   17.0449 H         1 H1S601      0.0000 
     47 H          28.4198   14.9017   15.7274 H         1 H1S601      0.0000 
     48 H          29.0526   12.4113   12.9903 H         1 H1S601      0.0000 
     49 H          31.3223    8.4897   13.3548 H         1 H1S601      0.0000 
     50 H          28.6391   12.1130   16.3618 H         1 H1S601      0.0000 
@<TRIPOS>BOND
     1    2    1 1    
     2    3    1 1    
     3    4    1 1    
     4   36    1 1    
     5    5    2 1    
     6    6    2 1    
     7   37    2 1    
     8    7    3 1    
     9    8    4 1    
    10    9    4 1    
    11   38    4 1    
    12   10    5 1    
    13   11    6 1    
    14   39    6 1    
    15   40    6 1    
    16   12    7 1    
    17   13    7 1    
    18   41    7 1    
    19   10    8 1    
    20   14    8 1    
    21   42    8 1    
    22   48    9 1    
    23   15   10 1    
    24   43   10 1    
    25   16   11 1    
    26   17   12 1    
    27   18   12 1    
    28   44   12 1    
    29   19   13 1    
    30   20   14 1    
    31   45   14 1    
    32   49   15 1    
    33   21   16 ar   
    34   22   16 ar   
    35   23   16 ar   
    36   24   17 1    
    37   25   17 1    
    38   46   17 1    
    39   26   18 1    
    40   24   19 2    
    41   27   19 1    
    42   28   20 ar   
    43   29   20 ar   
    44   30   20 ar   
    45   47   24 1    
    46   50   25 1    
    47   31   26 ar   
    48   32   26 ar   
    49   33   26 ar   
    50   34   27 ar   
    51   35   27 ar   
@<TRIPOS>SUBSTRUCTURE
     1 H1S601      1 GROUP   
@<TRIPOS>SET

