#    Name: 1tv6_CP9_1_INTS_M
#    Modification time : Tue Mar 25 05:41:40 2014

@<TRIPOS>MOLECULE
1tv6_CP9_1_INTS_M
   58     0     3     0     0
SMALL
NO_CHARGES


@<TRIPOS>ATOM
      1 CA        147.3335  -24.8665   76.7190 C.3       1 GLC5        0.0000 
      2 CA        146.4450  -23.0100   76.4920 C.3       3 GLL5        0.0000 
      3 CA        148.2220  -26.7230   76.9460 C.3       2 GLP5        0.0000 
      4 CA        146.1880  -19.4975   76.0235 C.3       1 GLC5        0.0000 
      5 CA        145.3340  -20.9720   74.8220 C.3       3 GLL5        0.0000 
      6 CA        147.0420  -18.0230   77.2250 C.3       2 GLP5        0.0000 
      7 CA        141.5120  -21.6630   73.0610 C.3       1 GLC5        0.0000 
      8 CA        142.9280  -21.0790   74.3600 C.3       3 GLL5        0.0000 
      9 CA        140.0960  -22.2470   71.7620 C.3       2 GLP5        0.0000 
     10 CA        141.0400  -22.9170   74.4240 C.3       1 GLC5        0.0000 
     11 CA        142.7890  -22.2350   75.1400 C.3       3 GLL5        0.0000 
     12 CA        139.2910  -23.5990   73.7080 C.3       2 GLP5        0.0000 
     13 CA        143.8010  -24.7450   74.9980 C.3       1 GLC5        0.0000 
     14 CA        142.8560  -24.7560   76.9410 C.3       3 GLL5        0.0000 
     15 CA        144.7460  -24.7340   73.0550 C.3       2 GLP5        0.0000 
     16 CA        141.9635  -23.5355   78.2120 C.3       1 GLC5        0.0000 
     17 CA        141.0710  -22.3150   79.4830 C.3       2 GLP5        0.0000 
     18 CA        142.2105  -25.8295   78.2830 C.3       1 GLC5        0.0000 
     19 CA        141.5650  -26.9030   79.6250 C.3       2 GLP5        0.0000 
     20 CA        142.2600  -27.0690   77.9685 C.3       1 GLC5        0.0000 
     21 CA        142.9550  -27.2350   76.3120 C.3       3 GLL5        0.0000 
     22 CA        143.8480  -33.7030   75.3300 C.3       1 GLC5        0.0000 
     23 CA        142.6680  -32.7120   74.2960 C.3       3 GLL5        0.0000 
     24 CA        145.0280  -34.6940   76.3640 C.3       2 GLP5        0.0000 
     25 CA        139.2330  -26.0520   71.4710 C.3       1 GLC5        0.0000 
     26 CA        139.9980  -28.0330   71.5290 C.3       3 GLL5        0.0000 
     27 CA        138.4680  -24.0710   71.4130 C.3       2 GLP5        0.0000 
     28 CA        138.9085  -28.7025   69.8125 C.3       1 GLC5        0.0000 
     29 CA        137.8190  -29.3720   68.0960 C.3       2 GLP5        0.0000 
     30 CA        142.0465  -28.8285   71.2490 C.3       1 GLC5        0.0000 
     31 CA        144.0950  -29.6240   70.9690 C.3       2 GLP5        0.0000 
     32 CA        138.8015  -28.8910   72.4170 C.3       1 GLC5        0.0000 
     33 CA        137.6050  -29.7490   73.3050 C.3       2 GLP5        0.0000 
     34 CA        145.9720  -23.1809   74.5907 C.3       1 GLC5        0.0000 
     35 CA        145.1990  -22.1430   75.6080 C.3       3 GLL5        0.0000 
     36 CA        147.0590  -23.6920   73.2680 C.3       2 GLP5        0.0000 
     37 CA        145.9095  -22.2007   73.8882 C.3       1 GLC5        0.0000 
     38 CA        144.1860  -20.4470   74.1950 C.3       3 GLL5        0.0000 
     39 CA        144.8015  -20.5401   72.8601 C.3       1 GLC5        0.0000 
     40 CA        145.7590  -20.1860   71.2860 C.3       2 GLP5        0.0000 
     41 CA        142.0475  -19.9955   74.9699 C.3       1 GLC5        0.0000 
     42 CA        140.9220  -18.4920   75.2310 C.3       2 GLP5        0.0000 
     43 CA        143.8530  -28.4070   73.8203 C.3       1 GLC5        0.0000 
     44 CA        142.6080  -28.3110   75.4630 C.3       3 GLL5        0.0000 
     45 CA        145.5010  -28.6100   72.7570 C.3       2 GLP5        0.0000 
     46 CA        140.4193  -24.9228   74.0935 C.3       1 GLC5        0.0000 
     47 CA        141.3680  -26.7730   74.0460 C.3       3 GLL5        0.0000 
     48 CA        140.7385  -33.4913   73.3465 C.3       1 GLC5        0.0000 
     49 CA        141.1940  -31.2900   72.4430 C.3       3 GLL5        0.0000 
     50 CA        140.1820  -34.9990   74.3060 C.3       2 GLP5        0.0000 
     51 CA        143.8612  -30.9552   73.2293 C.3       1 GLC5        0.0000 
     52 CA        145.1170  -29.8900   72.0490 C.3       2 GLP5        0.0000 
     53 CA        141.3938  -33.5098   74.3578 C.3       1 GLC5        0.0000 
     54 CA        142.5430  -31.3290   74.5230 C.3       3 GLL5        0.0000 
     55 CA        142.7688  -30.7190   71.8166 C.3       1 GLC5        0.0000 
     56 CA        141.3960  -32.6770   72.3310 C.3       3 GLL5        0.0000 
     57 CA        140.8486  -27.1963   76.3750 C.3       1 GLC5        0.0000 
     58 CA        139.7210  -27.1400   77.9260 C.3       2 GLP5        0.0000 
@<TRIPOS>BOND
@<TRIPOS>SUBSTRUCTURE
     1 GLC5        1 GROUP        1 X    GLC  0     ROOT GLC X 6
     2 GLP5        3 GROUP        1 Y    GLP  0     ROOT GLP Y 13
     3 GLL5        2 GROUP        1 Z    GLL  0     ROOT GLL Z 20
@<TRIPOS>SET

