#    Name: 1tv6_CP9_1_ligand
#    Modification time : Tue Mar 25 05:41:41 2014

@<TRIPOS>MOLECULE
1tv6_CP9_1_ligand
   43    47     1     0     0
SMALL
NO_CHARGES


@<TRIPOS>ATOM
      1 S1        146.4450  -23.0100   76.4920 S.3       1 CP9561      0.0000 
      2 C2        145.2900  -24.2080   77.0790 C.2       1 CP9561      0.0000 
      3 N3        144.0180  -23.9100   76.5880 N.am      1 CP9561      0.0000 
      4 C4        143.9480  -22.7630   75.7770 C.ar      1 CP9561      0.0000 
      5 C5        145.1990  -22.1430   75.6080 C.ar      1 CP9561      0.0000 
      6 C6        145.3340  -20.9720   74.8220 C.ar      1 CP9561      0.0000 
      7 C7        144.1860  -20.4470   74.1950 C.ar      1 CP9561      0.0000 
      8 C8        142.9280  -21.0790   74.3600 C.ar      1 CP9561      0.0000 
      9 C9        142.7890  -22.2350   75.1400 C.ar      1 CP9561      0.0000 
     10 C10       142.8560  -24.7560   76.9410 C.3       1 CP9561      0.0000 
     11 C11       142.5260  -25.9390   76.0540 C.ar      1 CP9561      0.0000 
     12 C12       142.9550  -27.2350   76.3120 C.ar      1 CP9561      0.0000 
     13 C13       142.6080  -28.3110   75.4630 C.ar      1 CP9561      0.0000 
     14 C14       141.8020  -28.0970   74.3040 C.ar      1 CP9561      0.0000 
     15 C15       141.3680  -26.7730   74.0460 C.ar      1 CP9561      0.0000 
     16 C16       141.7270  -25.7200   74.9120 C.ar      1 CP9561      0.0000 
     17 N17       141.4120  -29.2370   73.3770 N.pl3     1 CP9561      0.0000 
     18 C18       140.6240  -29.2310   72.1610 C.2       1 CP9561      0.0000 
     19 N19       140.5010  -30.4240   71.6230 N.2       1 CP9561      0.0000 
     20 C20       141.1940  -31.2900   72.4430 C.ar      1 CP9561      0.0000 
     21 C21       141.7840  -30.6120   73.5520 C.ar      1 CP9561      0.0000 
     22 C22       142.5430  -31.3290   74.5230 C.ar      1 CP9561      0.0000 
     23 C23       142.6680  -32.7120   74.2960 C.ar      1 CP9561      0.0000 
     24 N24       142.1200  -33.3820   73.2420 N.ar      1 CP9561      0.0000 
     25 C25       141.3960  -32.6770   72.3310 C.ar      1 CP9561      0.0000 
     26 C26       139.9980  -28.0330   71.5290 C.3       1 CP9561      0.0000 
     27 O27       145.5900  -25.1500   77.8040 O.2       1 CP9561      0.0000 
     28 H         146.2340  -20.5260   74.7154 H         1 CP9561      0.0000 
     29 H         144.2574  -19.6058   73.6172 H         1 CP9561      0.0000 
     30 H         142.1016  -20.6742   73.8933 H         1 CP9561      0.0000 
     31 H         141.8953  -22.6892   75.2538 H         1 CP9561      0.0000 
     32 H         141.9331  -24.1081   77.0103 H         1 CP9561      0.0000 
     33 H         142.9838  -25.1401   77.9957 H         1 CP9561      0.0000 
     34 H         143.5426  -27.4282   77.1423 H         1 CP9561      0.0000 
     35 H         142.9356  -29.2573   75.6766 H         1 CP9561      0.0000 
     36 H         140.7888  -26.5826   73.2227 H         1 CP9561      0.0000 
     37 H         141.3965  -24.7625   74.7052 H         1 CP9561      0.0000 
     38 H         142.9508  -30.8759   75.3011 H         1 CP9561      0.0000 
     39 H         143.2358  -33.2611   75.0097 H         1 CP9561      0.0000 
     40 H         140.9665  -33.1666   71.5113 H         1 CP9561      0.0000 
     41 H         140.6798  -27.3445   71.2819 H         1 CP9561      0.0000 
     42 H         139.5041  -28.2699   70.6924 H         1 CP9561      0.0000 
     43 H         139.3427  -27.5901   72.1408 H         1 CP9561      0.0000 
@<TRIPOS>BOND
     1    2    1 1    
     2    5    1 1    
     3    3    2 am   
     4   27    2 2    
     5    4    3 1    
     6   10    3 1    
     7    5    4 ar   
     8    9    4 ar   
     9    6    5 ar   
    10    7    6 ar   
    11   28    6 1    
    12    8    7 ar   
    13   29    7 1    
    14    9    8 ar   
    15   30    8 1    
    16   31    9 1    
    17   11   10 1    
    18   32   10 1    
    19   33   10 1    
    20   12   11 ar   
    21   16   11 ar   
    22   13   12 ar   
    23   34   12 1    
    24   14   13 ar   
    25   35   13 1    
    26   15   14 ar   
    27   17   14 1    
    28   16   15 ar   
    29   36   15 1    
    30   37   16 1    
    31   18   17 1    
    32   21   17 1    
    33   19   18 2    
    34   26   18 1    
    35   20   19 1    
    36   21   20 ar   
    37   25   20 ar   
    38   22   21 ar   
    39   23   22 ar   
    40   38   22 1    
    41   24   23 ar   
    42   39   23 1    
    43   25   24 ar   
    44   40   25 1    
    45   41   26 1    
    46   42   26 1    
    47   43   26 1    
@<TRIPOS>SUBSTRUCTURE
     1 CP9561      1 GROUP   
@<TRIPOS>SET

