#    Name: 1knr_FAD_1_INTS_M
#    Modification time : Mon Apr  7 13:37:13 2014

@<TRIPOS>MOLECULE
1knr_FAD_1_INTS_M
  134     0     9     0     0
SMALL
NO_CHARGES


@<TRIPOS>ATOM
      1 N          68.4390   44.1935  137.0390 N.am      2 SEC2        0.0000 
      2 N          69.3720   45.0370  136.6190 N.am      8 SEL2        0.0000 
      3 N          67.5060   43.3500  137.4590 N.am      5 SEP2        0.0000 
      4 N          68.2890   42.6955  135.0800 N.am      2 SEC2        0.0000 
      5 N          69.6430   43.2370  135.0500 N.am      8 SEL2        0.0000 
      6 N          66.9350   42.1540  135.1100 N.am      5 SEP2        0.0000 
      7 N          69.1520   42.7025  134.0415 N.am      2 SEC2        0.0000 
      8 N          68.6610   42.1680  133.0330 N.am      5 SEP2        0.0000 
      9 CA         72.0660   46.4220  136.8740 C.3       3 GLC5        0.0000 
     10 CA         72.4840   44.6080  137.3630 C.3       9 GLL5        0.0000 
     11 CA         71.6480   48.2360  136.3850 C.3       6 GLP5        0.0000 
     12 CA         71.0285   42.3135  138.8335 C.3       3 GLC5        0.0000 
     13 CA         73.1240   42.7240  138.8760 C.3       9 GLL5        0.0000 
     14 CA         68.9330   41.9030  138.7910 C.3       6 GLP5        0.0000 
     15 N          74.8265   41.2650  137.5190 N.am      2 SEC2        0.0000 
     16 N          73.8990   41.5590  138.8120 N.am      8 SEL2        0.0000 
     17 N          75.7540   40.9710  136.2260 N.am      5 SEP2        0.0000 
     18 N          75.0875   41.9220  141.9485 N.am      2 SEC2        0.0000 
     19 N          73.8050   42.5500  141.1460 N.am      8 SEL2        0.0000 
     20 N          76.3700   41.2940  142.7510 N.am      5 SEP2        0.0000 
     21 CA         76.0200   43.3575  138.1810 C.3       3 GLC5        0.0000 
     22 CA         75.0300   43.7730  139.5490 C.3       9 GLL5        0.0000 
     23 CA         77.0100   42.9420  136.8130 C.3       6 GLP5        0.0000 
     24 CA         75.1430   45.5630  138.4075 C.3       3 GLC5        0.0000 
     25 CA         75.2560   47.3530  137.2660 C.3       6 GLP5        0.0000 
     26 CA         79.0795   46.0670  140.7930 C.3       3 GLC5        0.0000 
     27 CA         77.8610   46.2650  142.5910 C.3       9 GLL5        0.0000 
     28 CA         80.2980   45.8690  138.9950 C.3       6 GLP5        0.0000 
     29 CA         80.0605   46.4180  142.6105 C.3       3 GLC5        0.0000 
     30 CA         82.2600   46.5710  142.6300 C.3       6 GLP5        0.0000 
     31 O          78.5020   46.7660  144.9125 O.2       1 ALC1        0.0000 
     32 O          77.8460   47.2360  143.4980 O.2       7 ALL1        0.0000 
     33 O          79.1580   46.2960  146.3270 O.2       4 ALP1        0.0000 
     34 O          76.8080   47.9355  144.0685 O.2       1 ALC1        0.0000 
     35 O          75.7700   48.6350  144.6390 O.2       4 ALP1        0.0000 
     36 N          80.0090   45.3370  143.5165 N.am      2 SEC2        0.0000 
     37 N          78.8920   45.3840  142.6010 N.am      8 SEL2        0.0000 
     38 N          81.1260   45.2900  144.4320 N.am      5 SEP2        0.0000 
     39 CA         79.5485   45.0390  140.4300 C.3       3 GLC5        0.0000 
     40 CA         78.7990   44.2090  141.8650 C.3       9 GLL5        0.0000 
     41 CA         79.9575   42.6470  140.9725 C.3       3 GLC5        0.0000 
     42 CA         81.1160   41.0850  140.0800 C.3       6 GLP5        0.0000 
     43 CA         77.5175   42.9455  143.0100 C.3       3 GLC5        0.0000 
     44 CA         76.2360   41.6820  144.1550 C.3       6 GLP5        0.0000 
     45 CA         79.3630   43.9280  143.8435 C.3       3 GLC5        0.0000 
     46 CA         79.9270   43.6470  145.8220 C.3       6 GLP5        0.0000 
     47 CA         80.5295   45.3900  142.2475 C.3       3 GLC5        0.0000 
     48 CA         78.4995   45.3295  140.0410 C.3       3 GLC5        0.0000 
     49 CA         76.7010   44.7900  141.0870 C.3       9 GLL5        0.0000 
     50 CA         76.0840   43.8820  142.6590 C.3       3 GLC5        0.0000 
     51 CA         75.4670   42.9740  144.2310 C.3       6 GLP5        0.0000 
     52 N          63.3915   47.2960  129.3520 N.am      2 SEC2        0.0000 
     53 N          63.0550   46.1300  129.8300 N.am      8 SEL2        0.0000 
     54 N          63.7280   48.4620  128.8740 N.am      5 SEP2        0.0000 
     55 N          64.6410   46.2745  127.5175 N.am      2 SEC2        0.0000 
     56 N          63.4460   46.0550  127.5790 N.am      8 SEL2        0.0000 
     57 N          65.8360   46.4940  127.4560 N.am      5 SEP2        0.0000 
     58 O          61.3000   44.1735  127.1530 O.2       1 ALC1        0.0000 
     59 O          61.7450   44.8580  128.3880 O.2       7 ALL1        0.0000 
     60 O          60.8550   43.4890  125.9180 O.2       4 ALP1        0.0000 
     61 N          59.5105   42.7550  128.0740 N.am      2 SEC2        0.0000 
     62 N          60.0700   43.5910  129.1640 N.am      8 SEL2        0.0000 
     63 N          58.9510   41.9190  126.9840 N.am      5 SEP2        0.0000 
     64 N          59.8655   42.8725  131.8430 N.am      2 SEC2        0.0000 
     65 N          60.4760   44.4040  131.7550 N.am      8 SEL2        0.0000 
     66 N          59.2550   41.3410  131.9310 N.am      5 SEP2        0.0000 
     67 CA         58.5690   42.8035  133.8945 C.3       3 GLC5        0.0000 
     68 CA         60.0850   44.3940  134.0850 C.3       9 GLL5        0.0000 
     69 CA         57.0530   41.2130  133.7040 C.3       6 GLP5        0.0000 
     70 CA         60.9555   42.6675  137.0735 C.3       3 GLC5        0.0000 
     71 CA         59.9000   44.2460  136.6170 C.3       9 GLL5        0.0000 
     72 CA         62.0110   41.0890  137.5300 C.3       6 GLP5        0.0000 
     73 CA         64.1045   45.4450  136.6455 C.3       3 GLC5        0.0000 
     74 CA         62.1260   45.8340  136.8690 C.3       9 GLL5        0.0000 
     75 CA         66.0830   45.0560  136.4220 C.3       6 GLP5        0.0000 
     76 CA         60.5205   46.9230  137.9650 C.3       3 GLC5        0.0000 
     77 CA         58.9150   48.0120  139.0610 C.3       6 GLP5        0.0000 
     78 CA         62.4745   46.3660  138.8965 C.3       3 GLC5        0.0000 
     79 CA         62.8230   46.8980  140.9240 C.3       6 GLP5        0.0000 
     80 CA         64.2220   45.5375  135.4010 C.3       3 GLC5        0.0000 
     81 CA         62.3610   46.0190  134.3800 C.3       9 GLL5        0.0000 
     82 CA         61.6965   43.5785  132.9705 C.3       3 GLC5        0.0000 
     83 CA         61.9240   45.6970  133.1260 C.3       9 GLL5        0.0000 
     84 CA         61.4690   41.4600  132.8150 C.3       6 GLP5        0.0000 
     85 CA         64.4445   49.1215  132.1785 C.3       3 GLC5        0.0000 
     86 CA         63.7540   47.1230  131.9630 C.3       9 GLL5        0.0000 
     87 CA         65.1350   51.1200  132.3940 C.3       6 GLP5        0.0000 
     88 CA         65.1320   44.8045  130.1620 C.3       3 GLC5        0.0000 
     89 CA         64.9940   46.2520  131.7950 C.3       9 GLL5        0.0000 
     90 CA         65.2700   43.3570  128.5290 C.3       6 GLP5        0.0000 
     91 CA         66.1675   45.9100  134.4510 C.3       3 GLC5        0.0000 
     92 CA         66.2520   46.7640  132.4800 C.3       9 GLL5        0.0000 
     93 CA         66.1935   48.8350  131.9320 C.3       3 GLC5        0.0000 
     94 CA         66.1350   50.9060  131.3840 C.3       6 GLP5        0.0000 
     95 O          66.9635   48.7595  133.2280 O.2       1 ALC1        0.0000 
     96 O          66.5580   48.0410  132.0140 O.2       7 ALL1        0.0000 
     97 O          67.3690   49.4780  134.4420 O.2       4 ALP1        0.0000 
     98 CA         66.9800   44.3480  130.7065 C.3       3 GLC5        0.0000 
     99 CA         67.4390   45.8910  132.1860 C.3       9 GLL5        0.0000 
    100 CA         66.5210   42.8050  129.2270 C.3       6 GLP5        0.0000 
    101 O          67.8595   43.3730  132.7755 O.2       1 ALC1        0.0000 
    102 O          67.0580   44.5780  132.5180 O.2       7 ALL1        0.0000 
    103 O          68.6610   42.1680  133.0330 O.2       4 ALP1        0.0000 
    104 CA         67.3560   45.6750  134.7370 C.3       3 GLC5        0.0000 
    105 CA         68.6290   46.2940  133.0520 C.3       9 GLL5        0.0000 
    106 CA         69.1635   48.2425  133.1050 C.3       3 GLC5        0.0000 
    107 CA         69.6980   50.1910  133.1580 C.3       6 GLP5        0.0000 
    108 N          72.5230   43.6280  131.3575 N.am      2 SEC2        0.0000 
    109 N          71.9230   44.4150  132.6050 N.am      8 SEL2        0.0000 
    110 N          73.1230   42.8410  130.1100 N.am      5 SEP2        0.0000 
    111 N          71.6585   48.2975  132.3170 N.am      2 SEC2        0.0000 
    112 N          71.7330   46.8390  132.8960 N.am      8 SEL2        0.0000 
    113 N          71.5840   49.7560  131.7380 N.am      5 SEP2        0.0000 
    114 CA         74.1448   45.7445  137.4200 C.3       3 GLC5        0.0000 
    115 CA         75.1818   43.0680  137.5717 C.3       3 GLC5        0.0000 
    116 CA         73.5830   43.6640  137.7850 C.3       9 GLL5        0.0000 
    117 CA         72.1795   44.0957  140.6428 C.3       3 GLC5        0.0000 
    118 CA         70.9570   45.1240  141.8150 C.3       6 GLP5        0.0000 
    119 CA         76.0408   46.1162  143.4882 C.3       3 GLC5        0.0000 
    120 CA         76.7540   45.9600  141.8300 C.3       9 GLL5        0.0000 
    121 CA         74.7740   46.1200  144.7660 C.3       6 GLP5        0.0000 
    122 CA         77.0048   46.7385  139.9563 C.3       3 GLC5        0.0000 
    123 CA         77.2820   48.1020  138.4540 C.3       6 GLP5        0.0000 
    124 CA         77.0037   48.1868  142.6458 C.3       3 GLC5        0.0000 
    125 CA         76.7000   50.2610  143.0810 C.3       6 GLP5        0.0000 
    126 CA         58.6842   45.1310  134.2615 C.3       3 GLC5        0.0000 
    127 CA         56.9310   45.6150  134.9840 C.3       6 GLP5        0.0000 
    128 CA         60.9756   43.0750  133.6257 C.3       3 GLC5        0.0000 
    129 CA         60.5270   44.7330  135.3340 C.3       9 GLL5        0.0000 
    130 CA         58.5722   45.0523  135.4797 C.3       3 GLC5        0.0000 
    131 CA         64.6835   47.9032  130.3500 C.3       3 GLC5        0.0000 
    132 CA         64.9930   49.1190  128.8210 C.3       6 GLP5        0.0000 
    133 CA         69.2115   46.0637  130.8615 C.3       3 GLC5        0.0000 
    134 CA         70.3890   46.0350  129.1040 C.3       6 GLP5        0.0000 
@<TRIPOS>BOND
@<TRIPOS>SUBSTRUCTURE
     1 ALC1       31 GROUP        1 X    ALC  0     ROOT ALC X 1
     2 SEC2        1 GROUP        1 X    SEC  0     **** SEC X 2
     3 GLC5        9 GROUP        1 X    GLC  0     **** GLC X 6
     4 ALP1       33 GROUP        1 Y    ALP  0     ROOT ALP Y 8
     5 SEP2        3 GROUP        1 Y    SEP  0     **** SEP Y 9
     6 GLP5       11 GROUP        1 Y    GLP  0     **** GLP Y 13
     7 ALL1       32 GROUP        1 Z    ALL  0     ROOT ALL Z 15
     8 SEL2        2 GROUP        1 Z    SEL  0     **** SEL Z 16
     9 GLL5       10 GROUP        1 Z    GLL  0     **** GLL Z 20
@<TRIPOS>SET

