#    Name: 1knr_FAD_1_ligand
#    Modification time : Mon Apr  7 13:37:13 2014

@<TRIPOS>MOLECULE
1knr_FAD_1_ligand
   84    89     1     0     0
SMALL
NO_CHARGES


@<TRIPOS>ATOM
      1 PA         70.3790   44.3900  135.7620 P.3       1 FAD800      0.0000 
      2 O1A        69.3720   45.0370  136.6190 O.co2     1 FAD800      0.0000 
      3 O2A        69.6430   43.2370  135.0500 O.co2     1 FAD800      0.0000 
      4 O5B        71.5520   43.8150  136.6730 O.3       1 FAD800      0.0000 
      5 C5B        72.4840   44.6080  137.3630 C.3       1 FAD800      0.0000 
      6 C4B        73.5830   43.6640  137.7850 C.3       1 FAD800      0.0000 
      7 O4B        74.6770   44.3940  138.3110 O.3       1 FAD800      0.0000 
      8 C3B        73.1240   42.7240  138.8760 C.3       1 FAD800      0.0000 
      9 O3B        73.8990   41.5590  138.8120 O.3       1 FAD800      0.0000 
     10 C2B        73.6800   43.4110  140.0650 C.3       1 FAD800      0.0000 
     11 O2B        73.8050   42.5500  141.1460 O.3       1 FAD800      0.0000 
     12 C1B        75.0300   43.7730  139.5490 C.3       1 FAD800      0.0000 
     13 N9A        75.5310   44.7840  140.4490 N.pl3     1 FAD800      0.0000 
     14 C8A        74.8710   45.9160  140.7880 C.2       1 FAD800      0.0000 
     15 N7A        75.6230   46.6300  141.6310 N.2       1 FAD800      0.0000 
     16 C5A        76.7540   45.9600  141.8300 C.ar      1 FAD800      0.0000 
     17 C6A        77.8610   46.2650  142.5910 C.ar      1 FAD800      0.0000 
     18 N6A        77.8460   47.2360  143.4980 N.pl3     1 FAD800      0.0000 
     19 N1A        78.8920   45.3840  142.6010 N.ar      1 FAD800      0.0000 
     20 C2A        78.7990   44.2090  141.8650 C.ar      1 FAD800      0.0000 
     21 N3A        77.6990   43.8890  141.0990 N.ar      1 FAD800      0.0000 
     22 C4A        76.7010   44.7900  141.0870 C.ar      1 FAD800      0.0000 
     23 N1         63.0550   46.1300  129.8300 N.2       1 FAD800      0.0000 
     24 C2         62.7800   45.6970  128.5680 C.2       1 FAD800      0.0000 
     25 O2         63.4460   46.0550  127.5790 O.2       1 FAD800      0.0000 
     26 N3         61.7450   44.8580  128.3880 N.am      1 FAD800      0.0000 
     27 C4         60.9720   44.3860  129.4080 C.2       1 FAD800      0.0000 
     28 O4         60.0700   43.5910  129.1640 O.2       1 FAD800      0.0000 
     29 C4X        61.2410   44.8140  130.6880 C.2       1 FAD800      0.0000 
     30 N5         60.4760   44.4040  131.7550 N.2       1 FAD800      0.0000 
     31 C5X        60.7900   44.9000  132.9930 C.ar      1 FAD800      0.0000 
     32 C6         60.0850   44.3940  134.0850 C.ar      1 FAD800      0.0000 
     33 C7         60.5270   44.7330  135.3340 C.ar      1 FAD800      0.0000 
     34 C7M        59.9000   44.2460  136.6170 C.3       1 FAD800      0.0000 
     35 C8         61.6600   45.5400  135.4620 C.ar      1 FAD800      0.0000 
     36 C8M        62.1260   45.8340  136.8690 C.3       1 FAD800      0.0000 
     37 C9         62.3610   46.0190  134.3800 C.ar      1 FAD800      0.0000 
     38 C9A        61.9240   45.6970  133.1260 C.ar      1 FAD800      0.0000 
     39 N10        62.5780   46.1960  132.0220 N.pl3     1 FAD800      0.0000 
     40 C10        62.2940   45.6830  130.8480 C.2       1 FAD800      0.0000 
     41 C1'        63.7540   47.1230  131.9630 C.3       1 FAD800      0.0000 
     42 C2'        64.9940   46.2520  131.7950 C.3       1 FAD800      0.0000 
     43 O2'        64.6440   45.1690  132.5770 O.3       1 FAD800      0.0000 
     44 C3'        66.2520   46.7640  132.4800 C.3       1 FAD800      0.0000 
     45 O3'        66.5580   48.0410  132.0140 O.3       1 FAD800      0.0000 
     46 C4'        67.4390   45.8910  132.1860 C.3       1 FAD800      0.0000 
     47 O4'        67.0580   44.5780  132.5180 O.3       1 FAD800      0.0000 
     48 C5'        68.6290   46.2940  133.0520 C.3       1 FAD800      0.0000 
     49 O5'        69.5860   45.2680  132.9420 O.3       1 FAD800      0.0000 
     50 P          71.1410   45.4710  133.2440 P.3       1 FAD800      0.0000 
     51 O1P        71.9230   44.4150  132.6050 O.co2     1 FAD800      0.0000 
     52 O2P        71.7330   46.8390  132.8960 O.co2     1 FAD800      0.0000 
     53 O3P        71.2120   45.3620  134.8280 O.3       1 FAD800      0.0000 
     54 H          72.0646   45.0603  138.2545 H         1 FAD800      0.0000 
     55 H          72.9199   45.3769  136.7353 H         1 FAD800      0.0000 
     56 H          73.8883   43.0732  136.9370 H         1 FAD800      0.0000 
     57 H          72.1405   42.6321  138.9189 H         1 FAD800      0.0000 
     58 H          73.1405   44.2929  140.2434 H         1 FAD800      0.0000 
     59 H          75.6135   42.9546  139.4511 H         1 FAD800      0.0000 
     60 H          73.9874   46.1625  140.4634 H         1 FAD800      0.0000 
     61 H          78.6932   47.3713  144.0118 H         1 FAD800      0.0000 
     62 H          76.9889   47.7438  143.5848 H         1 FAD800      0.0000 
     63 H          79.6068   43.5369  141.8971 H         1 FAD800      0.0000 
     64 H          61.5096   44.5403  127.3996 H         1 FAD800      0.0000 
     65 H          59.2765   43.7980  133.9445 H         1 FAD800      0.0000 
     66 H          63.1913   46.6035  134.5154 H         1 FAD800      0.0000 
     67 H          63.8349   47.6818  132.8787 H         1 FAD800      0.0000 
     68 H          63.6671   47.7826  131.1176 H         1 FAD800      0.0000 
     69 H          65.1539   46.0050  130.8147 H         1 FAD800      0.0000 
     70 H          66.0852   46.7637  133.5472 H         1 FAD800      0.0000 
     71 H          67.7019   45.9851  131.1613 H         1 FAD800      0.0000 
     72 H          68.2689   46.4213  134.0710 H         1 FAD800      0.0000 
     73 H          68.9976   47.2496  132.6843 H         1 FAD800      0.0000 
     74 H          59.9217   43.2486  136.6858 H         1 FAD800      0.0000 
     75 H          60.3729   44.6056  137.4214 H         1 FAD800      0.0000 
     76 H          58.9423   44.5242  136.6913 H         1 FAD800      0.0000 
     77 H          62.3550   44.9975  137.3668 H         1 FAD800      0.0000 
     78 H          62.9417   46.4124  136.8768 H         1 FAD800      0.0000 
     79 H          61.4249   46.3089  137.4008 H         1 FAD800      0.0000 
     80 H          74.2574   41.4356  139.7373 H         1 FAD800      0.0000 
     81 H          72.9013   42.5393  141.5741 H         1 FAD800      0.0000 
     82 H          65.4553   44.9753  133.1286 H         1 FAD800      0.0000 
     83 H          67.2387   48.3943  132.6557 H         1 FAD800      0.0000 
     84 H          67.9155   44.0669  132.5768 H         1 FAD800      0.0000 
@<TRIPOS>BOND
     1    2    1 ar   
     2    3    1 ar   
     3    4    1 1    
     4   53    1 1    
     5    5    4 1    
     6    6    5 1    
     7   54    5 1    
     8   55    5 1    
     9    7    6 1    
    10    8    6 1    
    11   56    6 1    
    12   12    7 1    
    13    9    8 1    
    14   10    8 1    
    15   57    8 1    
    16   80    9 1    
    17   11   10 1    
    18   12   10 1    
    19   58   10 1    
    20   81   11 1    
    21   13   12 1    
    22   59   12 1    
    23   14   13 1    
    24   22   13 1    
    25   15   14 2    
    26   60   14 1    
    27   16   15 1    
    28   17   16 ar   
    29   22   16 ar   
    30   18   17 1    
    31   19   17 ar   
    32   61   18 1    
    33   62   18 1    
    34   20   19 ar   
    35   21   20 ar   
    36   63   20 1    
    37   22   21 ar   
    38   24   23 1    
    39   40   23 2    
    40   25   24 2    
    41   26   24 am   
    42   27   26 am   
    43   64   26 1    
    44   28   27 2    
    45   29   27 1    
    46   30   29 2    
    47   40   29 1    
    48   31   30 1    
    49   32   31 ar   
    50   38   31 ar   
    51   33   32 ar   
    52   65   32 1    
    53   34   33 1    
    54   35   33 ar   
    55   74   34 1    
    56   75   34 1    
    57   76   34 1    
    58   36   35 1    
    59   37   35 ar   
    60   77   36 1    
    61   78   36 1    
    62   79   36 1    
    63   38   37 ar   
    64   66   37 1    
    65   39   38 1    
    66   40   39 1    
    67   41   39 1    
    68   42   41 1    
    69   67   41 1    
    70   68   41 1    
    71   43   42 1    
    72   44   42 1    
    73   69   42 1    
    74   82   43 1    
    75   45   44 1    
    76   46   44 1    
    77   70   44 1    
    78   83   45 1    
    79   47   46 1    
    80   48   46 1    
    81   71   46 1    
    82   84   47 1    
    83   49   48 1    
    84   72   48 1    
    85   73   48 1    
    86   50   49 1    
    87   51   50 ar   
    88   52   50 ar   
    89   53   50 1    
@<TRIPOS>SUBSTRUCTURE
     1 FAD800      1 GROUP   
@<TRIPOS>SET

