#    Name: 2vtq_LZA_1_INTS_M
#    Modification time : Tue Mar 25 02:55:02 2014

@<TRIPOS>MOLECULE
2vtq_LZA_1_INTS_M
   65     0     9     0     0
SMALL
NO_CHARGES


@<TRIPOS>ATOM
      1 CA         30.0400    9.9275   68.1025 C.3       3 GLC5        0.0000 
      2 CA         31.8560    9.4090   67.1270 C.3       9 GLL5        0.0000 
      3 CA         28.2240   10.4460   69.0780 C.3       6 GLP5        0.0000 
      4 CA         31.0315    6.9545   68.4945 C.3       3 GLC5        0.0000 
      5 CA         31.1010    8.0860   67.0230 C.3       9 GLL5        0.0000 
      6 CA         30.9620    5.8230   69.9660 C.3       6 GLP5        0.0000 
      7 CA         32.7335    6.5845   67.1910 C.3       3 GLC5        0.0000 
      8 CA         34.3660    5.0830   67.3590 C.3       6 GLP5        0.0000 
      9 O          30.7830    5.7390   65.9715 O.2       1 ALC1        0.0000 
     10 O          29.7660    6.6740   65.4970 O.2       7 ALL1        0.0000 
     11 O          31.8000    4.8040   66.4460 O.2       4 ALP1        0.0000 
     12 N          29.3885    3.3300   66.0545 N.am      2 SEC2        0.0000 
     13 N          28.2710    4.2270   65.4540 N.am      8 SEL2        0.0000 
     14 N          30.5060    2.4330   66.6550 N.am      5 SEP2        0.0000 
     15 O          27.2620    2.0360   65.5455 O.2       1 ALC1        0.0000 
     16 O          27.4230    3.2450   65.0730 O.2       7 ALL1        0.0000 
     17 O          27.1010    0.8270   66.0180 O.2       4 ALP1        0.0000 
     18 CA         26.5665    1.9230   63.3780 C.3       3 GLC5        0.0000 
     19 CA         26.5320    3.6940   64.1610 C.3       9 GLL5        0.0000 
     20 CA         26.6010    0.1520   62.5950 C.3       6 GLP5        0.0000 
     21 CA         25.0635    2.4430   64.5695 C.3       3 GLC5        0.0000 
     22 CA         23.5950    1.1920   64.9780 C.3       6 GLP5        0.0000 
     23 CA         27.7755    6.9660   58.5770 C.3       3 GLC5        0.0000 
     24 CA         27.0470    6.9110   60.4250 C.3       9 GLL5        0.0000 
     25 CA         28.5040    7.0210   56.7290 C.3       6 GLP5        0.0000 
     26 CA         28.7105    6.2325   60.8340 C.3       3 GLC5        0.0000 
     27 CA         30.3740    5.5540   61.2430 C.3       6 GLP5        0.0000 
     28 CA         21.0910    8.1365   60.6735 C.3       3 GLC5        0.0000 
     29 CA         23.1910    8.3250   60.4710 C.3       9 GLL5        0.0000 
     30 CA         18.9910    7.9480   60.8760 C.3       6 GLP5        0.0000 
     31 CA         21.7965    4.7765   62.4900 C.3       3 GLC5        0.0000 
     32 CA         22.6580    6.6780   62.0950 C.3       9 GLL5        0.0000 
     33 CA         20.9350    2.8750   62.8850 C.3       6 GLP5        0.0000 
     34 CA         31.0000    6.7890   62.9040 C.3       3 GLC5        0.0000 
     35 CA         31.6260    8.0240   64.5650 C.3       9 GLL5        0.0000 
     36 CA         33.5115   11.0185   63.9655 C.3       3 GLC5        0.0000 
     37 CA         32.4380    9.3220   64.7310 C.3       9 GLL5        0.0000 
     38 CA         34.5850   12.7150   63.2000 C.3       6 GLP5        0.0000 
     39 CA         28.9130    8.1915   67.0925 C.3       3 GLC5        0.0000 
     40 CA         30.5150    7.9240   65.6190 C.3       9 GLL5        0.0000 
     41 CA         27.0180    8.3780   67.8640 C.3       6 GLP5        0.0000 
     42 CA         25.9147    4.4597   65.6110 C.3       3 GLC5        0.0000 
     43 CA         26.8130    5.0110   63.9350 C.3       9 GLL5        0.0000 
     44 CA         25.1570    4.5670   67.1740 C.3       6 GLP5        0.0000 
     45 CA         27.8502    3.9597   62.9620 C.3       3 GLC5        0.0000 
     46 CA         29.0280    3.5670   61.8760 C.3       6 GLP5        0.0000 
     47 CA         24.3410    6.6227   58.9753 C.3       3 GLC5        0.0000 
     48 CA         25.7840    7.3770   60.4320 C.3       9 GLL5        0.0000 
     49 CA         23.3600    6.1740   57.0920 C.3       6 GLP5        0.0000 
     50 CA         26.3442    7.4292   58.1035 C.3       3 GLC5        0.0000 
     51 CA         27.0800    6.9460   56.1820 C.3       6 GLP5        0.0000 
     52 CA         26.3738    5.1961   59.8174 C.3       3 GLC5        0.0000 
     53 CA         26.5630    3.4010   58.9930 C.3       6 GLP5        0.0000 
     54 CA         24.0712    7.4287   58.3593 C.3       3 GLC5        0.0000 
     55 CA         25.4330    8.4480   59.6180 C.3       9 GLL5        0.0000 
     56 CA         23.3700    6.9840   58.9870 C.3       3 GLC5        0.0000 
     57 CA         23.5690    7.2630   61.2930 C.3       9 GLL5        0.0000 
     58 CA         21.1628    6.9157   61.8120 C.3       3 GLC5        0.0000 
     59 CA         19.2120    6.8610   61.9300 C.3       6 GLP5        0.0000 
     60 CA         22.8927    8.2794   62.6777 C.3       3 GLC5        0.0000 
     61 CA         22.6050    9.3850   63.8680 C.3       6 GLP5        0.0000 
     62 CA         33.6600    7.7475   64.3905 C.3       3 GLC5        0.0000 
     63 CA         35.2880    6.8220   64.1330 C.3       6 GLP5        0.0000 
     64 CA         32.3710    8.5250   62.4945 C.3       3 GLC5        0.0000 
     65 CA         32.7100    8.3770   60.3410 C.3       6 GLP5        0.0000 
@<TRIPOS>BOND
@<TRIPOS>SUBSTRUCTURE
     1 ALC1        9 GROUP        1 X    ALC  0     ROOT ALC X 1
     2 SEC2       12 GROUP        1 X    SEC  0     **** SEC X 2
     3 GLC5        1 GROUP        1 X    GLC  0     **** GLC X 6
     4 ALP1       11 GROUP        1 Y    ALP  0     ROOT ALP Y 8
     5 SEP2       14 GROUP        1 Y    SEP  0     **** SEP Y 9
     6 GLP5        3 GROUP        1 Y    GLP  0     **** GLP Y 13
     7 ALL1       10 GROUP        1 Z    ALL  0     ROOT ALL Z 15
     8 SEL2       13 GROUP        1 Z    SEL  0     **** SEL Z 16
     9 GLL5        2 GROUP        1 Z    GLL  0     **** GLL Z 20
@<TRIPOS>SET

