#    Name: 2vtq_LZA_1_ligand
#    Modification time : Tue Mar 25 02:55:02 2014

@<TRIPOS>MOLECULE
2vtq_LZA_1_ligand
   41    43     1     0     0
SMALL
NO_CHARGES


@<TRIPOS>ATOM
      1 C26        31.8560    9.4090   67.1270 C.3       1 LZA1299     0.0000 
      2 C25        31.1010    8.0860   67.0230 C.3       1 LZA1299     0.0000 
      3 C5         30.5150    7.9240   65.6190 C.3       1 LZA1299     0.0000 
      4 N6         29.7660    6.6740   65.4970 N.am      1 LZA1299     0.0000 
      5 C7         28.5880    6.6340   64.8530 C.2       1 LZA1299     0.0000 
      6 O8         28.0860    7.6380   64.3640 O.2       1 LZA1299     0.0000 
      7 C9         27.9030    5.3150   64.7520 C.2       1 LZA1299     0.0000 
      8 N10        28.2710    4.2270   65.4540 N.2       1 LZA1299     0.0000 
      9 N11        27.4230    3.2450   65.0730 N.pl3     1 LZA1299     0.0000 
     10 C12        26.5320    3.6940   64.1610 C.2       1 LZA1299     0.0000 
     11 C13        26.8130    5.0110   63.9350 C.2       1 LZA1299     0.0000 
     12 N14        26.2120    5.9150   63.0750 N.am      1 LZA1299     0.0000 
     13 C15        25.2660    5.6240   62.1680 C.2       1 LZA1299     0.0000 
     14 O16        24.7640    4.4810   62.0410 O.2       1 LZA1299     0.0000 
     15 C17        24.8600    6.7660   61.2850 C.ar      1 LZA1299     0.0000 
     16 C18        25.7840    7.3770   60.4320 C.ar      1 LZA1299     0.0000 
     17 F19        27.0470    6.9110   60.4250 F         1 LZA1299     0.0000 
     18 C20        25.4330    8.4480   59.6180 C.ar      1 LZA1299     0.0000 
     19 C21        24.1320    8.9190   59.6350 C.ar      1 LZA1299     0.0000 
     20 C22        23.1910    8.3250   60.4710 C.ar      1 LZA1299     0.0000 
     21 C23        23.5690    7.2630   61.2930 C.ar      1 LZA1299     0.0000 
     22 F24        22.6580    6.6780   62.0950 F         1 LZA1299     0.0000 
     23 C4         31.6260    8.0240   64.5650 C.3       1 LZA1299     0.0000 
     24 N24        32.9580    9.4510   66.1220 N.4       1 LZA1299     0.0000 
     25 C3         32.4380    9.3220   64.7310 C.3       1 LZA1299     0.0000 
     26 H          32.2618    9.5032   68.1341 H         1 LZA1299     0.0000 
     27 H          31.1569   10.2267   66.9527 H         1 LZA1299     0.0000 
     28 H          30.2958    8.0723   67.7509 H         1 LZA1299     0.0000 
     29 H          31.7826    7.2653   67.2235 H         1 LZA1299     0.0000 
     30 H          29.8373    8.7750   65.4529 H         1 LZA1299     0.0000 
     31 H          30.1924    5.8390   65.9295 H         1 LZA1299     0.0000 
     32 H          27.4511    2.3241   65.4151 H         1 LZA1299     0.0000 
     33 H          25.8339    3.1910   63.7475 H         1 LZA1299     0.0000 
     34 H          26.5440    6.9368   63.1536 H         1 LZA1299     0.0000 
     35 H          26.1354    8.8838   59.0103 H         1 LZA1299     0.0000 
     36 H          23.8574    9.7058   59.0328 H         1 LZA1299     0.0000 
     37 H          22.2239    8.6653   60.4838 H         1 LZA1299     0.0000 
     38 H          31.1809    8.0082   63.5718 H         1 LZA1299     0.0000 
     39 H          32.2949    7.1713   64.6666 H         1 LZA1299     0.0000 
     40 H          31.7897   10.1668   64.4883 H         1 LZA1299     0.0000 
     41 H          33.2643    9.3046   64.0170 H         1 LZA1299     0.0000 
@<TRIPOS>BOND
     1    2    1 1    
     2   24    1 1    
     3   26    1 1    
     4   27    1 1    
     5    3    2 1    
     6   28    2 1    
     7   29    2 1    
     8    4    3 1    
     9   23    3 1    
    10   30    3 1    
    11    5    4 am   
    12   31    4 1    
    13    6    5 2    
    14    7    5 1    
    15    8    7 2    
    16   11    7 1    
    17    9    8 1    
    18   10    9 1    
    19   32    9 1    
    20   11   10 2    
    21   33   10 1    
    22   12   11 1    
    23   13   12 am   
    24   34   12 1    
    25   14   13 2    
    26   15   13 1    
    27   16   15 ar   
    28   21   15 ar   
    29   17   16 1    
    30   18   16 ar   
    31   19   18 ar   
    32   35   18 1    
    33   20   19 ar   
    34   36   19 1    
    35   21   20 ar   
    36   37   20 1    
    37   22   21 1    
    38   25   23 1    
    39   38   23 1    
    40   39   23 1    
    41   25   24 1    
    42   40   25 1    
    43   41   25 1    
@<TRIPOS>SUBSTRUCTURE
     1 LZA1299     1 GROUP   
@<TRIPOS>SET

