#    Name: 3IEI_8_CAVITY_N1_6.mol2
#    Modification time : Tue Mar 11 02:18:46 2014

@<TRIPOS>MOLECULE
3IEI_8_CAVITY_N1_6.mol2
   52     0     5     0     0
SMALL
NO_CHARGES


@<TRIPOS>ATOM
      1 CA         28.0606   50.7964   25.0201 C.3       5 GLY6        0.0000 
      2 NZ         25.2127   49.8618   32.0568 N.2       4 LYS4        0.0000 
      3 O          24.8095   50.2570   30.6671 O.2       2 ALA2        0.0000 
      4 CA         23.5701   50.9039   31.2107 C.3       5 GLY6        0.0000 
      5 CA         27.7213   49.1069   26.2571 C.3       5 GLY6        0.0000 
      6 N          25.7096   47.9206   31.3606 N.2       2 ALA2        0.0000 
      7 N          24.4702   48.5674   31.9041 N.2       2 ALA2        0.0000 
      8 N          26.5458   47.6689   29.4273 N.2       2 ALA2        0.0000 
      9 N          25.3064   48.3158   29.9709 N.2       2 ALA2        0.0000 
     10 CA         24.0670   48.9627   30.5144 C.3       5 GLY6        0.0000 
     11 CA         22.8276   49.6095   31.0580 C.3       5 GLY6        0.0000 
     12 OG         27.3820   47.4173   27.4941 O.2       1 SER1        0.0000 
     13 N          26.1426   48.0642   28.0376 N.2       2 ALA2        0.0000 
     14 N          24.9032   48.7110   28.5812 N.2       2 ALA2        0.0000 
     15 CA         23.6638   49.3579   29.1248 C.3       5 GLY6        0.0000 
     16 CA         22.4244   50.0047   29.6683 C.3       5 GLY6        0.0000 
     17 OG         28.2182   47.1657   25.5608 O.2       1 SER1        0.0000 
     18 OG         26.9788   47.8125   26.1044 O.2       1 SER1        0.0000 
     19 NZ         26.5756   48.2077   24.7147 N.2       4 LYS4        0.0000 
     20 N          22.9852   45.9787   31.5988 N.2       2 ALA2        0.0000 
     21 CA         26.6395   46.1229   27.3414 C.3       5 GLY6        0.0000 
     22 CA         25.4001   46.7698   27.8850 C.3       5 GLY6        0.0000 
     23 CA         24.1607   47.4166   28.4285 C.3       5 GLY6        0.0000 
     24 CA         22.9213   48.0635   28.9721 C.3       5 GLY6        0.0000 
     25 CA         21.6819   48.7103   29.5156 C.3       5 GLY6        0.0000 
     26 O          20.4425   49.3572   30.0592 O.2       2 ALA2        0.0000 
     27 CA         27.4758   45.8713   25.4082 C.3       5 GLY6        0.0000 
     28 CA         26.2363   46.5181   25.9517 C.3       5 GLY6        0.0000 
     29 CA         21.2787   49.1055   28.1259 C.3       5 GLY6        0.0000 
     30 OG         20.0393   49.7524   28.6695 O.2       1 SER1        0.0000 
     31 N          24.9671   46.6262   31.2079 N.2       2 ALA2        0.0000 
     32 N          24.5639   47.0214   29.8182 N.2       2 ALA2        0.0000 
     33 N          23.3245   47.6683   30.3618 N.2       2 ALA2        0.0000 
     34 N          22.0851   48.3151   30.9053 N.2       2 ALA2        0.0000 
     35 OD1        21.4363   45.4747   28.6667 O.3       3 ASP3        0.0000 
     36 OD1        20.1969   46.1216   29.2103 O.3       3 ASP3        0.0000 
     37 N          18.9575   46.7685   29.7539 N.2       2 ALA2        0.0000 
     38 OD1        19.7937   46.5168   27.8206 O.3       3 ASP3        0.0000 
     39 CA         18.5543   47.1637   28.3642 C.3       5 GLY6        0.0000 
     40 N          22.2427   44.6843   31.4461 N.2       2 ALA2        0.0000 
     41 N          21.0033   45.3312   31.9897 N.2       2 ALA2        0.0000 
     42 N          21.8395   45.0795   30.0564 N.2       2 ALA2        0.0000 
     43 N          20.6001   45.7264   30.6000 N.2       2 ALA2        0.0000 
     44 N          23.8214   45.7271   29.6656 N.2       2 ALA2        0.0000 
     45 N          22.5820   46.3739   30.2091 N.2       2 ALA2        0.0000 
     46 N          21.3426   47.0208   30.7527 N.2       2 ALA2        0.0000 
     47 CA         22.1788   46.7691   28.8194 C.3       5 GLY6        0.0000 
     48 N          20.9394   47.4160   29.3630 N.2       2 ALA2        0.0000 
     49 N          19.7000   48.0628   29.9065 N.2       2 ALA2        0.0000 
     50 O          26.7333   44.5769   25.2555 O.2       2 ALA2        0.0000 
     51 CA         20.5362   47.8112   27.9733 C.3       5 GLY6        0.0000 
     52 OG         19.2968   48.4580   28.5168 O.2       1 SER1        0.0000 
@<TRIPOS>BOND
@<TRIPOS>SUBSTRUCTURE
     1 SER1       12 GROUP   
     2 ALA2        3 GROUP   
     3 ASP3       35 GROUP   
     4 LYS4        2 GROUP   
     5 GLY6        1 GROUP   
@<TRIPOS>SET

