#    Name: 3iei_SAH_8_INTS_M
#    Modification time : Tue Mar 25 16:21:36 2014

@<TRIPOS>MOLECULE
3iei_SAH_8_INTS_M
   88     0    12     0     0
SMALL
NO_CHARGES


@<TRIPOS>ATOM
      1 O          22.6205   46.5395   32.9255 O.2       1 ALC1        0.0000 
      2 O          22.1850   45.6770   31.9380 O.2       9 ALL1        0.0000 
      3 O          23.0560   47.4020   33.9130 O.2       5 ALP1        0.0000 
      4 O          23.4435   44.8015   31.6510 O.2       1 ALC1        0.0000 
      5 O          24.7020   43.9260   31.3640 O.2       5 ALP1        0.0000 
      6 O          21.1020   44.7705   32.0995 O.2       1 ALC1        0.0000 
      7 O          20.0190   43.8640   32.2610 O.2       5 ALP1        0.0000 
      8 CA         21.0280   47.1035   32.7865 C.3       4 GLC5        0.0000 
      9 CA         21.6680   46.4860   30.7850 C.3      12 GLL5        0.0000 
     10 CA         20.3880   47.7210   34.7880 C.3       8 GLP5        0.0000 
     11 CA         21.5085   49.1190   31.3635 C.3       4 GLC5        0.0000 
     12 CA         22.6260   47.6130   30.3970 C.3      12 GLL5        0.0000 
     13 CA         20.3910   50.6250   32.3300 C.3       8 GLP5        0.0000 
     14 CA         24.3130   50.3135   29.0360 C.3       4 GLC5        0.0000 
     15 CA         25.0670   48.5060   29.5720 C.3      12 GLL5        0.0000 
     16 CA         23.5590   52.1210   28.5000 C.3       8 GLP5        0.0000 
     17 CA         23.9680   48.2910   27.9295 C.3       4 GLC5        0.0000 
     18 CA         22.8690   48.0760   26.2870 C.3       8 GLP5        0.0000 
     19 NZ         20.8105   44.1590   28.5790 N.4       3 LYC4        0.0000 
     20 NZ         22.0500   44.5400   29.4580 N.4      11 LYL4        0.0000 
     21 NZ         19.5710   43.7780   27.7000 N.4       7 LYP4        0.0000 
     22 NZ         22.8860   44.2370   28.4005 N.4       3 LYC4        0.0000 
     23 NZ         23.8690   42.8980   26.5250 N.4       7 LYP4        0.0000 
     24 N          20.8105   44.1590   28.5790 N.am      2 SEC2        0.0000 
     25 N          22.0500   44.5400   29.4580 N.am     10 SEL2        0.0000 
     26 N          19.5710   43.7780   27.7000 N.am      6 SEP2        0.0000 
     27 N          22.8860   44.2370   28.4005 N.am      2 SEC2        0.0000 
     28 N          23.7220   43.9340   27.3430 N.am      6 SEP2        0.0000 
     29 NZ         20.0975   44.8485   28.2080 N.4       3 LYC4        0.0000 
     30 NZ         20.6240   45.9190   28.7160 N.4      11 LYL4        0.0000 
     31 N          20.0975   44.8485   28.2080 N.am      2 SEC2        0.0000 
     32 N          20.6240   45.9190   28.7160 N.am     10 SEL2        0.0000 
     33 CA         27.9730   48.0330   30.3835 C.3       4 GLC5        0.0000 
     34 CA         26.0590   48.5510   31.0350 C.3      12 GLL5        0.0000 
     35 CA         29.8870   47.5150   29.7320 C.3       8 GLP5        0.0000 
     36 CA         24.6605   48.7410   34.0815 C.3       4 GLC5        0.0000 
     37 CA         25.3570   49.3040   32.1640 C.3      12 GLL5        0.0000 
     38 CA         23.9640   48.1780   35.9990 C.3       8 GLP5        0.0000 
     39 CA         24.1855   51.9285   30.7530 C.3       4 GLC5        0.0000 
     40 CA         25.2750   50.8050   31.8780 C.3      12 GLL5        0.0000 
     41 CA         23.0960   53.0520   29.6280 C.3       8 GLP5        0.0000 
     42 N          23.9360   52.0900   33.5215 N.am      2 SEC2        0.0000 
     43 N          23.9280   51.2540   32.0520 N.am     10 SEL2        0.0000 
     44 N          23.9440   52.9260   34.9910 N.am      6 SEP2        0.0000 
     45 O          23.3680   51.1710   33.3195 O.2       1 ALC1        0.0000 
     46 O          23.9280   51.2540   32.0520 O.2       9 ALL1        0.0000 
     47 O          22.8080   51.0880   34.5870 O.2       5 ALP1        0.0000 
     48 O          23.9360   52.0900   33.5215 O.2       1 ALC1        0.0000 
     49 O          23.9440   52.9260   34.9910 O.2       5 ALP1        0.0000 
     50 CA         26.8215   53.0535   34.2575 C.3       4 GLC5        0.0000 
     51 CA         26.1870   51.4430   32.9070 C.3      12 GLL5        0.0000 
     52 CA         27.4560   54.6640   35.6080 C.3       8 GLP5        0.0000 
     53 N          24.8545   52.8430   34.1505 N.am      2 SEC2        0.0000 
     54 N          25.7650   52.7600   33.3100 N.am     10 SEL2        0.0000 
     55 O          25.8735   53.4815   32.0095 O.2       1 ALC1        0.0000 
     56 O          25.7650   52.7600   33.3100 O.2       9 ALL1        0.0000 
     57 O          25.9820   54.2030   30.7090 O.2       5 ALP1        0.0000 
     58 CA         25.0525   49.3020   35.0220 C.3       4 GLC5        0.0000 
     59 CA         26.1410   50.4260   34.0450 C.3      12 GLL5        0.0000 
     60 CA         28.6200   52.5030   39.8820 C.3       4 GLC5        0.0000 
     61 CA         28.9770   51.3800   38.0130 C.3      12 GLL5        0.0000 
     62 CA         28.2630   53.6260   41.7510 C.3       8 GLP5        0.0000 
     63 CA         28.7765   50.1290   39.4100 C.3       4 GLC5        0.0000 
     64 CA         28.5760   48.8780   40.8070 C.3       8 GLP5        0.0000 
     65 O          30.5560   52.2415   39.6195 O.2       1 ALC1        0.0000 
     66 O          30.2450   51.4160   38.4900 O.2       9 ALL1        0.0000 
     67 O          30.8670   53.0670   40.7490 O.2       5 ALP1        0.0000 
     68 N          28.2510   51.4745   40.1505 N.am      2 SEC2        0.0000 
     69 N          27.9170   51.7190   38.7810 N.am     10 SEL2        0.0000 
     70 N          28.5850   51.2300   41.5200 N.am      6 SEP2        0.0000 
     71 CA         24.7660   51.9810   38.0550 C.3       4 GLC5        0.0000 
     72 CA         26.6500   51.6980   38.3160 C.3      12 GLL5        0.0000 
     73 CA         22.8820   52.2640   37.7940 C.3       8 GLP5        0.0000 
     74 CA         25.7100   53.6425   38.0420 C.3       4 GLC5        0.0000 
     75 CA         24.7700   55.5870   37.7680 C.3       8 GLP5        0.0000 
     76 CA         27.4565   52.6620   40.0335 C.3       4 GLC5        0.0000 
     77 CA         26.9065   50.2410   39.2655 C.3       4 GLC5        0.0000 
     78 CA         27.1630   48.7840   40.2150 C.3       8 GLP5        0.0000 
     79 CA         25.6370   49.5700   36.0900 C.3       4 GLC5        0.0000 
     80 CA         27.3100   50.9620   36.1810 C.3      12 GLL5        0.0000 
     81 CA         23.0915   47.7257   28.2195 C.3       4 GLC5        0.0000 
     82 CA         24.0020   47.1380   29.9070 C.3      12 GLL5        0.0000 
     83 CA         26.7605   49.6998   29.2172 C.3       4 GLC5        0.0000 
     84 CA         27.9580   50.8710   28.1310 C.3       8 GLP5        0.0000 
     85 CA         25.8700   47.3372   32.7597 C.3       4 GLC5        0.0000 
     86 CA         26.0320   45.7470   33.9200 C.3       8 GLP5        0.0000 
     87 CA         27.6010   49.4440   37.6783 C.3       4 GLC5        0.0000 
     88 CA         27.1910   47.9230   38.9570 C.3       8 GLP5        0.0000 
@<TRIPOS>BOND
@<TRIPOS>SUBSTRUCTURE
     1 ALC1        1 GROUP        1 X    ALC  0     ROOT ALC X 1
     2 SEC2       24 GROUP        1 X    SEC  0     **** SEC X 2
     3 LYC4       19 GROUP        1 X    LYC  0     **** LYC X 4
     4 GLC5        8 GROUP        1 X    GLC  0     **** GLC X 6
     5 ALP1        3 GROUP        1 Y    ALP  0     ROOT ALP Y 8
     6 SEP2       26 GROUP        1 Y    SEP  0     **** SEP Y 9
     7 LYP4       21 GROUP        1 Y    LYP  0     **** LYP Y 11
     8 GLP5       10 GROUP        1 Y    GLP  0     **** GLP Y 13
     9 ALL1        2 GROUP        1 Z    ALL  0     ROOT ALL Z 15
    10 SEL2       25 GROUP        1 Z    SEL  0     **** SEL Z 16
    11 LYL4       20 GROUP        1 Z    LYL  0     **** LYL Z 18
    12 GLL5        9 GROUP        1 Z    GLL  0     **** GLL Z 20
@<TRIPOS>SET

