#    Name: 3iei_SAH_8_ligand
#    Modification time : Tue Mar 25 16:21:36 2014

@<TRIPOS>MOLECULE
3iei_SAH_8_ligand
   46    48     1     0     0
SMALL
NO_CHARGES


@<TRIPOS>ATOM
      1 N          22.1850   45.6770   31.9380 N.4       1 SAH601      0.0000 
      2 CA         21.6680   46.4860   30.7850 C.3       1 SAH601      0.0000 
      3 CB         22.6260   47.6130   30.3970 C.3       1 SAH601      0.0000 
      4 CG         24.0020   47.1380   29.9070 C.3       1 SAH601      0.0000 
      5 SD         25.0670   48.5060   29.5720 S.3       1 SAH601      0.0000 
      6 C          21.4340   45.5980   29.5920 C.2       1 SAH601      0.0000 
      7 O          22.0500   44.5400   29.4580 O.co2     1 SAH601      0.0000 
      8 OXT        20.6240   45.9190   28.7160 O.co2     1 SAH601      0.0000 
      9 C5'        26.0590   48.5510   31.0350 C.3       1 SAH601      0.0000 
     10 C4'        25.3570   49.3040   32.1640 C.3       1 SAH601      0.0000 
     11 O4'        26.0990   49.1590   33.3910 O.3       1 SAH601      0.0000 
     12 C3'        25.2750   50.8050   31.8780 C.3       1 SAH601      0.0000 
     13 O3'        23.9280   51.2540   32.0520 O.3       1 SAH601      0.0000 
     14 C2'        26.1870   51.4430   32.9070 C.3       1 SAH601      0.0000 
     15 O2'        25.7650   52.7600   33.3100 O.3       1 SAH601      0.0000 
     16 C1'        26.1410   50.4260   34.0450 C.3       1 SAH601      0.0000 
     17 N9         27.3350   50.5640   34.9090 N.pl3     1 SAH601      0.0000 
     18 C8         28.6090   50.3350   34.5370 C.2       1 SAH601      0.0000 
     19 N7         29.4540   50.5780   35.5620 N.2       1 SAH601      0.0000 
     20 C5         28.7120   50.9680   36.6180 C.ar      1 SAH601      0.0000 
     21 C6         28.9770   51.3800   38.0130 C.ar      1 SAH601      0.0000 
     22 N6         30.2450   51.4160   38.4900 N.pl3     1 SAH601      0.0000 
     23 N1         27.9170   51.7190   38.7810 N.ar      1 SAH601      0.0000 
     24 C2         26.6500   51.6980   38.3160 C.ar      1 SAH601      0.0000 
     25 N3         26.3380   51.3330   37.0550 N.ar      1 SAH601      0.0000 
     26 C4         27.3100   50.9620   36.1810 C.ar      1 SAH601      0.0000 
     27 H          20.7166   46.9358   31.0645 H         1 SAH601      0.0000 
     28 H          22.7701   48.2765   31.2670 H         1 SAH601      0.0000 
     29 H          22.1596   48.2231   29.6044 H         1 SAH601      0.0000 
     30 H          23.9521   46.6223   28.9730 H         1 SAH601      0.0000 
     31 H          24.5333   46.5797   30.6464 H         1 SAH601      0.0000 
     32 H          26.9596   49.0302   30.7110 H         1 SAH601      0.0000 
     33 H          26.2189   47.5168   31.2598 H         1 SAH601      0.0000 
     34 H          24.3603   48.9270   32.2765 H         1 SAH601      0.0000 
     35 H          25.6602   50.9840   30.9131 H         1 SAH601      0.0000 
     36 H          27.1873   51.4230   32.5076 H         1 SAH601      0.0000 
     37 H          25.2440   50.6038   34.5992 H         1 SAH601      0.0000 
     38 H          28.8864   50.0339   33.6467 H         1 SAH601      0.0000 
     39 H          30.9666   51.1771   37.8402 H         1 SAH601      0.0000 
     40 H          30.3468   51.6783   39.4496 H         1 SAH601      0.0000 
     41 H          25.8643   51.9812   38.9716 H         1 SAH601      0.0000 
     42 H          23.0647   45.2505   31.7276 H         1 SAH601      0.0000 
     43 H          22.3192   46.2381   32.7548 H         1 SAH601      0.0000 
     44 H          21.5550   44.9417   32.1878 H         1 SAH601      0.0000 
     45 H          23.7169   51.0726   33.0125 H         1 SAH601      0.0000 
     46 H          25.9263   53.3391   32.5109 H         1 SAH601      0.0000 
@<TRIPOS>BOND
     1    2    1 1    
     2   42    1 1    
     3   43    1 1    
     4   44    1 1    
     5    3    2 1    
     6    6    2 1    
     7   27    2 1    
     8    4    3 1    
     9   28    3 1    
    10   29    3 1    
    11    5    4 1    
    12   30    4 1    
    13   31    4 1    
    14    9    5 1    
    15    7    6 ar   
    16    8    6 ar   
    17   10    9 1    
    18   32    9 1    
    19   33    9 1    
    20   11   10 1    
    21   12   10 1    
    22   34   10 1    
    23   16   11 1    
    24   13   12 1    
    25   14   12 1    
    26   35   12 1    
    27   45   13 1    
    28   15   14 1    
    29   16   14 1    
    30   36   14 1    
    31   46   15 1    
    32   17   16 1    
    33   37   16 1    
    34   18   17 1    
    35   26   17 1    
    36   19   18 2    
    37   38   18 1    
    38   20   19 1    
    39   21   20 ar   
    40   26   20 ar   
    41   22   21 1    
    42   23   21 ar   
    43   39   22 1    
    44   40   22 1    
    45   24   23 ar   
    46   25   24 ar   
    47   41   24 1    
    48   26   25 ar   
@<TRIPOS>SUBSTRUCTURE
     1 SAH601      1 GROUP   
@<TRIPOS>SET

