#    Name: 3ix9_MTX_1_INTS_M
#    Modification time : Tue Mar 25 17:40:11 2014

@<TRIPOS>MOLECULE
3ix9_MTX_1_INTS_M
   68     0    12     0     0
SMALL
NO_CHARGES


@<TRIPOS>ATOM
      1 N         -13.2300    6.3450  -23.0540 N.am      2 SEC2        0.0000 
      2 N         -13.8000    6.6450  -21.8310 N.am     10 SEL2        0.0000 
      3 N         -12.6600    6.0450  -24.2770 N.am      6 SEP2        0.0000 
      4 CA        -13.6785    9.8735  -21.1970 C.3       4 GLC5        0.0000 
      5 CA        -14.0660    7.9580  -21.7630 C.3      12 GLL5        0.0000 
      6 CA        -13.2910   11.7890  -20.6310 C.3       8 GLP5        0.0000 
      7 CA        -15.6545    9.0100  -21.5460 C.3       4 GLC5        0.0000 
      8 CA        -17.2430   10.0620  -21.3290 C.3       8 GLP5        0.0000 
      9 CA        -15.2985    7.4415  -23.1885 C.3       4 GLC5        0.0000 
     10 CA        -16.5310    6.9250  -24.6140 C.3       8 GLP5        0.0000 
     11 O         -13.1925    7.3965  -23.5280 O.2       1 ALC1        0.0000 
     12 O         -13.7250    8.7480  -22.7790 O.2       9 ALL1        0.0000 
     13 O         -12.6600    6.0450  -24.2770 O.2       5 ALP1        0.0000 
     14 O         -13.1725    8.4080  -23.9490 O.2       1 ALC1        0.0000 
     15 O         -12.6200    8.0680  -25.1190 O.2       5 ALP1        0.0000 
     16 O         -13.7250   10.1075  -23.3840 O.2       1 ALC1        0.0000 
     17 O         -13.7250   11.4670  -23.9890 O.2       5 ALP1        0.0000 
     18 CA        -14.0590    9.7695  -20.1000 C.3       4 GLC5        0.0000 
     19 CA        -14.8270    7.7500  -19.5690 C.3      12 GLL5        0.0000 
     20 CA        -16.0350    8.9060  -20.4490 C.3       4 GLC5        0.0000 
     21 O         -15.9390    8.1000  -17.3395 O.2       1 ALC1        0.0000 
     22 O         -15.2910    8.2960  -18.4500 O.2       9 ALL1        0.0000 
     23 O         -16.5870    7.9040  -16.2290 O.2       5 ALP1        0.0000 
     24 CA        -12.4035    3.0855  -20.7720 C.3       4 GLC5        0.0000 
     25 CA        -13.9850    3.7620  -19.7800 C.3      12 GLL5        0.0000 
     26 CA        -10.8220    2.4090  -21.7640 C.3       8 GLP5        0.0000 
     27 CA        -15.2715    4.3070  -21.2890 C.3       4 GLC5        0.0000 
     28 CA        -14.0350    5.8430  -20.7810 C.3      12 GLL5        0.0000 
     29 CA        -16.5080    2.7710  -21.7970 C.3       8 GLP5        0.0000 
     30 CA        -16.0480    2.6105  -18.6315 C.3       4 GLC5        0.0000 
     31 CA        -14.5030    3.5520  -17.4220 C.3      12 GLL5        0.0000 
     32 CA        -17.5930    1.6690  -19.8410 C.3       8 GLP5        0.0000 
     33 CA        -16.4440    4.3715  -17.0935 C.3       4 GLC5        0.0000 
     34 CA        -18.3850    5.1910  -16.7650 C.3       8 GLP5        0.0000 
     35 CA        -16.2020    1.4745  -18.6285 C.3       4 GLC5        0.0000 
     36 CA        -14.8110    1.2800  -17.4160 C.3      12 GLL5        0.0000 
     37 CA         -8.6370    2.1100  -15.9755 C.3       4 GLC5        0.0000 
     38 CA         -9.9230    1.8440  -17.6920 C.3      12 GLL5        0.0000 
     39 CA         -7.3510    2.3760  -14.2590 C.3       8 GLP5        0.0000 
     40 CA         -9.5330    3.8230  -15.8880 C.3       4 GLC5        0.0000 
     41 CA        -10.4650    3.1220  -17.5850 C.3      12 GLL5        0.0000 
     42 CA         -8.6010    4.5240  -14.1910 C.3       8 GLP5        0.0000 
     43 CA         -6.8095    2.6250  -16.1635 C.3       4 GLC5        0.0000 
     44 CA         -6.2680    2.8740  -18.0680 C.3      12 GLL5        0.0000 
     45 NZ         -6.4455    6.1840  -16.5065 N.4       3 LYC4        0.0000 
     46 NZ         -6.6130    5.1230  -17.4170 N.4      11 LYL4        0.0000 
     47 NZ         -5.2140    7.1330  -14.8000 N.4       7 LYP4        0.0000 
     48 N          -6.4455    6.1840  -16.5065 N.am      2 SEC2        0.0000 
     49 N          -6.6130    5.1230  -17.4170 N.am     10 SEL2        0.0000 
     50 N          -6.2780    7.2450  -15.5960 N.am      6 SEP2        0.0000 
     51 N          -5.4890    5.6200  -16.1940 N.am      2 SEC2        0.0000 
     52 N          -4.3650    6.1170  -14.9710 N.am      6 SEP2        0.0000 
     53 NZ         -4.5635    5.1115  -15.8355 N.4       3 LYC4        0.0000 
     54 NZ         -4.7620    4.1060  -16.7000 N.4      11 LYL4        0.0000 
     55 N          -4.5635    5.1115  -15.8355 N.am      2 SEC2        0.0000 
     56 N          -4.7620    4.1060  -16.7000 N.am     10 SEL2        0.0000 
     57 CA        -15.3727    3.4010  -20.4928 C.3       4 GLC5        0.0000 
     58 CA        -10.7793    1.2700  -15.5890 C.3       4 GLC5        0.0000 
     59 CA        -11.2190    1.2540  -13.5000 C.3       8 GLP5        0.0000 
     60 CA        -11.6713    1.8278  -15.4889 C.3       4 GLC5        0.0000 
     61 CA        -12.1320    0.8870  -17.5360 C.3      12 GLL5        0.0000 
     62 CA        -10.6121    2.3065  -19.6977 C.3       4 GLC5        0.0000 
     63 CA        -10.7560    0.7280  -17.6640 C.3      12 GLL5        0.0000 
     64 CA         -5.3327    4.8388  -19.1560 C.3       4 GLC5        0.0000 
     65 CA         -4.6510    6.8040  -19.5210 C.3       8 GLP5        0.0000 
     66 CA         -7.2033    2.4350  -21.3212 C.3       4 GLC5        0.0000 
     67 CA         -5.7610    2.8730  -19.5140 C.3      12 GLL5        0.0000 
     68 CA         -8.6030    2.6980  -22.8240 C.3       8 GLP5        0.0000 
@<TRIPOS>BOND
@<TRIPOS>SUBSTRUCTURE
     1 ALC1       11 GROUP        1 X    ALC  0     ROOT ALC X 1
     2 SEC2        1 GROUP        1 X    SEC  0     **** SEC X 2
     3 LYC4       45 GROUP        1 X    LYC  0     **** LYC X 4
     4 GLC5        4 GROUP        1 X    GLC  0     **** GLC X 6
     5 ALP1       13 GROUP        1 Y    ALP  0     ROOT ALP Y 8
     6 SEP2        3 GROUP        1 Y    SEP  0     **** SEP Y 9
     7 LYP4       47 GROUP        1 Y    LYP  0     **** LYP Y 11
     8 GLP5        6 GROUP        1 Y    GLP  0     **** GLP Y 13
     9 ALL1       12 GROUP        1 Z    ALL  0     ROOT ALL Z 15
    10 SEL2        2 GROUP        1 Z    SEL  0     **** SEL Z 16
    11 LYL4       46 GROUP        1 Z    LYL  0     **** LYL Z 18
    12 GLL5        5 GROUP        1 Z    GLL  0     **** GLL Z 20
@<TRIPOS>SET

