#    Name: 3ix9_MTX_1_ligand
#    Modification time : Tue Mar 25 17:40:11 2014

@<TRIPOS>MOLECULE
3ix9_MTX_1_ligand
   53    55     1     0     0
SMALL
NO_CHARGES


@<TRIPOS>ATOM
      1 N1        -13.8000    6.6450  -21.8310 N.ar      1 MTX200      0.0000 
      2 C2        -14.0660    7.9580  -21.7630 C.ar      1 MTX200      0.0000 
      3 NA2       -13.7250    8.7480  -22.7790 N.pl3     1 MTX200      0.0000 
      4 N3        -14.5780    8.5020  -20.6500 N.ar      1 MTX200      0.0000 
      5 C4        -14.8270    7.7500  -19.5690 C.ar      1 MTX200      0.0000 
      6 NA4       -15.2910    8.2960  -18.4500 N.pl3     1 MTX200      0.0000 
      7 C4A       -14.5560    6.3860  -19.6120 C.ar      1 MTX200      0.0000 
      8 N5        -14.7750    5.6090  -18.5440 N.ar      1 MTX200      0.0000 
      9 C6        -14.4900    4.3000  -18.5970 C.ar      1 MTX200      0.0000 
     10 C7        -13.9850    3.7620  -19.7800 C.ar      1 MTX200      0.0000 
     11 N8        -13.7680    4.5320  -20.8330 N.ar      1 MTX200      0.0000 
     12 C8A       -14.0350    5.8430  -20.7810 C.ar      1 MTX200      0.0000 
     13 C9        -14.5030    3.5520  -17.4220 C.3       1 MTX200      0.0000 
     14 N10       -14.0050    2.3280  -17.4440 N.pl3     1 MTX200      0.0000 
     15 CM        -14.8110    1.2800  -17.4160 C.3       1 MTX200      0.0000 
     16 C11        -9.9230    1.8440  -17.6920 C.ar      1 MTX200      0.0000 
     17 C12       -10.7560    0.7280  -17.6640 C.ar      1 MTX200      0.0000 
     18 C13       -12.1320    0.8870  -17.5360 C.ar      1 MTX200      0.0000 
     19 C14       -12.6800    2.1650  -17.4490 C.ar      1 MTX200      0.0000 
     20 C15       -11.8410    3.2770  -17.4630 C.ar      1 MTX200      0.0000 
     21 C16       -10.4650    3.1220  -17.5850 C.ar      1 MTX200      0.0000 
     22 C          -8.4080    1.6760  -17.8360 C.2       1 MTX200      0.0000 
     23 O          -7.8940    0.5580  -17.8430 O.2       1 MTX200      0.0000 
     24 N          -7.7360    2.8160  -17.9800 N.am      1 MTX200      0.0000 
     25 CA         -6.2680    2.8740  -18.0680 C.3       1 MTX200      0.0000 
     26 CT         -5.8310    4.1500  -17.3470 C.2       1 MTX200      0.0000 
     27 O1         -6.6130    5.1230  -17.4170 O.co2     1 MTX200      0.0000 
     28 O2         -4.7620    4.1060  -16.7000 O.co2     1 MTX200      0.0000 
     29 CB         -5.7610    2.8730  -19.5140 C.3       1 MTX200      0.0000 
     30 CG         -5.8460    1.4710  -20.1230 C.3       1 MTX200      0.0000 
     31 CD         -5.3490    1.4160  -21.5680 C.2       1 MTX200      0.0000 
     32 OE1        -4.6900    2.3880  -21.9990 O.co2     1 MTX200      0.0000 
     33 OE2        -5.6420    0.3910  -22.2220 O.co2     1 MTX200      0.0000 
     34 H         -13.9436    9.7182  -22.6746 H         1 MTX200      0.0000 
     35 H         -13.2810    8.3000  -23.5550 H         1 MTX200      0.0000 
     36 H         -15.0239    9.2444  -18.2795 H         1 MTX200      0.0000 
     37 H         -15.8654    7.7091  -17.8793 H         1 MTX200      0.0000 
     38 H         -13.7864    2.7371  -19.8027 H         1 MTX200      0.0000 
     39 H         -15.5912    3.5434  -17.0180 H         1 MTX200      0.0000 
     40 H         -13.9954    4.1850  -16.5918 H         1 MTX200      0.0000 
     41 H         -10.3521   -0.2152  -17.7382 H         1 MTX200      0.0000 
     42 H         -12.7449    0.0628  -17.5055 H         1 MTX200      0.0000 
     43 H         -12.2454    4.2227  -17.3821 H         1 MTX200      0.0000 
     44 H          -9.8517    3.9438  -17.5962 H         1 MTX200      0.0000 
     45 H          -8.2195    3.7432  -18.0392 H         1 MTX200      0.0000 
     46 H          -5.8338    2.0371  -17.5414 H         1 MTX200      0.0000 
     47 H          -4.7259    3.2092  -19.5305 H         1 MTX200      0.0000 
     48 H          -6.3652    3.5584  -20.1055 H         1 MTX200      0.0000 
     49 H          -6.8888    1.1299  -20.0896 H         1 MTX200      0.0000 
     50 H          -5.2503    0.7800  -19.5127 H         1 MTX200      0.0000 
     51 H         -14.3022    0.4194  -17.4402 H         1 MTX200      0.0000 
     52 H         -15.3726    1.2654  -16.5887 H         1 MTX200      0.0000 
     53 H         -15.4373    1.2722  -18.1955 H         1 MTX200      0.0000 
@<TRIPOS>BOND
     1    2    1 ar   
     2   12    1 ar   
     3    3    2 1    
     4    4    2 ar   
     5   34    3 1    
     6   35    3 1    
     7    5    4 ar   
     8    6    5 1    
     9    7    5 ar   
    10   36    6 1    
    11   37    6 1    
    12    8    7 ar   
    13   12    7 ar   
    14    9    8 ar   
    15   10    9 ar   
    16   13    9 1    
    17   11   10 ar   
    18   38   10 1    
    19   12   11 ar   
    20   14   13 1    
    21   39   13 1    
    22   40   13 1    
    23   15   14 1    
    24   19   14 1    
    25   51   15 1    
    26   52   15 1    
    27   53   15 1    
    28   17   16 ar   
    29   21   16 ar   
    30   22   16 1    
    31   18   17 ar   
    32   41   17 1    
    33   19   18 ar   
    34   42   18 1    
    35   20   19 ar   
    36   21   20 ar   
    37   43   20 1    
    38   44   21 1    
    39   23   22 2    
    40   24   22 am   
    41   25   24 1    
    42   45   24 1    
    43   26   25 1    
    44   29   25 1    
    45   46   25 1    
    46   27   26 ar   
    47   28   26 ar   
    48   30   29 1    
    49   47   29 1    
    50   48   29 1    
    51   31   30 1    
    52   49   30 1    
    53   50   30 1    
    54   32   31 ar   
    55   33   31 ar   
@<TRIPOS>SUBSTRUCTURE
     1 MTX200      1 GROUP   
@<TRIPOS>SET

