#    Name: 2px5_SAH_2_INTS_M
#    Modification time : Mon Mar 24 19:31:41 2014

@<TRIPOS>MOLECULE
2px5_SAH_2_INTS_M
   61     0    12     0     0
SMALL
NO_CHARGES


@<TRIPOS>ATOM
      1 OD1       -17.8570  -21.6130  -53.2715 O.co2     3 ASC3        0.0000 
      2 OD1       -18.0890  -21.8290  -54.7180 O.co2    11 ASL3        0.0000 
      3 OD1       -17.6250  -21.3970  -51.8250 O.co2     7 ASP3        0.0000 
      4 O         -17.8570  -21.6130  -53.2715 O.2       1 ALC1        0.0000 
      5 O         -18.0890  -21.8290  -54.7180 O.2       9 ALL1        0.0000 
      6 O         -17.6250  -21.3970  -51.8250 O.2       5 ALP1        0.0000 
      7 CA        -19.4135  -22.4655  -54.5630 C.3       4 GLC5        0.0000 
      8 CA        -17.3660  -23.0810  -55.1090 C.3      12 GLL5        0.0000 
      9 CA        -21.4610  -21.8500  -54.0170 C.3       8 GLP5        0.0000 
     10 CA        -15.8740  -20.9355  -53.1905 C.3       4 GLC5        0.0000 
     11 CA        -15.0520  -22.5860  -54.1460 C.3      12 GLL5        0.0000 
     12 CA        -16.6960  -19.2850  -52.2350 C.3       8 GLP5        0.0000 
     13 N         -18.8105  -24.9850  -57.2285 N.am      2 SEC2        0.0000 
     14 N         -18.0010  -25.3190  -55.8350 N.am     10 SEL2        0.0000 
     15 N         -19.6200  -24.6510  -58.6220 N.am      6 SEP2        0.0000 
     16 CA        -12.4330  -19.8820  -55.5020 C.3       4 GLC5        0.0000 
     17 CA        -11.8230  -21.6780  -54.6290 C.3      12 GLL5        0.0000 
     18 CA        -13.0430  -18.0860  -56.3750 C.3       8 GLP5        0.0000 
     19 CA        -12.6705  -22.4730  -56.5245 C.3       4 GLC5        0.0000 
     20 CA        -13.5180  -23.2680  -58.4200 C.3       8 GLP5        0.0000 
     21 O         -10.7425  -24.8050  -55.7940 O.2       1 ALC1        0.0000 
     22 O         -11.0760  -23.5170  -55.9430 O.2       9 ALL1        0.0000 
     23 O         -10.4090  -26.0930  -55.6450 O.2       5 ALP1        0.0000 
     24 N          -7.3255  -23.2055  -55.4085 N.am      2 SEC2        0.0000 
     25 N          -8.5760  -22.6460  -55.8390 N.am     10 SEL2        0.0000 
     26 N          -6.0750  -23.7650  -54.9780 N.am      6 SEP2        0.0000 
     27 CA        -11.4425  -19.3745  -55.8360 C.3       4 GLC5        0.0000 
     28 CA         -9.8420  -20.6630  -55.2970 C.3      12 GLL5        0.0000 
     29 CA         -8.0615  -20.5445  -56.4745 C.3       4 GLC5        0.0000 
     30 CA         -6.2810  -20.4260  -57.6520 C.3       8 GLP5        0.0000 
     31 CA         -6.5810  -15.4425  -57.2110 C.3       4 GLC5        0.0000 
     32 CA         -7.3280  -16.5030  -55.4610 C.3      12 GLL5        0.0000 
     33 CA         -5.8340  -14.3820  -58.9610 C.3       8 GLP5        0.0000 
     34 CA         -8.4605  -14.8035  -55.5165 C.3       4 GLC5        0.0000 
     35 CA         -9.5930  -13.1040  -55.5720 C.3       8 GLP5        0.0000 
     36 O          -5.7625  -14.6400  -55.6365 O.2       1 ALC1        0.0000 
     37 O          -6.4630  -15.7190  -54.8330 O.2       9 ALL1        0.0000 
     38 O          -5.0620  -13.5610  -56.4400 O.2       5 ALP1        0.0000 
     39 N          -7.7755  -14.6790  -57.3195 N.am      2 SEC2        0.0000 
     40 N          -7.8250  -16.1130  -56.6860 N.am     10 SEL2        0.0000 
     41 N          -7.7260  -13.2450  -57.9530 N.am      6 SEP2        0.0000 
     42 CA         -9.7250  -17.7895  -58.7605 C.3       4 GLC5        0.0000 
     43 CA         -8.7390  -16.8880  -57.3460 C.3      12 GLL5        0.0000 
     44 CA        -10.7110  -18.6910  -60.1750 C.3       8 GLP5        0.0000 
     45 CA         -7.4285  -18.0910  -58.0130 C.3       4 GLC5        0.0000 
     46 CA         -6.1180  -19.2940  -58.6800 C.3       8 GLP5        0.0000 
     47 CA         -7.2865  -15.6350  -58.1535 C.3       4 GLC5        0.0000 
     48 CA         -9.6730  -15.3420  -57.5725 C.3       4 GLC5        0.0000 
     49 CA        -10.6070  -13.7960  -57.7990 C.3       8 GLP5        0.0000 
     50 CA         -9.8655  -16.3395  -55.6240 C.3       4 GLC5        0.0000 
     51 CA        -10.9920  -15.7910  -53.9020 C.3       8 GLP5        0.0000 
     52 N          -8.7680  -18.6730  -58.2305 N.am      2 SEC2        0.0000 
     53 N          -9.1450  -18.0780  -56.7930 N.am     10 SEL2        0.0000 
     54 N          -8.3910  -19.2680  -59.6680 N.am      6 SEP2        0.0000 
     55 CA        -10.8510  -18.2855  -55.9915 C.3       4 GLC5        0.0000 
     56 CA         -8.6590  -18.4850  -55.6080 C.3      12 GLL5        0.0000 
     57 CA         -7.4700  -19.4555  -56.6300 C.3       4 GLC5        0.0000 
     58 CA         -6.4370  -18.6510  -55.8103 C.3       4 GLC5        0.0000 
     59 CA         -7.7420  -17.7070  -54.9140 C.3      12 GLL5        0.0000 
     60 CA         -5.3390  -20.1970  -56.4330 C.3       8 GLP5        0.0000 
     61 CA         -9.5445  -16.7930  -54.6499 C.3       4 GLC5        0.0000 
@<TRIPOS>BOND
@<TRIPOS>SUBSTRUCTURE
     1 ALC1        4 GROUP        1 X    ALC  0     ROOT ALC X 1
     2 SEC2       13 GROUP        1 X    SEC  0     **** SEC X 2
     3 ASC3        1 GROUP        1 X    ASC  0     **** ASC X 3
     4 GLC5        7 GROUP        1 X    GLC  0     **** GLC X 6
     5 ALP1        6 GROUP        1 Y    ALP  0     ROOT ALP Y 8
     6 SEP2       15 GROUP        1 Y    SEP  0     **** SEP Y 9
     7 ASP3        3 GROUP        1 Y    ASP  0     **** ASP Y 10
     8 GLP5        9 GROUP        1 Y    GLP  0     **** GLP Y 13
     9 ALL1        5 GROUP        1 Z    ALL  0     ROOT ALL Z 15
    10 SEL2       14 GROUP        1 Z    SEL  0     **** SEL Z 16
    11 ASL3        2 GROUP        1 Z    ASL  0     **** ASL Z 17
    12 GLL5        8 GROUP        1 Z    GLL  0     **** GLL Z 20
@<TRIPOS>SET

