#    Name: 2px5_SAH_2_ligand
#    Modification time : Mon Mar 24 19:31:41 2014

@<TRIPOS>MOLECULE
2px5_SAH_2_ligand
   46    48     1     0     0
SMALL
NO_CHARGES


@<TRIPOS>ATOM
      1 N         -18.0890  -21.8290  -54.7180 N.4       1 SAH500      0.0000 
      2 CA        -17.3660  -23.0810  -55.1090 C.3       1 SAH500      0.0000 
      3 CB        -16.3290  -23.4270  -54.0490 C.3       1 SAH500      0.0000 
      4 CG        -15.0520  -22.5860  -54.1460 C.3       1 SAH500      0.0000 
      5 SD        -13.6590  -23.3160  -53.2520 S.3       1 SAH500      0.0000 
      6 C         -18.3340  -24.2400  -55.3310 C.2       1 SAH500      0.0000 
      7 O         -19.5070  -24.1110  -55.0220 O.co2     1 SAH500      0.0000 
      8 OXT       -18.0010  -25.3190  -55.8350 O.co2     1 SAH500      0.0000 
      9 C5'       -12.6340  -21.8070  -53.3320 C.3       1 SAH500      0.0000 
     10 C4'       -11.8230  -21.6780  -54.6290 C.3       1 SAH500      0.0000 
     11 O4'       -11.1290  -20.4430  -54.7140 O.3       1 SAH500      0.0000 
     12 C3'       -10.7810  -22.7790  -54.7800 C.3       1 SAH500      0.0000 
     13 O3'       -11.0760  -23.5170  -55.9430 O.3       1 SAH500      0.0000 
     14 C2'        -9.4400  -22.0630  -54.8890 C.3       1 SAH500      0.0000 
     15 O2'        -8.5760  -22.6460  -55.8390 O.3       1 SAH500      0.0000 
     16 C1'        -9.8420  -20.6630  -55.2970 C.3       1 SAH500      0.0000 
     17 N9         -8.9000  -19.6160  -54.8790 N.pl3     1 SAH500      0.0000 
     18 C8         -8.1370  -19.5240  -53.7380 C.2       1 SAH500      0.0000 
     19 N7         -7.4400  -18.3610  -53.7740 N.2       1 SAH500      0.0000 
     20 C5         -7.7420  -17.7070  -54.9140 C.ar      1 SAH500      0.0000 
     21 C6         -7.3280  -16.5030  -55.4610 C.ar      1 SAH500      0.0000 
     22 N6         -6.4630  -15.7190  -54.8330 N.pl3     1 SAH500      0.0000 
     23 N1         -7.8250  -16.1130  -56.6860 N.ar      1 SAH500      0.0000 
     24 C2         -8.7390  -16.8880  -57.3460 C.ar      1 SAH500      0.0000 
     25 N3         -9.1450  -18.0780  -56.7930 N.ar      1 SAH500      0.0000 
     26 C4         -8.6590  -18.4850  -55.6080 C.ar      1 SAH500      0.0000 
     27 H         -16.8350  -22.8980  -56.0464 H         1 SAH500      0.0000 
     28 H         -16.0608  -24.4904  -54.1396 H         1 SAH500      0.0000 
     29 H         -16.7713  -23.2859  -53.0513 H         1 SAH500      0.0000 
     30 H         -15.1429  -21.6205  -53.6861 H         1 SAH500      0.0000 
     31 H         -14.6703  -22.5065  -55.1460 H         1 SAH500      0.0000 
     32 H         -12.0220  -21.9029  -52.4524 H         1 SAH500      0.0000 
     33 H         -13.3668  -21.0294  -53.2065 H         1 SAH500      0.0000 
     34 H         -12.5155  -21.7776  -55.4721 H         1 SAH500      0.0000 
     35 H         -10.7877  -23.3617  -53.8918 H         1 SAH500      0.0000 
     36 H          -9.0242  -22.0035  -53.9024 H         1 SAH500      0.0000 
     37 H          -9.9433  -20.6591  -56.3860 H         1 SAH500      0.0000 
     38 H          -8.1100  -20.1813  -53.0375 H         1 SAH500      0.0000 
     39 H          -6.1023  -16.0664  -53.9674 H         1 SAH500      0.0000 
     40 H          -6.2495  -14.8512  -55.2817 H         1 SAH500      0.0000 
     41 H          -9.1227  -16.5826  -58.2542 H         1 SAH500      0.0000 
     42 H         -17.6374  -21.0119  -55.0766 H         1 SAH500      0.0000 
     43 H         -19.0280  -21.8197  -55.0617 H         1 SAH500      0.0000 
     44 H         -18.1394  -21.7240  -53.7248 H         1 SAH500      0.0000 
     45 H         -11.3012  -24.4350  -55.6166 H         1 SAH500      0.0000 
     46 H          -9.1321  -23.3324  -56.3076 H         1 SAH500      0.0000 
@<TRIPOS>BOND
     1    2    1 1    
     2   42    1 1    
     3   43    1 1    
     4   44    1 1    
     5    3    2 1    
     6    6    2 1    
     7   27    2 1    
     8    4    3 1    
     9   28    3 1    
    10   29    3 1    
    11    5    4 1    
    12   30    4 1    
    13   31    4 1    
    14    9    5 1    
    15    7    6 ar   
    16    8    6 ar   
    17   10    9 1    
    18   32    9 1    
    19   33    9 1    
    20   11   10 1    
    21   12   10 1    
    22   34   10 1    
    23   16   11 1    
    24   13   12 1    
    25   14   12 1    
    26   35   12 1    
    27   45   13 1    
    28   15   14 1    
    29   16   14 1    
    30   36   14 1    
    31   46   15 1    
    32   17   16 1    
    33   37   16 1    
    34   18   17 1    
    35   26   17 1    
    36   19   18 2    
    37   38   18 1    
    38   20   19 1    
    39   21   20 ar   
    40   26   20 ar   
    41   22   21 1    
    42   23   21 ar   
    43   39   22 1    
    44   40   22 1    
    45   24   23 ar   
    46   25   24 ar   
    47   41   24 1    
    48   26   25 ar   
@<TRIPOS>SUBSTRUCTURE
     1 SAH500      1 GROUP   
@<TRIPOS>SET

