#    Name: 2h21_SAM_3_INTS_M
#    Modification time : Tue Mar 25 15:23:45 2014

@<TRIPOS>MOLECULE
2h21_SAM_3_INTS_M
   60     0    12     0     0
SMALL
NO_CHARGES


@<TRIPOS>ATOM
      1 O         120.6540  131.2555  141.6345 O.2       1 ALC1        0.0000 
      2 O         119.7380  130.7730  142.7410 O.2       9 ALL1        0.0000 
      3 O         121.5700  131.7380  140.5280 O.2       5 ALP1        0.0000 
      4 O         120.6750  130.7630  143.8040 O.2       1 ALC1        0.0000 
      5 O         121.6120  130.7530  144.8670 O.2       5 ALP1        0.0000 
      6 O         120.1620  129.5600  142.6475 O.2       1 ALC1        0.0000 
      7 O         120.5860  128.3470  142.5540 O.2       5 ALP1        0.0000 
      8 N         120.9460  133.1535  144.2045 N.am      2 SEC2        0.0000 
      9 N         119.6320  133.1180  144.1040 N.am     10 SEL2        0.0000 
     10 N         122.2600  133.1890  144.3050 N.am      6 SEP2        0.0000 
     11 NZ        116.4955  132.5235  145.0590 N.4       3 LYC4        0.0000 
     12 NZ        117.5330  133.0070  144.5390 N.4      11 LYL4        0.0000 
     13 NZ        114.1600  131.8190  145.6570 N.4       7 LYP4        0.0000 
     14 N         116.4955  132.5235  145.0590 N.am      2 SEC2        0.0000 
     15 N         117.5330  133.0070  144.5390 N.am     10 SEL2        0.0000 
     16 N         115.4580  132.0400  145.5790 N.am      6 SEP2        0.0000 
     17 CA        113.0155  127.8415  143.4040 C.3       4 GLC5        0.0000 
     18 CA        114.9540  127.5150  143.4370 C.3      12 GLL5        0.0000 
     19 CA        111.0770  128.1680  143.3710 C.3       8 GLP5        0.0000 
     20 CA        114.0830  127.7225  145.3770 C.3       4 GLC5        0.0000 
     21 CA        113.2120  127.9300  147.3170 C.3       8 GLP5        0.0000 
     22 CA        115.9175  126.1220  142.4035 C.3       4 GLC5        0.0000 
     23 CA        116.8810  124.7290  141.3700 C.3       8 GLP5        0.0000 
     24 CA        116.0880  126.8340  140.6840 C.3       4 GLC5        0.0000 
     25 CA        115.9480  128.6920  141.1850 C.3      12 GLL5        0.0000 
     26 CA        116.2280  124.9760  140.1830 C.3       8 GLP5        0.0000 
     27 CA        114.6855  127.6000  139.6775 C.3       4 GLC5        0.0000 
     28 CA        113.4230  126.5080  138.1700 C.3       8 GLP5        0.0000 
     29 CA        115.5555  128.5800  137.5265 C.3       4 GLC5        0.0000 
     30 CA        116.5110  129.5790  138.8690 C.3      12 GLL5        0.0000 
     31 CA        114.6000  127.5810  136.1840 C.3       8 GLP5        0.0000 
     32 N         115.4125  130.0945  136.6230 N.am      2 SEC2        0.0000 
     33 N         115.2910  130.1080  138.3670 N.am     10 SEL2        0.0000 
     34 N         115.5340  130.0810  134.8790 N.am      6 SEP2        0.0000 
     35 CA        118.0125  128.6555  136.9165 C.3       4 GLC5        0.0000 
     36 CA        117.7270  130.2880  138.3340 C.3      12 GLL5        0.0000 
     37 CA        118.2980  127.0230  135.4990 C.3       8 GLP5        0.0000 
     38 N         120.2200  125.2210  140.1170 N.am      2 SEC2        0.0000 
     39 N         120.0980  126.4400  139.3490 N.am     10 SEL2        0.0000 
     40 N         120.3420  124.0020  140.8850 N.am      6 SEP2        0.0000 
     41 CA        121.1615  126.6005  140.3285 C.3       4 GLC5        0.0000 
     42 CA        120.6710  126.9990  138.2210 C.3      12 GLL5        0.0000 
     43 CA        121.6520  126.2020  142.4360 C.3       8 GLP5        0.0000 
     44 CA        119.9800  124.9770  138.5905 C.3       4 GLC5        0.0000 
     45 CA        119.2890  122.9550  138.9600 C.3       8 GLP5        0.0000 
     46 O         122.2400  124.2810  138.1840 O.2       1 ALC1        0.0000 
     47 O         122.0050  125.2170  137.2520 O.2       9 ALL1        0.0000 
     48 O         122.4750  123.3450  139.1160 O.2       5 ALP1        0.0000 
     49 CA        122.6400  128.3455  137.8450 C.3       4 GLC5        0.0000 
     50 CA        121.4830  128.5880  136.1830 C.3      12 GLL5        0.0000 
     51 CA        123.7970  128.1030  139.5070 C.3       8 GLP5        0.0000 
     52 CA        120.4340  128.2220  134.7860 C.3       4 GLC5        0.0000 
     53 CA        119.3850  127.8560  133.3890 C.3       8 GLP5        0.0000 
     54 CA        121.7220  128.8000  139.1720 C.3       4 GLC5        0.0000 
     55 CA        120.2720  128.3370  138.0640 C.3      12 GLL5        0.0000 
     56 CA        123.1720  129.2630  140.2800 C.3       8 GLP5        0.0000 
     57 CA        117.8130  129.0422  145.8255 C.3       4 GLC5        0.0000 
     58 CA        117.2600  128.8570  143.4350 C.3      12 GLL5        0.0000 
     59 CA        118.0570  128.6490  147.8390 C.3       8 GLP5        0.0000 
     60 CA        122.4535  127.4203  138.6162 C.3       4 GLC5        0.0000 
@<TRIPOS>BOND
@<TRIPOS>SUBSTRUCTURE
     1 ALC1        1 GROUP        1 X    ALC  0     ROOT ALC X 1
     2 SEC2        8 GROUP        1 X    SEC  0     **** SEC X 2
     3 LYC4       11 GROUP        1 X    LYC  0     **** LYC X 4
     4 GLC5       17 GROUP        1 X    GLC  0     **** GLC X 6
     5 ALP1        3 GROUP        1 Y    ALP  0     ROOT ALP Y 8
     6 SEP2       10 GROUP        1 Y    SEP  0     **** SEP Y 9
     7 LYP4       13 GROUP        1 Y    LYP  0     **** LYP Y 11
     8 GLP5       19 GROUP        1 Y    GLP  0     **** GLP Y 13
     9 ALL1        2 GROUP        1 Z    ALL  0     ROOT ALL Z 15
    10 SEL2        9 GROUP        1 Z    SEL  0     **** SEL Z 16
    11 LYL4       12 GROUP        1 Z    LYL  0     **** LYL Z 18
    12 GLL5       18 GROUP        1 Z    GLL  0     **** GLL Z 20
@<TRIPOS>SET

