#    Name: 2h21_SAM_3_ligand
#    Modification time : Tue Mar 25 15:23:45 2014

@<TRIPOS>MOLECULE
2h21_SAM_3_ligand
   50    52     1     0     0
SMALL
NO_CHARGES


@<TRIPOS>ATOM
      1 N         119.7380  130.7730  142.7410 N.4       1 SAM803      0.0000 
      2 CA        118.4280  131.1480  143.2850 C.3       1 SAM803      0.0000 
      3 C         118.5350  132.5150  144.0340 C.2       1 SAM803      0.0000 
      4 O         119.6320  133.1180  144.1040 O.co2     1 SAM803      0.0000 
      5 OXT       117.5330  133.0070  144.5390 O.co2     1 SAM803      0.0000 
      6 CB        117.8780  130.0140  144.1890 C.3       1 SAM803      0.0000 
      7 CG        117.2600  128.8570  143.4350 C.3       1 SAM803      0.0000 
      8 SD        115.7590  129.0260  142.9360 S.3       1 SAM803      0.0000 
      9 CE        114.9540  127.5150  143.4370 C.3       1 SAM803      0.0000 
     10 C5'       115.9480  128.6920  141.1850 C.3       1 SAM803      0.0000 
     11 C4'       116.6120  129.7810  140.3530 C.3       1 SAM803      0.0000 
     12 O4'       118.0560  129.8390  140.6120 O.3       1 SAM803      0.0000 
     13 C3'       116.5110  129.5790  138.8690 C.3       1 SAM803      0.0000 
     14 O3'       115.2910  130.1080  138.3670 O.3       1 SAM803      0.0000 
     15 C2'       117.7270  130.2880  138.3340 C.3       1 SAM803      0.0000 
     16 O2'       117.5920  131.6830  138.1210 O.3       1 SAM803      0.0000 
     17 C1'       118.7580  129.8980  139.3850 C.3       1 SAM803      0.0000 
     18 N9        119.4350  128.5980  139.1270 N.pl3     1 SAM803      0.0000 
     19 C8        119.3840  127.4160  139.8490 C.2       1 SAM803      0.0000 
     20 N7        120.0980  126.4400  139.3490 N.2       1 SAM803      0.0000 
     21 C5        120.6710  126.9990  138.2210 C.ar      1 SAM803      0.0000 
     22 C6        121.5490  126.4760  137.2300 C.ar      1 SAM803      0.0000 
     23 N6        122.0050  125.2170  137.2520 N.pl3     1 SAM803      0.0000 
     24 N1        121.9450  127.3050  136.2130 N.ar      1 SAM803      0.0000 
     25 C2        121.4830  128.5880  136.1830 C.ar      1 SAM803      0.0000 
     26 N3        120.6460  129.1970  137.0620 N.ar      1 SAM803      0.0000 
     27 C4        120.2720  128.3370  138.0640 C.ar      1 SAM803      0.0000 
     28 H         117.7209  131.2862  142.4630 H         1 SAM803      0.0000 
     29 H         117.1298  130.4525  144.8716 H         1 SAM803      0.0000 
     30 H         118.7063  129.6452  144.8181 H         1 SAM803      0.0000 
     31 H         117.2890  127.9383  144.0633 H         1 SAM803      0.0000 
     32 H         117.8735  128.6212  142.5363 H         1 SAM803      0.0000 
     33 H         114.9226  128.4833  140.8719 H         1 SAM803      0.0000 
     34 H         116.5075  127.7540  141.1821 H         1 SAM803      0.0000 
     35 H         116.1789  130.7418  140.5984 H         1 SAM803      0.0000 
     36 H         116.6253  128.5283  138.6744 H         1 SAM803      0.0000 
     37 H         118.0205  129.7424  137.4248 H         1 SAM803      0.0000 
     38 H         119.4993  130.6939  139.4261 H         1 SAM803      0.0000 
     39 H         118.8293  127.3532  140.6877 H         1 SAM803      0.0000 
     40 H         122.2264  124.8136  136.3642 H         1 SAM803      0.0000 
     41 H         122.0833  124.7931  138.1543 H         1 SAM803      0.0000 
     42 H         121.8313  129.2009  135.3458 H         1 SAM803      0.0000 
     43 H         119.8498  129.7804  142.6928 H         1 SAM803      0.0000 
     44 H         119.8715  131.1283  141.8159 H         1 SAM803      0.0000 
     45 H         120.4876  131.1255  143.3013 H         1 SAM803      0.0000 
     46 H         115.3808  126.7115  143.0219 H         1 SAM803      0.0000 
     47 H         114.9891  127.3864  144.4281 H         1 SAM803      0.0000 
     48 H         113.9893  127.5033  143.1739 H         1 SAM803      0.0000 
     49 H         115.5465  130.9617  137.9131 H         1 SAM803      0.0000 
     50 H         118.0131  132.1089  138.9218 H         1 SAM803      0.0000 
@<TRIPOS>BOND
     1    2    1 1    
     2   43    1 1    
     3   44    1 1    
     4   45    1 1    
     5    3    2 1    
     6    6    2 1    
     7   28    2 1    
     8    4    3 ar   
     9    5    3 ar   
    10    7    6 1    
    11   29    6 1    
    12   30    6 1    
    13    8    7 1    
    14   31    7 1    
    15   32    7 1    
    16    9    8 1    
    17   10    8 1    
    18   46    9 1    
    19   47    9 1    
    20   48    9 1    
    21   11   10 1    
    22   33   10 1    
    23   34   10 1    
    24   12   11 1    
    25   13   11 1    
    26   35   11 1    
    27   17   12 1    
    28   14   13 1    
    29   15   13 1    
    30   36   13 1    
    31   49   14 1    
    32   16   15 1    
    33   17   15 1    
    34   37   15 1    
    35   50   16 1    
    36   18   17 1    
    37   38   17 1    
    38   19   18 1    
    39   27   18 1    
    40   20   19 2    
    41   39   19 1    
    42   21   20 1    
    43   22   21 ar   
    44   27   21 ar   
    45   23   22 1    
    46   24   22 ar   
    47   40   23 1    
    48   41   23 1    
    49   25   24 ar   
    50   26   25 ar   
    51   42   25 1    
    52   27   26 ar   
@<TRIPOS>SUBSTRUCTURE
     1 SAM803      1 GROUP   
@<TRIPOS>SET

