#    Name: 4l02_1V2_3_INTS_M
#    Modification time : Tue Mar 25 09:22:39 2014

@<TRIPOS>MOLECULE
4l02_1V2_3_INTS_M
  111     0     9     0     0
SMALL
NO_CHARGES


@<TRIPOS>ATOM
      1 CA         58.5700   90.9975   11.4550 C.3       3 GLC5        0.0000 
      2 CA         56.9140   91.9240   12.0220 C.3       9 GLL5        0.0000 
      3 CA         60.2260   90.0710   10.8880 C.3       6 GLP5        0.0000 
      4 CA         59.3880   92.0555   11.2365 C.3       3 GLC5        0.0000 
      5 CA         58.5500   94.0400   11.5850 C.3       9 GLL5        0.0000 
      6 CA         60.1380   94.1070   10.8800 C.3       3 GLC5        0.0000 
      7 CA         61.7260   94.1740   10.1750 C.3       6 GLP5        0.0000 
      8 CA         58.6995   93.3860    9.7270 C.3       3 GLC5        0.0000 
      9 CA         58.8490   92.7320    7.8690 C.3       6 GLP5        0.0000 
     10 CA         58.0405   95.2805    9.9725 C.3       3 GLC5        0.0000 
     11 CA         57.5310   96.5210    8.3600 C.3       6 GLP5        0.0000 
     12 CA         59.6575   95.3925   12.7160 C.3       3 GLC5        0.0000 
     13 CA         60.7650   96.7450   13.8470 C.3       6 GLP5        0.0000 
     14 CA         56.8085   93.9765   10.5155 C.3       3 GLC5        0.0000 
     15 CA         55.0670   93.9130    9.4460 C.3       6 GLP5        0.0000 
     16 CA         58.3350   96.4340   14.1190 C.3       3 GLC5        0.0000 
     17 CA         57.0000   95.4990   13.8050 C.3       9 GLL5        0.0000 
     18 CA         59.6700   97.3690   14.4330 C.3       6 GLP5        0.0000 
     19 CA         55.3875   94.5940   15.6545 C.3       3 GLC5        0.0000 
     20 CA         55.4990   93.2450   14.0420 C.3       9 GLL5        0.0000 
     21 CA         55.2760   95.9430   17.2670 C.3       6 GLP5        0.0000 
     22 CA         55.4660   92.5965   11.0590 C.3       3 GLC5        0.0000 
     23 CA         55.8650   91.2800   12.6720 C.3       9 GLL5        0.0000 
     24 CA         54.7410   88.6325   14.9565 C.3       3 GLC5        0.0000 
     25 CA         54.7680   89.1830   13.0950 C.3       9 GLL5        0.0000 
     26 CA         54.7140   88.0820   16.8180 C.3       6 GLP5        0.0000 
     27 CA         53.5975   86.3430   11.3675 C.3       3 GLC5        0.0000 
     28 CA         54.5840   87.7080   12.3000 C.3       9 GLL5        0.0000 
     29 CA         52.6110   84.9780   10.4350 C.3       6 GLP5        0.0000 
     30 O          54.9610   86.2330    9.2845 O.2       1 ALC1        0.0000 
     31 O          55.7220   87.3320    9.9330 O.2       7 ALL1        0.0000 
     32 O          54.2000   85.1340    8.6360 O.2       4 ALP1        0.0000 
     33 CA         58.9060   86.3790    9.1630 C.3       3 GLC5        0.0000 
     34 CA         57.1420   86.4690    8.2920 C.3       9 GLL5        0.0000 
     35 CA         60.6700   86.2890   10.0340 C.3       6 GLP5        0.0000 
     36 CA         57.7380   84.7060    8.0530 C.3       3 GLC5        0.0000 
     37 CA         58.3340   82.9430    7.8140 C.3       6 GLP5        0.0000 
     38 CA         57.6075   84.8165    6.9205 C.3       3 GLC5        0.0000 
     39 CA         57.9160   86.6210    7.1460 C.3       9 GLL5        0.0000 
     40 CA         57.2990   83.0120    6.6950 C.3       6 GLP5        0.0000 
     41 CA         55.6520   90.6510    8.3115 C.3       3 GLC5        0.0000 
     42 CA         56.5600   88.8110    8.2130 C.3       9 GLL5        0.0000 
     43 CA         54.7440   92.4910    8.4100 C.3       6 GLP5        0.0000 
     44 CA         58.0955   90.8450    7.4670 C.3       3 GLC5        0.0000 
     45 CA         57.3420   88.9580    7.0650 C.3       9 GLL5        0.0000 
     46 CA         58.3170   86.7035    4.0405 C.3       3 GLC5        0.0000 
     47 CA         58.8930   87.9520    5.2570 C.3       9 GLL5        0.0000 
     48 CA         57.7410   85.4550    2.8240 C.3       6 GLP5        0.0000 
     49 CA         59.5990   91.0380    5.7990 C.3       3 GLC5        0.0000 
     50 CA         59.7820   89.1970    5.1320 C.3       9 GLL5        0.0000 
     51 CA         59.4160   92.8790    6.4660 C.3       6 GLP5        0.0000 
     52 OD1        61.2970   87.6140    3.8760 O.co2     2 ASC3        0.0000 
     53 OD1        60.7050   89.0560    3.9800 O.co2     8 ASL3        0.0000 
     54 OD1        61.8890   86.1720    3.7720 O.co2     5 ASP3        0.0000 
     55 OD1        61.7055   87.8190    4.8750 O.co2     2 ASC3        0.0000 
     56 OD1        62.7060   86.5820    5.7700 O.co2     5 ASP3        0.0000 
     57 O          61.2970   87.6140    3.8760 O.2       1 ALC1        0.0000 
     58 O          60.7050   89.0560    3.9800 O.2       7 ALL1        0.0000 
     59 O          61.8890   86.1720    3.7720 O.2       4 ALP1        0.0000 
     60 CA         57.8610   89.6890    3.1170 C.3       3 GLC5        0.0000 
     61 CA         59.8950   88.9580    2.7460 C.3       9 GLL5        0.0000 
     62 CA         55.8270   90.4200    3.4880 C.3       6 GLP5        0.0000 
     63 O          62.5710   90.9970   -0.3945 O.2       1 ALC1        0.0000 
     64 O          62.5450   89.8370    0.2370 O.2       7 ALL1        0.0000 
     65 O          62.5970   92.1570   -1.0260 O.2       4 ALP1        0.0000 
     66 CA         63.2040   92.0780    2.1160 C.3       3 GLC5        0.0000 
     67 CA         62.5390   90.1910    2.6420 C.3       9 GLL5        0.0000 
     68 CA         63.8690   93.9650    1.5900 C.3       6 GLP5        0.0000 
     69 CA         64.0445   91.8585    5.5305 C.3       3 GLC5        0.0000 
     70 CA         62.5930   90.2060    5.1490 C.3       9 GLL5        0.0000 
     71 CA         65.4960   93.5110    5.9120 C.3       6 GLP5        0.0000 
     72 CA         61.8515   89.2285    6.8200 C.3       3 GLC5        0.0000 
     73 CA         61.1100   88.2510    8.4910 C.3       6 GLP5        0.0000 
     74 O          63.0575   87.8070    5.4735 O.2       1 ALC1        0.0000 
     75 O          63.4090   89.0320    5.1770 O.2       7 ALL1        0.0000 
     76 O          62.7060   86.5820    5.7700 O.2       4 ALP1        0.0000 
     77 CA         57.5343   90.4840   13.5940 C.3       3 GLC5        0.0000 
     78 CA         58.6790   89.3660   14.8410 C.3       6 GLP5        0.0000 
     79 CA         55.9419   93.5709   11.1200 C.3       3 GLC5        0.0000 
     80 CA         57.2410   95.0195   15.4718 C.3       3 GLC5        0.0000 
     81 CA         57.7070   95.3480   17.3480 C.3       6 GLP5        0.0000 
     82 CA         53.5028   92.5835   14.6913 C.3       3 GLC5        0.0000 
     83 CA         51.6760   92.5730   15.5210 C.3       6 GLP5        0.0000 
     84 CA         55.1120   95.5335   13.4849 C.3       3 GLC5        0.0000 
     85 CA         54.0870   97.0990   13.1510 C.3       6 GLP5        0.0000 
     86 CA         56.9120   89.4733   13.7728 C.3       3 GLC5        0.0000 
     87 CA         55.5220   89.9780   12.3140 C.3       9 GLL5        0.0000 
     88 CA         53.0482   88.9391   11.9136 C.3       3 GLC5        0.0000 
     89 CA         51.2320   89.2340   11.3250 C.3       6 GLP5        0.0000 
     90 CA         58.1953   88.4017    9.5852 C.3       3 GLC5        0.0000 
     91 CA         56.4650   87.5620    8.8380 C.3       9 GLL5        0.0000 
     92 CA         59.8780   88.6170   10.6450 C.3       6 GLP5        0.0000 
     93 CA         56.6905   86.6278    5.2220 C.3       3 GLC5        0.0000 
     94 CA         58.0260   87.8640    6.5280 C.3       9 GLL5        0.0000 
     95 CA         55.4100   86.0130    3.6070 C.3       6 GLP5        0.0000 
     96 CA         59.3832   88.1756    7.7210 C.3       3 GLC5        0.0000 
     97 CA         56.3248   89.5696    6.0983 C.3       3 GLC5        0.0000 
     98 CA         55.1610   90.7650    5.1130 C.3       6 GLP5        0.0000 
     99 CA         60.2237   88.4128    6.8427 C.3       3 GLC5        0.0000 
    100 CA         57.5823   89.4973    4.3412 C.3       3 GLC5        0.0000 
    101 CA         59.4543   87.5323    1.4158 C.3       3 GLC5        0.0000 
    102 CA         58.5600   86.1950    0.6950 C.3       6 GLP5        0.0000 
    103 CA         60.5175   89.3775   -0.5025 C.3       3 GLC5        0.0000 
    104 CA         60.8020   88.7810    1.5270 C.3       9 GLL5        0.0000 
    105 CA         59.7880   89.3590   -2.4550 C.3       6 GLP5        0.0000 
    106 CA         63.7437   88.9415    2.0448 C.3       3 GLC5        0.0000 
    107 CA         61.6920   90.0110    1.3730 C.3       9 GLL5        0.0000 
    108 CA         65.3720   87.7820    2.0820 C.3       6 GLP5        0.0000 
    109 CA         61.4705   91.8458    5.5200 C.3       3 GLC5        0.0000 
    110 CA         61.6630   90.2010    3.9210 C.3       9 GLL5        0.0000 
    111 CA         60.8130   93.4880    6.5050 C.3       6 GLP5        0.0000 
@<TRIPOS>BOND
@<TRIPOS>SUBSTRUCTURE
     1 ALC1       30 GROUP        1 X    ALC  0     ROOT ALC X 1
     2 ASC3       52 GROUP        1 X    ASC  0     **** ASC X 3
     3 GLC5        1 GROUP        1 X    GLC  0     **** GLC X 6
     4 ALP1       32 GROUP        1 Y    ALP  0     ROOT ALP Y 8
     5 ASP3       54 GROUP        1 Y    ASP  0     **** ASP Y 10
     6 GLP5        3 GROUP        1 Y    GLP  0     **** GLP Y 13
     7 ALL1       31 GROUP        1 Z    ALL  0     ROOT ALL Z 15
     8 ASL3       53 GROUP        1 Z    ASL  0     **** ASL Z 17
     9 GLL5        2 GROUP        1 Z    GLL  0     **** GLL Z 20
@<TRIPOS>SET

