#    Name: 4l02_1V2_3_ligand
#    Modification time : Tue Mar 25 09:22:39 2014

@<TRIPOS>MOLECULE
4l02_1V2_3_ligand
   57    60     1     0     0
SMALL
NO_CHARGES


@<TRIPOS>ATOM
      1 C13        56.9140   91.9240   12.0220 C.ar      1 1V2401      0.0000 
      2 C14        57.2530   93.2250   12.3820 C.ar      1 1V2401      0.0000 
      3 CL1        58.5500   94.0400   11.5850 Cl        1 1V2401      0.0000 
      4 C15        56.5500   93.8830   13.3860 C.ar      1 1V2401      0.0000 
      5 CL2        57.0000   95.4990   13.8050 Cl        1 1V2401      0.0000 
      6 C16        55.4990   93.2450   14.0420 C.ar      1 1V2401      0.0000 
      7 C17        55.1600   91.9430   13.6810 C.ar      1 1V2401      0.0000 
      8 C12        55.8650   91.2800   12.6720 C.ar      1 1V2401      0.0000 
      9 C11        55.5220   89.9780   12.3140 C.2       1 1V2401      0.0000 
     10 N3         55.9160   89.4040   11.1500 N.2       1 1V2401      0.0000 
     11 C10        54.7680   89.1830   13.0950 C.2       1 1V2401      0.0000 
     12 S1         54.5840   87.7080   12.3000 S.3       1 1V2401      0.0000 
     13 C9         55.4960   88.1460   10.9710 C.2       1 1V2401      0.0000 
     14 N1         55.7220   87.3320    9.9330 N.pl3     1 1V2401      0.0000 
     15 C1         56.4650   87.5620    8.8380 C.ar      1 1V2401      0.0000 
     16 C3         57.1420   86.4690    8.2920 C.ar      1 1V2401      0.0000 
     17 C5         57.9160   86.6210    7.1460 C.ar      1 1V2401      0.0000 
     18 C2         56.5600   88.8110    8.2130 C.ar      1 1V2401      0.0000 
     19 C4         57.3420   88.9580    7.0650 C.ar      1 1V2401      0.0000 
     20 C6         58.0260   87.8640    6.5280 C.ar      1 1V2401      0.0000 
     21 C7         58.8930   87.9520    5.2570 C.3       1 1V2401      0.0000 
     22 C8         59.7820   89.1970    5.1320 C.3       1 1V2401      0.0000 
     23 N2         60.7050   89.0560    3.9800 N.4       1 1V2401      0.0000 
     24 C22        59.8950   88.9580    2.7460 C.3       1 1V2401      0.0000 
     25 C21        60.8020   88.7810    1.5270 C.3       1 1V2401      0.0000 
     26 C20        61.6920   90.0110    1.3730 C.3       1 1V2401      0.0000 
     27 O2         62.5450   89.8370    0.2370 O.3       1 1V2401      0.0000 
     28 C19        62.5390   90.1910    2.6420 C.3       1 1V2401      0.0000 
     29 C18        61.6630   90.2010    3.9210 C.3       1 1V2401      0.0000 
     30 C23        62.5930   90.2060    5.1490 C.3       1 1V2401      0.0000 
     31 O1         63.4090   89.0320    5.1770 O.3       1 1V2401      0.0000 
     32 H          57.4346   91.4420   11.2813 H         1 1V2401      0.0000 
     33 H          54.9822   93.7277   14.7805 H         1 1V2401      0.0000 
     34 H          54.3843   91.4631   14.1598 H         1 1V2401      0.0000 
     35 H          54.3554   89.2437   13.9038 H         1 1V2401      0.0000 
     36 H          55.2356   86.3432    9.9814 H         1 1V2401      0.0000 
     37 H          57.0661   85.5458    8.7424 H         1 1V2401      0.0000 
     38 H          58.4119   85.8078    6.7510 H         1 1V2401      0.0000 
     39 H          56.0557   89.6160    8.5985 H         1 1V2401      0.0000 
     40 H          57.4153   89.8790    6.6108 H         1 1V2401      0.0000 
     41 H          58.2256   87.9009    4.3720 H         1 1V2401      0.0000 
     42 H          59.5360   87.0491    5.2069 H         1 1V2401      0.0000 
     43 H          60.3437   89.3141    6.0597 H         1 1V2401      0.0000 
     44 H          59.1387   90.0683    5.0019 H         1 1V2401      0.0000 
     45 H          61.2678   88.1304    4.1023 H         1 1V2401      0.0000 
     46 H          59.2998   89.8629    2.6062 H         1 1V2401      0.0000 
     47 H          59.2171   88.1035    2.8002 H         1 1V2401      0.0000 
     48 H          60.1916   88.6639    0.6402 H         1 1V2401      0.0000 
     49 H          61.4206   87.9029    1.6651 H         1 1V2401      0.0000 
     50 H          61.0612   90.8735    1.2652 H         1 1V2401      0.0000 
     51 H          63.0825   91.1332    2.5820 H         1 1V2401      0.0000 
     52 H          63.2568   89.3748    2.7152 H         1 1V2401      0.0000 
     53 H          61.1134   91.1431    3.9310 H         1 1V2401      0.0000 
     54 H          61.9564   90.2820    6.0425 H         1 1V2401      0.0000 
     55 H          63.1983   91.1227    5.0985 H         1 1V2401      0.0000 
     56 H          62.5579   90.7285   -0.2158 H         1 1V2401      0.0000 
     57 H          62.8584   88.3455    5.6519 H         1 1V2401      0.0000 
@<TRIPOS>BOND
     1    2    1 ar   
     2    8    1 ar   
     3   32    1 1    
     4    3    2 1    
     5    4    2 ar   
     6    5    4 1    
     7    6    4 ar   
     8    7    6 ar   
     9   33    6 1    
    10    8    7 ar   
    11   34    7 1    
    12    9    8 1    
    13   10    9 1    
    14   11    9 2    
    15   13   10 2    
    16   12   11 1    
    17   35   11 1    
    18   13   12 1    
    19   14   13 1    
    20   15   14 1    
    21   36   14 1    
    22   16   15 ar   
    23   18   15 ar   
    24   17   16 ar   
    25   37   16 1    
    26   20   17 ar   
    27   38   17 1    
    28   19   18 ar   
    29   39   18 1    
    30   20   19 ar   
    31   40   19 1    
    32   21   20 1    
    33   22   21 1    
    34   41   21 1    
    35   42   21 1    
    36   23   22 1    
    37   43   22 1    
    38   44   22 1    
    39   24   23 1    
    40   29   23 1    
    41   45   23 1    
    42   25   24 1    
    43   46   24 1    
    44   47   24 1    
    45   26   25 1    
    46   48   25 1    
    47   49   25 1    
    48   27   26 1    
    49   28   26 1    
    50   50   26 1    
    51   56   27 1    
    52   29   28 1    
    53   51   28 1    
    54   52   28 1    
    55   30   29 1    
    56   53   29 1    
    57   31   30 1    
    58   54   30 1    
    59   55   30 1    
    60   57   31 1    
@<TRIPOS>SUBSTRUCTURE
     1 1V2401      1 GROUP   
@<TRIPOS>SET

