#    Name: 2o65_MYF_2_INTS_M
#    Modification time : Tue Mar 25 22:01:04 2014

@<TRIPOS>MOLECULE
2o65_MYF_2_INTS_M
   50     0     9     0     0
SMALL
NO_CHARGES


@<TRIPOS>ATOM
      1 CA         77.6305   35.3165   -0.6675 C.3       3 GLC5        0.0000 
      2 CA         75.7840   34.3130   -1.2840 C.3       9 GLL5        0.0000 
      3 CA         79.4770   36.3200   -0.0510 C.3       6 GLP5        0.0000 
      4 CA         77.0370   33.7790   -3.9755 C.3       3 GLC5        0.0000 
      5 CA         75.9250   33.2870   -2.3650 C.3       9 GLL5        0.0000 
      6 CA         78.1490   34.2710   -5.5860 C.3       6 GLP5        0.0000 
      7 CA         75.4605   30.0490   -2.0840 C.3       3 GLC5        0.0000 
      8 CA         76.3860   32.0010   -2.0430 C.3       9 GLL5        0.0000 
      9 CA         74.5350   28.0970   -2.1250 C.3       6 GLP5        0.0000 
     10 CA         75.6720   29.8005   -0.6605 C.3       3 GLC5        0.0000 
     11 CA         76.7080   31.6640   -0.7210 C.3       9 GLL5        0.0000 
     12 CA         74.6360   27.9370   -0.6000 C.3       6 GLP5        0.0000 
     13 N          77.9945   29.7035   -1.4250 N.am      2 SEC2        0.0000 
     14 N          77.1320   30.4420   -0.4210 N.am      8 SEL2        0.0000 
     15 N          78.8570   28.9650   -2.4290 N.am      5 SEP2        0.0000 
     16 CA         76.5365   37.5655   -1.7615 C.3       3 GLC5        0.0000 
     17 CA         75.2280   36.6180   -0.3290 C.3       9 GLL5        0.0000 
     18 CA         77.8450   38.5130   -3.1940 C.3       6 GLP5        0.0000 
     19 CA         73.2540   36.4105   -0.5205 C.3       3 GLC5        0.0000 
     20 CA         71.2800   36.2030   -0.7120 C.3       6 GLP5        0.0000 
     21 CA         77.1515   38.1500    2.7590 C.3       3 GLC5        0.0000 
     22 CA         75.4620   37.0190    2.0780 C.3       9 GLL5        0.0000 
     23 CA         78.8410   39.2810    3.4400 C.3       6 GLP5        0.0000 
     24 CA         76.9275   39.4045    1.5695 C.3       3 GLC5        0.0000 
     25 CA         75.2920   38.3970    1.9260 C.3       9 GLL5        0.0000 
     26 CA         78.5630   40.4120    1.2130 C.3       6 GLP5        0.0000 
     27 O          73.7655   38.2005    6.1105 O.2       1 ALC1        0.0000 
     28 O          74.8330   39.3720    5.4760 O.2       7 ALL1        0.0000 
     29 O          72.6980   37.0290    6.7450 O.2       4 ALP1        0.0000 
     30 O          73.8945   36.7515    6.2245 O.2       1 ALC1        0.0000 
     31 O          75.0910   36.4740    5.7040 O.2       7 ALL1        0.0000 
     32 CA         74.0222   33.5575   -1.9652 C.3       3 GLC5        0.0000 
     33 CA         72.1900   33.3150   -2.1060 C.3       6 GLP5        0.0000 
     34 CA         78.2075   30.9078   -1.6950 C.3       3 GLC5        0.0000 
     35 CA         79.8680   29.9830   -2.0080 C.3       6 GLP5        0.0000 
     36 CA         74.5110   31.8678   -1.4740 C.3       3 GLC5        0.0000 
     37 CA         72.4750   31.9030   -1.5660 C.3       6 GLP5        0.0000 
     38 CA         78.1370   33.4724    0.2390 C.3       3 GLC5        0.0000 
     39 CA         79.8760   33.9330    0.5300 C.3       6 GLP5        0.0000 
     40 CA         74.5312   32.9650    0.5453 C.3       3 GLC5        0.0000 
     41 CA         76.5820   32.5810    0.3250 C.3       9 GLL5        0.0000 
     42 CA         72.6960   32.6890    0.8810 C.3       6 GLP5        0.0000 
     43 CA         77.4472   36.3568    0.1125 C.3       3 GLC5        0.0000 
     44 CA         75.6070   36.1690    0.8810 C.3       9 GLL5        0.0000 
     45 CA         73.2325   39.5810    2.4005 C.3       3 GLC5        0.0000 
     46 CA         71.2730   40.3570    2.3190 C.3       6 GLP5        0.0000 
     47 CA         76.9772   38.6423    3.7790 C.3       3 GLC5        0.0000 
     48 CA         75.0920   39.2130    3.0380 C.3       9 GLL5        0.0000 
     49 CA         73.3163   36.7854    2.1329 C.3       3 GLC5        0.0000 
     50 CA         71.2390   36.6360    1.7510 C.3       6 GLP5        0.0000 
@<TRIPOS>BOND
@<TRIPOS>SUBSTRUCTURE
     1 ALC1       27 GROUP        1 X    ALC  0     ROOT ALC X 1
     2 SEC2       13 GROUP        1 X    SEC  0     **** SEC X 2
     3 GLC5        1 GROUP        1 X    GLC  0     **** GLC X 6
     4 ALP1       29 GROUP        1 Y    ALP  0     ROOT ALP Y 8
     5 SEP2       15 GROUP        1 Y    SEP  0     **** SEP Y 9
     6 GLP5        3 GROUP        1 Y    GLP  0     **** GLP Y 13
     7 ALL1       28 GROUP        1 Z    ALL  0     ROOT ALL Z 15
     8 SEL2       14 GROUP        1 Z    SEL  0     **** SEL Z 16
     9 GLL5        2 GROUP        1 Z    GLL  0     **** GLL Z 20
@<TRIPOS>SET

