#    Name: 2o65_MYF_2_ligand
#    Modification time : Tue Mar 25 22:01:04 2014

@<TRIPOS>MOLECULE
2o65_MYF_2_ligand
   32    34     1     0     0
SMALL
NO_CHARGES


@<TRIPOS>ATOM
      1 O22        75.0050   36.1570   -2.5710 O.2       1 MYF501      0.0000 
      2 C7         75.3120   35.7230   -1.4820 C.2       1 MYF501      0.0000 
      3 C6         75.7840   34.3130   -1.2840 C.ar      1 MYF501      0.0000 
      4 C1         75.9250   33.2870   -2.3650 C.ar      1 MYF501      0.0000 
      5 O21        75.6350   33.5700   -3.6340 O.3       1 MYF501      0.0000 
      6 C2         76.3860   32.0010   -2.0430 C.ar      1 MYF501      0.0000 
      7 C3         76.7080   31.6640   -0.7210 C.ar      1 MYF501      0.0000 
      8 O20        77.1320   30.4420   -0.4210 O.3       1 MYF501      0.0000 
      9 C5         76.1510   33.9010    0.0940 C.ar      1 MYF501      0.0000 
     10 C4         76.5820   32.5810    0.3250 C.ar      1 MYF501      0.0000 
     11 O10        76.0520   34.8120    1.1300 O.3       1 MYF501      0.0000 
     12 C9         75.6070   36.1690    0.8810 C.2       1 MYF501      0.0000 
     13 C8         75.2280   36.6180   -0.3290 C.2       1 MYF501      0.0000 
     14 C11        75.4620   37.0190    2.0780 C.ar      1 MYF501      0.0000 
     15 C12        75.2920   38.3970    1.9260 C.ar      1 MYF501      0.0000 
     16 C13        75.0920   39.2130    3.0380 C.ar      1 MYF501      0.0000 
     17 O19        74.9690   40.5250    2.8320 O.3       1 MYF501      0.0000 
     18 C14        75.0260   38.5970    4.4060 C.ar      1 MYF501      0.0000 
     19 O18        74.8330   39.3720    5.4760 O.3       1 MYF501      0.0000 
     20 C15        75.1680   37.1020    4.5140 C.ar      1 MYF501      0.0000 
     21 C16        75.3740   36.3740    3.3270 C.ar      1 MYF501      0.0000 
     22 O17        75.0910   36.4740    5.7040 O.3       1 MYF501      0.0000 
     23 H          76.4887   31.2969   -2.7876 H         1 MYF501      0.0000 
     24 H          76.8088   32.2888    1.2906 H         1 MYF501      0.0000 
     25 H          74.8790   37.5621   -0.4951 H         1 MYF501      0.0000 
     26 H          75.3149   38.8125    0.9832 H         1 MYF501      0.0000 
     27 H          75.4624   35.3468    3.3725 H         1 MYF501      0.0000 
     28 H          75.3153   34.5174   -3.6212 H         1 MYF501      0.0000 
     29 H          77.8677   30.5791    0.2423 H         1 MYF501      0.0000 
     30 H          75.8719   40.9043    3.0340 H         1 MYF501      0.0000 
     31 H          74.1922   38.8637    6.0514 H         1 MYF501      0.0000 
     32 H          74.1927   36.7195    6.0684 H         1 MYF501      0.0000 
@<TRIPOS>BOND
     1    2    1 2    
     2    3    2 1    
     3   13    2 1    
     4    4    3 ar   
     5    9    3 ar   
     6    5    4 1    
     7    6    4 ar   
     8   28    5 1    
     9    7    6 ar   
    10   23    6 1    
    11    8    7 1    
    12   10    7 ar   
    13   29    8 1    
    14   10    9 ar   
    15   11    9 1    
    16   24   10 1    
    17   12   11 1    
    18   13   12 2    
    19   14   12 1    
    20   25   13 1    
    21   15   14 ar   
    22   21   14 ar   
    23   16   15 ar   
    24   26   15 1    
    25   17   16 1    
    26   18   16 ar   
    27   30   17 1    
    28   19   18 1    
    29   20   18 ar   
    30   31   19 1    
    31   21   20 ar   
    32   22   20 1    
    33   27   21 1    
    34   32   22 1    
@<TRIPOS>SUBSTRUCTURE
     1 MYF501      1 GROUP   
@<TRIPOS>SET

