#    Name: 4idt_T28_2_INTS_M
#    Modification time : Tue Mar 25 03:51:50 2014

@<TRIPOS>MOLECULE
4idt_T28_2_INTS_M
   66     0     9     0     0
SMALL
NO_CHARGES


@<TRIPOS>ATOM
      1 CA         79.1380   51.0845  137.1500 C.3       3 GLC5        0.0000 
      2 CA         77.7460   50.1700  138.1610 C.3       9 GLL5        0.0000 
      3 CA         80.5300   51.9990  136.1390 C.3       6 GLP5        0.0000 
      4 CA         78.6580   49.1430  139.4095 C.3       3 GLC5        0.0000 
      5 CA         79.5700   48.1160  140.6580 C.3       6 GLP5        0.0000 
      6 CA         75.7655   46.6175  138.6535 C.3       3 GLC5        0.0000 
      7 CA         76.8000   47.6490  137.1250 C.3       9 GLL5        0.0000 
      8 CA         74.7310   45.5860  140.1820 C.3       6 GLP5        0.0000 
      9 CA         76.5175   46.4205  133.4045 C.3       3 GLC5        0.0000 
     10 CA         75.5100   47.4250  135.0990 C.3       9 GLL5        0.0000 
     11 CA         77.5250   45.4160  131.7100 C.3       6 GLP5        0.0000 
     12 CA         75.7280   51.2115  136.7495 C.3       3 GLC5        0.0000 
     13 CA         76.2250   49.6070  135.8360 C.3       9 GLL5        0.0000 
     14 CA         75.2310   52.8160  137.6630 C.3       6 GLP5        0.0000 
     15 CA         75.5850   45.0285  138.6730 C.3       3 GLC5        0.0000 
     16 CA         76.4390   44.4710  137.1640 C.3       9 GLL5        0.0000 
     17 CA         78.9060   43.2880  137.8360 C.3       3 GLC5        0.0000 
     18 CA         77.6970   44.2590  139.1700 C.3       9 GLL5        0.0000 
     19 CA         80.1150   42.3170  136.5020 C.3       6 GLP5        0.0000 
     20 CA         79.7435   44.2135  139.3960 C.3       3 GLC5        0.0000 
     21 CA         81.7900   44.1680  139.6220 C.3       6 GLP5        0.0000 
     22 CA         76.7710   43.7905  141.1580 C.3       3 GLC5        0.0000 
     23 CA         75.8450   43.3220  143.1460 C.3       6 GLP5        0.0000 
     24 CA         76.2140   44.9225  139.6760 C.3       3 GLC5        0.0000 
     25 O          78.8080   44.4140  141.4800 O.2       1 ALC1        0.0000 
     26 O          78.4220   44.8610  140.1410 O.2       7 ALL1        0.0000 
     27 O          79.1940   43.9670  142.8190 O.2       4 ALP1        0.0000 
     28 N          77.4925   41.9220  140.4490 N.am      2 SEC2        0.0000 
     29 N          77.4960   42.9290  139.2010 N.am      8 SEL2        0.0000 
     30 N          77.4890   40.9150  141.6970 N.am      5 SEP2        0.0000 
     31 CA         78.3525   41.1800  138.7820 C.3       3 GLC5        0.0000 
     32 CA         76.7800   42.3460  138.2340 C.3       9 GLL5        0.0000 
     33 CA         79.9250   40.0140  139.3300 C.3       6 GLP5        0.0000 
     34 CA         76.4980   41.2875  140.0785 C.3       3 GLC5        0.0000 
     35 CA         76.2160   40.2290  141.9230 C.3       6 GLP5        0.0000 
     36 CA         75.7555   43.9660  139.2080 C.3       3 GLC5        0.0000 
     37 CA         74.8555   43.9860  138.4270 C.3       3 GLC5        0.0000 
     38 CA         76.2220   43.0900  137.1900 C.3       9 GLL5        0.0000 
     39 CA         73.4890   44.8820  139.6640 C.3       6 GLP5        0.0000 
     40 CA         77.1020   41.4515  135.6770 C.3       3 GLC5        0.0000 
     41 CA         75.4390   42.3040  136.1530 C.3       9 GLL5        0.0000 
     42 CA         78.7650   40.5990  135.2010 C.3       6 GLP5        0.0000 
     43 CA         73.5225   44.3980  137.1160 C.3       3 GLC5        0.0000 
     44 CA         74.2450   43.0770  135.6260 C.3       9 GLL5        0.0000 
     45 CA         72.8000   45.7190  138.6060 C.3       6 GLP5        0.0000 
     46 CA         78.5445   48.9545  136.2152 C.3       3 GLC5        0.0000 
     47 CA         76.8500   49.0340  136.9380 C.3       9 GLL5        0.0000 
     48 CA         79.7910   48.3070  134.8810 C.3       6 GLP5        0.0000 
     49 CA         75.5150   49.3205  138.2618 C.3       3 GLC5        0.0000 
     50 CA         73.7320   49.0390  138.9740 C.3       6 GLP5        0.0000 
     51 CA         76.2645   51.2090  137.6062 C.3       3 GLC5        0.0000 
     52 CA         78.1275   47.7775  135.7713 C.3       3 GLC5        0.0000 
     53 CA         75.0980   48.1435  137.8177 C.3       3 GLC5        0.0000 
     54 CA         76.5513   50.5252  134.2283 C.3       3 GLC5        0.0000 
     55 CA         75.5620   48.8060  134.9190 C.3       9 GLL5        0.0000 
     56 CA         77.2090   51.8440  133.0790 C.3       6 GLP5        0.0000 
     57 CA         74.8127   49.1227  137.1757 C.3       3 GLC5        0.0000 
     58 CA         77.8357   48.5841  135.1517 C.3       3 GLC5        0.0000 
     59 CA         76.2260   44.9990  133.2103 C.3       3 GLC5        0.0000 
     60 CA         75.1790   45.2390  134.9790 C.3       9 GLL5        0.0000 
     61 CA         74.2019   45.7073  137.0902 C.3       3 GLC5        0.0000 
     62 CA         78.3351   42.6901  137.1037 C.3       3 GLC5        0.0000 
     63 CA         73.4620   41.3068  136.2777 C.3       3 GLC5        0.0000 
     64 CA         72.0820   39.9230  136.6660 C.3       6 GLP5        0.0000 
     65 CA         72.5090   43.9035  135.2400 C.3       3 GLC5        0.0000 
     66 CA         70.5580   44.3060  135.4460 C.3       6 GLP5        0.0000 
@<TRIPOS>BOND
@<TRIPOS>SUBSTRUCTURE
     1 ALC1       25 GROUP        1 X    ALC  0     ROOT ALC X 1
     2 SEC2       28 GROUP        1 X    SEC  0     **** SEC X 2
     3 GLC5        1 GROUP        1 X    GLC  0     **** GLC X 6
     4 ALP1       27 GROUP        1 Y    ALP  0     ROOT ALP Y 8
     5 SEP2       30 GROUP        1 Y    SEP  0     **** SEP Y 9
     6 GLP5        3 GROUP        1 Y    GLP  0     **** GLP Y 13
     7 ALL1       26 GROUP        1 Z    ALL  0     ROOT ALL Z 15
     8 SEL2       29 GROUP        1 Z    SEL  0     **** SEL Z 16
     9 GLL5        2 GROUP        1 Z    GLL  0     **** GLL Z 20
@<TRIPOS>SET

