#    Name: 4idt_T28_2_ligand
#    Modification time : Tue Mar 25 03:51:50 2014

@<TRIPOS>MOLECULE
4idt_T28_2_ligand
   33    36     1     0     0
SMALL
NO_CHARGES


@<TRIPOS>ATOM
      1 BR1        77.7460   50.1700  138.1610 Br        1 T28701      0.0000 
      2 C12        76.8500   49.0340  136.9380 C.ar      1 T28701      0.0000 
      3 C6         76.8000   47.6490  137.1250 C.ar      1 T28701      0.0000 
      4 C2         76.1280   46.8470  136.1980 C.ar      1 T28701      0.0000 
      5 C5         75.5100   47.4250  135.0990 C.ar      1 T28701      0.0000 
      6 C11        75.5620   48.8060  134.9190 C.ar      1 T28701      0.0000 
      7 C17        76.2250   49.6070  135.8360 C.ar      1 T28701      0.0000 
      8 C1         75.9290   45.4570  136.1420 C.2       1 T28701      0.0000 
      9 C4         75.1790   45.2390  134.9790 C.2       1 T28701      0.0000 
     10 N9         74.9410   46.4320  134.3810 N.pl3     1 T28701      0.0000 
     11 C3         76.4390   44.4710  137.1640 C.ar      1 T28701      0.0000 
     12 N8         77.1730   45.0010  138.1700 N.ar      1 T28701      0.0000 
     13 C15        77.6970   44.2590  139.1700 C.ar      1 T28701      0.0000 
     14 N20        78.4220   44.8610  140.1410 N.pl3     1 T28701      0.0000 
     15 N19        77.4960   42.9290  139.2010 N.ar      1 T28701      0.0000 
     16 C13        76.7800   42.3460  138.2340 C.ar      1 T28701      0.0000 
     17 C7         76.2220   43.0900  137.1900 C.ar      1 T28701      0.0000 
     18 C14        75.4390   42.3040  136.1530 C.3       1 T28701      0.0000 
     19 C16        74.2450   43.0770  135.6260 C.3       1 T28701      0.0000 
     20 C10        74.6750   43.9250  134.4420 C.3       1 T28701      0.0000 
     21 H          77.2543   47.2239  137.9386 H         1 T28701      0.0000 
     22 H          75.1043   49.2309  134.0990 H         1 T28701      0.0000 
     23 H          76.2556   50.6273  135.7025 H         1 T28701      0.0000 
     24 H          74.4359   46.5524  133.5582 H         1 T28701      0.0000 
     25 H          78.5757   45.8429  140.0306 H         1 T28701      0.0000 
     26 H          78.7398   44.2706  140.8829 H         1 T28701      0.0000 
     27 H          76.6186   41.3122  138.2347 H         1 T28701      0.0000 
     28 H          75.0919   41.3641  136.6003 H         1 T28701      0.0000 
     29 H          76.1027   42.0505  135.3169 H         1 T28701      0.0000 
     30 H          73.8555   43.7200  136.4084 H         1 T28701      0.0000 
     31 H          73.4734   42.3820  135.3113 H         1 T28701      0.0000 
     32 H          75.4638   43.4198  133.9061 H         1 T28701      0.0000 
     33 H          73.8284   44.0928  133.7942 H         1 T28701      0.0000 
@<TRIPOS>BOND
     1    2    1 1    
     2    3    2 ar   
     3    7    2 ar   
     4    4    3 ar   
     5   21    3 1    
     6    5    4 ar   
     7    8    4 1    
     8    6    5 ar   
     9   10    5 1    
    10    7    6 ar   
    11   22    6 1    
    12   23    7 1    
    13    9    8 2    
    14   11    8 1    
    15   10    9 1    
    16   20    9 1    
    17   24   10 1    
    18   12   11 ar   
    19   17   11 ar   
    20   13   12 ar   
    21   14   13 1    
    22   15   13 ar   
    23   25   14 1    
    24   26   14 1    
    25   16   15 ar   
    26   17   16 ar   
    27   27   16 1    
    28   18   17 1    
    29   19   18 1    
    30   28   18 1    
    31   29   18 1    
    32   20   19 1    
    33   30   19 1    
    34   31   19 1    
    35   32   20 1    
    36   33   20 1    
@<TRIPOS>SUBSTRUCTURE
     1 T28701      1 GROUP   
@<TRIPOS>SET

