#    Name: 3zht_TD9_2_INTS_M
#    Modification time : Tue Mar 25 03:10:26 2014

@<TRIPOS>MOLECULE
3zht_TD9_2_INTS_M
   96     0    15     0     0
SMALL
NO_CHARGES


@<TRIPOS>ATOM
      1 CA          7.0250  -16.5225  -37.5635 C.3       5 GLC5        0.0000 
      2 CA          8.5100  -17.1290  -39.0510 C.3      15 GLL5        0.0000 
      3 CA          5.5400  -15.9160  -36.0760 C.3      10 GLP5        0.0000 
      4 CA         10.2540  -16.7585  -37.8810 C.3       5 GLC5        0.0000 
      5 CA         11.9980  -16.3880  -36.7110 C.3      10 GLP5        0.0000 
      6 N          10.6870  -15.6505  -38.9630 N.am      2 SEC2        0.0000 
      7 N           9.6260  -15.2460  -39.9070 N.am     12 SEL2        0.0000 
      8 N          11.7480  -16.0550  -38.0190 N.am      7 SEP2        0.0000 
      9 N           5.1850   -9.7140  -38.6795 N.am      2 SEC2        0.0000 
     10 N           5.9430  -10.3930  -39.5470 N.am     12 SEL2        0.0000 
     11 N           4.4270   -9.0350  -37.8120 N.am      7 SEP2        0.0000 
     12 CA          7.3295  -19.9340  -40.4685 C.3       5 GLC5        0.0000 
     13 CA          8.4400  -18.6360  -39.2560 C.3      15 GLL5        0.0000 
     14 CA          6.2190  -21.2320  -41.6810 C.3      10 GLP5        0.0000 
     15 N           9.2980  -22.3500  -38.3990 N.am      2 SEC2        0.0000 
     16 N          10.6060  -21.3760  -38.5620 N.am     12 SEL2        0.0000 
     17 N           7.9900  -23.3240  -38.2360 N.am      7 SEP2        0.0000 
     18 CA         10.9075  -17.8395  -38.0095 C.3       5 GLC5        0.0000 
     19 CA          9.8170  -19.2910  -39.3080 C.3      15 GLL5        0.0000 
     20 N           8.5550  -22.3595  -39.2345 N.am      2 SEC2        0.0000 
     21 N           9.1200  -21.3950  -40.2330 N.am     12 SEL2        0.0000 
     22 N           2.6865  -12.7885  -46.8910 N.am      2 SEC2        0.0000 
     23 N           3.6400  -13.9530  -47.1240 N.am     12 SEL2        0.0000 
     24 N           1.7330  -11.6240  -46.6580 N.am      7 SEP2        0.0000 
     25 Zn          2.5340  -18.1245  -48.1150 Zn        4 ZIC7        0.0000 
     26 Zn          3.3850  -18.5530  -47.6020 Zn       14 ZIL7        0.0000 
     27 Zn          1.6830  -17.6960  -48.6280 Zn        9 ZIP7        0.0000 
     28 N           3.3530  -19.5160  -48.8540 N.am      2 SEC2        0.0000 
     29 N           3.3850  -18.5530  -47.6020 N.am     12 SEL2        0.0000 
     30 N           3.3210  -20.4790  -50.1060 N.am      7 SEP2        0.0000 
     31 CA          7.3625   -9.7250  -38.2565 C.3       5 GLC5        0.0000 
     32 CA          6.8780   -9.9930  -40.4160 C.3      15 GLL5        0.0000 
     33 CA          7.8470   -9.4570  -36.0970 C.3      10 GLP5        0.0000 
     34 CA          8.2395   -9.3620  -39.2775 C.3       5 GLC5        0.0000 
     35 CA          6.9080   -8.5380  -40.7710 C.3      15 GLL5        0.0000 
     36 CA          9.5710  -10.1860  -37.7840 C.3      10 GLP5        0.0000 
     37 Zn          1.8510  -16.8385  -48.0440 Zn        4 ZIC7        0.0000 
     38 Zn          2.0190  -15.9810  -47.4600 Zn       14 ZIL7        0.0000 
     39 N           1.0985  -14.8150  -47.7055 N.am      2 SEC2        0.0000 
     40 N           2.0190  -15.9810  -47.4600 N.am     12 SEL2        0.0000 
     41 N           0.1780  -13.6490  -47.9510 N.am      7 SEP2        0.0000 
     42 NZ          6.1610  -19.2585  -49.0225 N.4       3 LYC4        0.0000 
     43 NZ          5.4180  -18.0500  -48.8310 N.4      13 LYL4        0.0000 
     44 NZ          6.9470  -21.3010  -48.1840 N.4       8 LYP4        0.0000 
     45 N           6.1610  -19.2585  -49.0225 N.am      2 SEC2        0.0000 
     46 N           5.4180  -18.0500  -48.8310 N.am     12 SEL2        0.0000 
     47 N           6.9040  -20.4670  -49.2140 N.am      7 SEP2        0.0000 
     48 N           4.3695  -19.2645  -49.4685 N.am      2 SEC2        0.0000 
     49 N           4.2610  -17.5405  -49.3910 N.am      2 SEC2        0.0000 
     50 N           3.1040  -17.0310  -49.9510 N.am      7 SEP2        0.0000 
     51 N           8.5280  -10.1810  -42.2110 N.am      2 SEC2        0.0000 
     52 N           7.8080  -10.7710  -40.9760 N.am     12 SEL2        0.0000 
     53 N           9.2480   -9.5910  -43.4460 N.am      7 SEP2        0.0000 
     54 CA          6.1265  -14.9825  -37.6930 C.3       5 GLC5        0.0000 
     55 CA          6.7130  -14.0490  -39.3100 C.3      15 GLL5        0.0000 
     56 CA          8.0355  -13.4390  -38.1535 C.3       5 GLC5        0.0000 
     57 CA          9.3580  -12.8290  -36.9970 C.3      10 GLP5        0.0000 
     58 NZ          5.9835  -19.6750  -46.6340 N.4       3 LYC4        0.0000 
     59 NZ          5.4820  -18.4230  -46.2570 N.4      13 LYL4        0.0000 
     60 N           5.9835  -19.6750  -46.6340 N.am      2 SEC2        0.0000 
     61 N           5.4820  -18.4230  -46.2570 N.am     12 SEL2        0.0000 
     62 N           6.4850  -20.9270  -47.0110 N.am      7 SEP2        0.0000 
     63 CA          9.3270  -10.5080  -41.1995 C.3       5 GLC5        0.0000 
     64 CA          7.8390  -12.0670  -40.6190 C.3      15 GLL5        0.0000 
     65 CA         10.8150   -8.9490  -41.7800 C.3      10 GLP5        0.0000 
     66 O           9.9120  -12.2550  -41.7495 O.2       1 ALC1        0.0000 
     67 O           8.9090  -12.7680  -41.0140 O.2      11 ALL1        0.0000 
     68 O          10.9150  -11.7420  -42.4850 O.2       6 ALP1        0.0000 
     69 CA          2.4655  -13.5320  -39.0995 C.3       5 GLC5        0.0000 
     70 CA          3.9570  -14.3680  -40.5570 C.3      15 GLL5        0.0000 
     71 CA          0.9740  -12.6960  -37.6420 C.3      10 GLP5        0.0000 
     72 CA          2.1630  -17.0520  -43.8125 C.3       5 GLC5        0.0000 
     73 CA          4.0630  -16.3120  -43.0840 C.3      15 GLL5        0.0000 
     74 CA          0.2630  -17.7920  -44.5410 C.3      10 GLP5        0.0000 
     75 CA          3.2835  -17.9040  -41.9840 C.3       5 GLC5        0.0000 
     76 CA          2.5040  -19.4960  -40.8840 C.3      10 GLP5        0.0000 
     77 CA          4.6525  -11.1435  -40.6785 C.3       5 GLC5        0.0000 
     78 CA          5.9510  -11.6970  -39.2380 C.3      15 GLL5        0.0000 
     79 CA          3.3540  -10.5900  -42.1190 C.3      10 GLP5        0.0000 
     80 CA          6.8990  -10.5770  -37.6675 C.3       5 GLC5        0.0000 
     81 CA          6.1480  -14.4870  -43.0563 C.3       5 GLC5        0.0000 
     82 CA          5.2160  -15.9400  -42.1760 C.3      15 GLL5        0.0000 
     83 CA          6.3340  -12.6820  -43.8450 C.3      10 GLP5        0.0000 
     84 CA          5.4515  -13.6955  -42.3305 C.3       5 GLC5        0.0000 
     85 CA          8.8560  -17.8203  -37.0787 C.3       5 GLC5        0.0000 
     86 CA          9.2370  -17.7580  -35.0040 C.3      10 GLP5        0.0000 
     87 CA          5.1235   -9.9277  -41.3563 C.3       5 GLC5        0.0000 
     88 CA          8.8540   -9.1073  -41.1868 C.3       5 GLC5        0.0000 
     89 CA          7.1435   -9.9333  -42.6423 C.3       5 GLC5        0.0000 
     90 CA          7.3940  -10.6010  -44.6910 C.3      10 GLP5        0.0000 
     91 CA          6.8410  -12.5095  -42.0105 C.3       5 GLC5        0.0000 
     92 CA          3.5889  -13.7773  -42.2156 C.3       5 GLC5        0.0000 
     93 CA          2.6000  -12.6230  -43.3400 C.3      10 GLP5        0.0000 
     94 CA          3.3973  -14.3298  -43.5575 C.3       5 GLC5        0.0000 
     95 CA          5.2642  -14.3592  -43.8100 C.3       5 GLC5        0.0000 
     96 CA          4.3260  -15.7610  -44.4660 C.3      15 GLL5        0.0000 
@<TRIPOS>BOND
@<TRIPOS>SUBSTRUCTURE
     1 ALC1       66 GROUP        1 X    ALC  0     ROOT ALC X 1
     2 SEC2        6 GROUP        1 X    SEC  0     **** SEC X 2
     3 LYC4       42 GROUP        1 X    LYC  0     **** LYC X 4
     4 ZIC7       25 GROUP        1 X    ZIC  0     **** ZIC X 5
     5 GLC5        1 GROUP        1 X    GLC  0     **** GLC X 6
     6 ALP1       68 GROUP        1 Y    ALP  0     ROOT ALP Y 8
     7 SEP2        8 GROUP        1 Y    SEP  0     **** SEP Y 9
     8 LYP4       44 GROUP        1 Y    LYP  0     **** LYP Y 11
     9 ZIP7       27 GROUP        1 Y    ZIP  0     **** ZIP Y 12
    10 GLP5        3 GROUP        1 Y    GLP  0     **** GLP Y 13
    11 ALL1       67 GROUP        1 Z    ALL  0     ROOT ALL Z 15
    12 SEL2        7 GROUP        1 Z    SEL  0     **** SEL Z 16
    13 LYL4       43 GROUP        1 Z    LYL  0     **** LYL Z 18
    14 ZIL7       26 GROUP        1 Z    ZIL  0     **** ZIL Z 19
    15 GLL5        2 GROUP        1 Z    GLL  0     **** GLL Z 20
@<TRIPOS>SET

