#    Name: 3zht_TD9_2_ligand
#    Modification time : Tue Mar 25 03:10:26 2014

@<TRIPOS>MOLECULE
3zht_TD9_2_ligand
   57    58     1     0     0
SMALL
NO_CHARGES


@<TRIPOS>ATOM
      1 S1          6.7080  -16.6440  -42.3590 S.3       1 TD92001     0.0000 
      2 C2          7.3820  -15.8910  -41.0170 C.2       1 TD92001     0.0000 
      3 N3          6.4210  -14.9720  -40.4180 N.2       1 TD92001     0.0000 
      4 C4          5.1810  -15.0500  -41.0750 C.2       1 TD92001     0.0000 
      5 C5          5.2160  -15.9400  -42.1760 C.2       1 TD92001     0.0000 
      6 C8          8.7260  -16.2830  -40.3060 C.3       1 TD92001     0.0000 
      7 C9          8.5100  -17.1290  -39.0510 C.3       1 TD92001     0.0000 
      8 O9          9.6260  -15.2460  -39.9070 O.3       1 TD92001     0.0000 
      9 PA          3.3020  -15.3620  -46.8730 P.3       1 TD92001     0.0000 
     10 PB          4.7640  -17.9240  -47.4630 P.3       1 TD92001     0.0000 
     11 N1'         5.9430  -10.3930  -39.5470 N.ar      1 TD92001     0.0000 
     12 C10         8.4400  -18.6360  -39.2560 C.3       1 TD92001     0.0000 
     13 O11        10.6060  -21.3760  -38.5620 O.co2     1 TD92001     0.0000 
     14 C12         9.8170  -19.2910  -39.3080 C.3       1 TD92001     0.0000 
     15 O12         9.1200  -21.3950  -40.2330 O.co2     1 TD92001     0.0000 
     16 C14         9.8010  -20.7870  -39.4200 C.2       1 TD92001     0.0000 
     17 O1A         3.6400  -13.9530  -47.1240 O.co2     1 TD92001     0.0000 
     18 O1B         3.3850  -18.5530  -47.6020 O.co2     1 TD92001     0.0000 
     19 C2'         6.8780   -9.9930  -40.4160 C.ar      1 TD92001     0.0000 
     20 C2A         6.9080   -8.5380  -40.7710 C.3       1 TD92001     0.0000 
     21 O2A         2.0190  -15.9810  -47.4600 O.co2     1 TD92001     0.0000 
     22 O2B         5.4180  -18.0500  -48.8310 O.co2     1 TD92001     0.0000 
     23 N3'         7.8080  -10.7710  -40.9760 N.ar      1 TD92001     0.0000 
     24 C35         6.7130  -14.0490  -39.3100 C.3       1 TD92001     0.0000 
     25 O3A         4.3060  -16.4550  -47.3210 O.3       1 TD92001     0.0000 
     26 O3B         5.4820  -18.4230  -46.2570 O.co2     1 TD92001     0.0000 
     27 C4'         7.8390  -12.0670  -40.6190 C.ar      1 TD92001     0.0000 
     28 N4'         8.9090  -12.7680  -41.0140 N.pl3     1 TD92001     0.0000 
     29 C4A         3.9570  -14.3680  -40.5570 C.3       1 TD92001     0.0000 
     30 C5'         6.8570  -12.6070  -39.7330 C.ar      1 TD92001     0.0000 
     31 C5A         4.0630  -16.3120  -43.0840 C.3       1 TD92001     0.0000 
     32 C5B         4.3260  -15.7610  -44.4660 C.3       1 TD92001     0.0000 
     33 O5G         3.1770  -15.7980  -45.3400 O.3       1 TD92001     0.0000 
     34 C6'         5.9510  -11.6970  -39.2380 C.ar      1 TD92001     0.0000 
     35 H           9.2699  -16.9736  -41.0137 H         1 TD92001     0.0000 
     36 H           7.5724  -16.7914  -38.5542 H         1 TD92001     0.0000 
     37 H           9.3263  -16.9036  -38.3280 H         1 TD92001     0.0000 
     38 H           7.9076  -18.8476  -40.1929 H         1 TD92001     0.0000 
     39 H           7.8613  -19.0843  -38.4374 H         1 TD92001     0.0000 
     40 H          10.3802  -18.9954  -38.3986 H         1 TD92001     0.0000 
     41 H          10.3764  -18.8630  -40.1656 H         1 TD92001     0.0000 
     42 H           7.6476  -14.3587  -38.7955 H         1 TD92001     0.0000 
     43 H           5.9110  -14.1115  -38.5438 H         1 TD92001     0.0000 
     44 H           9.2150  -13.4906  -40.3941 H         1 TD92001     0.0000 
     45 H           9.3064  -12.5062  -41.8935 H         1 TD92001     0.0000 
     46 H           3.1434  -15.8904  -42.6927 H         1 TD92001     0.0000 
     47 H           3.9748  -17.3920  -43.1331 H         1 TD92001     0.0000 
     48 H           5.1729  -16.3332  -44.9081 H         1 TD92001     0.0000 
     49 H           4.6995  -14.7179  -44.3542 H         1 TD92001     0.0000 
     50 H           5.2100  -12.0696  -38.5631 H         1 TD92001     0.0000 
     51 H           7.0633   -7.9629  -39.9678 H         1 TD92001     0.0000 
     52 H           7.6351   -8.3303  -41.4253 H         1 TD92001     0.0000 
     53 H           6.0478   -8.2387  -41.1839 H         1 TD92001     0.0000 
     54 H           3.7111  -14.6901  -39.6428 H         1 TD92001     0.0000 
     55 H           4.0817  -13.3777  -40.4951 H         1 TD92001     0.0000 
     56 H           3.1653  -14.5275  -41.1467 H         1 TD92001     0.0000 
     57 H          10.4510  -14.6837  -39.8488 H         1 TD92001     0.0000 
@<TRIPOS>BOND
     1    2    1 1    
     2    5    1 1    
     3    3    2 2    
     4    6    2 1    
     5    4    3 1    
     6   24    3 1    
     7    5    4 2    
     8   29    4 1    
     9   31    5 1    
    10    7    6 1    
    11    8    6 1    
    12   35    6 1    
    13   12    7 1    
    14   36    7 1    
    15   37    7 1    
    16   57    8 1    
    17   17    9 ar   
    18   21    9 ar   
    19   25    9 1    
    20   33    9 1    
    21   18   10 ar   
    22   22   10 ar   
    23   25   10 1    
    24   26   10 ar   
    25   19   11 ar   
    26   34   11 ar   
    27   14   12 1    
    28   38   12 1    
    29   39   12 1    
    30   16   13 ar   
    31   16   14 1    
    32   40   14 1    
    33   41   14 1    
    34   16   15 ar   
    35   20   19 1    
    36   23   19 ar   
    37   51   20 1    
    38   52   20 1    
    39   53   20 1    
    40   27   23 ar   
    41   30   24 1    
    42   42   24 1    
    43   43   24 1    
    44   28   27 1    
    45   30   27 ar   
    46   44   28 1    
    47   45   28 1    
    48   54   29 1    
    49   55   29 1    
    50   56   29 1    
    51   34   30 ar   
    52   32   31 1    
    53   46   31 1    
    54   47   31 1    
    55   33   32 1    
    56   48   32 1    
    57   49   32 1    
    58   50   34 1    
@<TRIPOS>SUBSTRUCTURE
     1 TD92001     1 GROUP   
@<TRIPOS>SET

