#    Name: 2xf0_4UB_1_INTS_M
#    Modification time : Tue Mar 25 05:57:45 2014

@<TRIPOS>MOLECULE
2xf0_4UB_1_INTS_M
   39     0     3     0     0
SMALL
NO_CHARGES


@<TRIPOS>ATOM
      1 CA          7.1145   -3.3695    8.3880 C.3       1 GLC5        0.0000 
      2 CA          8.9200   -4.0920    9.3970 C.3       3 GLL5        0.0000 
      3 CA          5.3090   -2.6470    7.3790 C.3       2 GLP5        0.0000 
      4 CA         10.8485   -2.0165    5.3545 C.3       1 GLC5        0.0000 
      5 CA         12.3660   -1.7280    6.6700 C.3       3 GLL5        0.0000 
      6 CA          9.3310   -2.3050    4.0390 C.3       2 GLP5        0.0000 
      7 CA         12.0620   -0.2175    5.0740 C.3       1 GLC5        0.0000 
      8 CA         11.7580    1.2930    3.4780 C.3       2 GLP5        0.0000 
      9 CA         12.5160   -1.2800    8.2235 C.3       1 GLC5        0.0000 
     10 CA         12.6660   -0.8320    9.7770 C.3       2 GLP5        0.0000 
     11 CA         14.5820    0.3670    5.7965 C.3       1 GLC5        0.0000 
     12 CA         14.4470   -1.6510    6.0440 C.3       3 GLL5        0.0000 
     13 CA         14.7170    2.3850    5.5490 C.3       2 GLP5        0.0000 
     14 CA         14.5580   -5.3880    6.1395 C.3       1 GLC5        0.0000 
     15 CA         15.3170   -3.6030    7.2230 C.3       3 GLL5        0.0000 
     16 CA         13.9450   -6.6650    4.6080 C.3       2 GLP5        0.0000 
     17 CA         15.0125   -2.7705    9.2600 C.3       1 GLC5        0.0000 
     18 CA         15.0250   -4.6190    8.1190 C.3       3 GLL5        0.0000 
     19 CA         14.8540   -1.4300   10.8490 C.3       2 GLP5        0.0000 
     20 CA         17.2035   -4.6887   10.1005 C.3       1 GLC5        0.0000 
     21 CA         16.0230   -5.4970    8.5160 C.3       3 GLL5        0.0000 
     22 CA         17.7390   -3.9500   11.9310 C.3       2 GLP5        0.0000 
     23 CA         16.3430   -4.6052    5.0875 C.3       1 GLC5        0.0000 
     24 CA         17.6070   -4.3350    7.1330 C.3       3 GLL5        0.0000 
     25 CA         15.5790   -5.3150    3.2400 C.3       2 GLP5        0.0000 
     26 CA          9.2980   -5.8610    8.2392 C.3       1 GLC5        0.0000 
     27 CA         10.1980   -4.2480    9.0880 C.3       3 GLL5        0.0000 
     28 CA          9.0370   -7.5520    7.2360 C.3       2 GLP5        0.0000 
     29 CA         10.8072   -4.8745    6.7730 C.3       1 GLC5        0.0000 
     30 CA         10.9510   -3.4180    8.2720 C.3       3 GLL5        0.0000 
     31 CA          9.9870   -6.2100    5.3700 C.3       2 GLP5        0.0000 
     32 CA         12.0526   -2.2893    9.0785 C.3       1 GLC5        0.0000 
     33 CA         12.3040   -3.6600    8.0800 C.3       3 GLL5        0.0000 
     34 CA         13.7710   -3.4188    4.8720 C.3       1 GLC5        0.0000 
     35 CA         14.3310   -2.7120    6.8320 C.3       3 GLL5        0.0000 
     36 CA         13.1530   -4.6560    3.3060 C.3       2 GLP5        0.0000 
     37 CA         13.5275   -1.5068    8.1075 C.3       1 GLC5        0.0000 
     38 CA         17.4255   -2.2846    7.6820 C.3       1 GLC5        0.0000 
     39 CA         18.6390   -0.8200    8.2850 C.3       2 GLP5        0.0000 
@<TRIPOS>BOND
@<TRIPOS>SUBSTRUCTURE
     1 GLC5        1 GROUP        1 X    GLC  0     ROOT GLC X 6
     2 GLP5        3 GROUP        1 Y    GLP  0     ROOT GLP Y 13
     3 GLL5        2 GROUP        1 Z    GLL  0     ROOT GLL Z 20
@<TRIPOS>SET

