#    Name: 2xf0_4UB_1_ligand
#    Modification time : Tue Mar 25 05:57:45 2014

@<TRIPOS>MOLECULE
2xf0_4UB_1_ligand
   32    35     1     0     0
SMALL
NO_CHARGES


@<TRIPOS>ATOM
      1 C1         15.0250   -4.6190    8.1190 C.ar      1 4UB1271     0.0000 
      2 C2         16.0230   -5.4970    8.5160 C.ar      1 4UB1271     0.0000 
      3 C3         17.3130   -5.3580    8.0240 C.ar      1 4UB1271     0.0000 
      4 C4         17.6070   -4.3350    7.1330 C.ar      1 4UB1271     0.0000 
      5 C5         16.6070   -3.4560    6.7370 C.ar      1 4UB1271     0.0000 
      6 C8         10.6130   -5.3280    9.7280 C.2       1 4UB1271     0.0000 
      7 N9          9.5710   -5.8050   10.4010 N.2       1 4UB1271     0.0000 
      8 N10         8.5890   -5.0870   10.2100 N.pl3     1 4UB1271     0.0000 
      9 C12         8.9200   -4.0920    9.3970 C.2       1 4UB1271     0.0000 
     10 C13        10.1980   -4.2480    9.0880 C.2       1 4UB1271     0.0000 
     11 C14        10.9510   -3.4180    8.2720 C.2       1 4UB1271     0.0000 
     12 C15        12.3040   -3.6600    8.0800 C.2       1 4UB1271     0.0000 
     13 C17        12.3660   -1.7280    6.6700 C.2       1 4UB1271     0.0000 
     14 N18        13.2580   -1.0610    5.9440 N.pl3     1 4UB1271     0.0000 
     15 C19        14.4470   -1.6510    6.0440 C.2       1 4UB1271     0.0000 
     16 C20        14.3310   -2.7120    6.8320 C.2       1 4UB1271     0.0000 
     17 CAO        15.3170   -3.6030    7.2230 C.ar      1 4UB1271     0.0000 
     18 NAT        13.0160   -2.7930    7.2600 N.pl3     1 4UB1271     0.0000 
     19 C22        11.0140   -1.5390    6.9070 C.2       1 4UB1271     0.0000 
     20 N23        10.3530   -2.3690    7.6920 N.2       1 4UB1271     0.0000 
     21 H          14.0710   -4.7224    8.4891 H         1 4UB1271     0.0000 
     22 H          15.8055   -6.2559    9.1793 H         1 4UB1271     0.0000 
     23 H          18.0502   -6.0117    8.3188 H         1 4UB1271     0.0000 
     24 H          18.5612   -4.2279    6.7673 H         1 4UB1271     0.0000 
     25 H          16.8259   -2.6928    6.0800 H         1 4UB1271     0.0000 
     26 H          11.5034   -5.7025    9.7121 H         1 4UB1271     0.0000 
     27 H           7.6658   -5.1896   10.5819 H         1 4UB1271     0.0000 
     28 H           8.3356   -3.3855    9.0887 H         1 4UB1271     0.0000 
     29 H          12.7624   -4.4495    8.5265 H         1 4UB1271     0.0000 
     30 H          13.0696   -0.2568    5.4151 H         1 4UB1271     0.0000 
     31 H          15.2669   -1.3508    5.6087 H         1 4UB1271     0.0000 
     32 H          10.5431   -0.7282    6.4492 H         1 4UB1271     0.0000 
@<TRIPOS>BOND
     1    2    1 ar   
     2   17    1 ar   
     3   21    1 1    
     4    3    2 ar   
     5   22    2 1    
     6    4    3 ar   
     7   23    3 1    
     8    5    4 ar   
     9   24    4 1    
    10   17    5 ar   
    11   25    5 1    
    12    7    6 2    
    13   10    6 1    
    14   26    6 1    
    15    8    7 1    
    16    9    8 1    
    17   27    8 1    
    18   10    9 2    
    19   28    9 1    
    20   11   10 1    
    21   12   11 2    
    22   20   11 1    
    23   18   12 1    
    24   29   12 1    
    25   14   13 2    
    26   18   13 1    
    27   19   13 1    
    28   15   14 1    
    29   30   14 1    
    30   16   15 2    
    31   31   15 1    
    32   17   16 1    
    33   18   16 1    
    34   20   19 2    
    35   32   19 1    
@<TRIPOS>SUBSTRUCTURE
     1 4UB1271     1 GROUP   
@<TRIPOS>SET

