#    Name: 2qx6_ML1_2_INTS_M
#    Modification time : Mon Mar 24 22:55:36 2014

@<TRIPOS>MOLECULE
2qx6_ML1_2_INTS_M
   17     0     3     0     0
SMALL
NO_CHARGES


@<TRIPOS>ATOM
      1 CA         27.4245   10.6210   15.1335 C.3       1 GLC5        0.0000 
      2 CA         26.6300   12.1580   14.3980 C.3       3 GLL5        0.0000 
      3 CA         28.2190    9.0840   15.8690 C.3       2 GLP5        0.0000 
      4 CA         27.7240   12.2445   12.4925 C.3       1 GLC5        0.0000 
      5 CA         28.8180   12.3310   10.5870 C.3       2 GLP5        0.0000 
      6 CA         26.1675   12.9265   12.6580 C.3       1 GLC5        0.0000 
      7 CA         25.7050   13.6950   10.9180 C.3       2 GLP5        0.0000 
      8 CA         25.0505   11.7605   15.5440 C.3       1 GLC5        0.0000 
      9 CA         23.4710   11.3630   16.6900 C.3       2 GLP5        0.0000 
     10 CA         24.4410   17.6818   17.6395 C.3       1 GLC5        0.0000 
     11 CA         24.3150   17.2500   15.7290 C.3       3 GLL5        0.0000 
     12 CA         24.3340   17.4220   19.7120 C.3       2 GLP5        0.0000 
     13 CA         22.6016   15.8416   16.0463 C.3       1 GLC5        0.0000 
     14 CA         23.4030   16.6190   14.7320 C.3       3 GLL5        0.0000 
     15 CA         21.6230   14.6260   17.0120 C.3       2 GLP5        0.0000 
     16 CA         22.4541   14.7737   15.4214 C.3       1 GLC5        0.0000 
     17 CA         23.5750   15.3010   14.2260 C.3       3 GLL5        0.0000 
@<TRIPOS>BOND
@<TRIPOS>SUBSTRUCTURE
     1 GLC5        1 GROUP        1 X    GLC  0     ROOT GLC X 6
     2 GLP5        3 GROUP        1 Y    GLP  0     ROOT GLP Y 13
     3 GLL5        2 GROUP        1 Z    GLL  0     ROOT GLL Z 20
@<TRIPOS>SET

