#    Name: 2qx6_ML1_2_ligand
#    Modification time : Mon Mar 24 22:55:36 2014

@<TRIPOS>MOLECULE
2qx6_ML1_2_ligand
   33    34     1     0     0
SMALL
NO_CHARGES


@<TRIPOS>ATOM
      1 C1         24.7810   18.6330   15.4050 C.3       1 ML1233      0.0000 
      2 C2         22.2880   17.1100   14.1320 C.2       1 ML1233      0.0000 
      3 C3         26.6300   12.1580   14.3980 C.3       1 ML1233      0.0000 
      4 C4         26.6380   20.0870   16.1240 C.2       1 ML1233      0.0000 
      5 C5         27.5050   20.4070   17.3020 C.3       1 ML1233      0.0000 
      6 C6         24.3150   17.2500   15.7290 C.3       1 ML1233      0.0000 
      7 C8         23.5750   15.3010   14.2260 C.ar      1 ML1233      0.0000 
      8 C9         24.5540   14.2870   14.4730 C.ar      1 ML1233      0.0000 
      9 C12        22.3880   13.8160   12.6320 C.ar      1 ML1233      0.0000 
     10 C13        22.5060   15.0490   13.3120 C.ar      1 ML1233      0.0000 
     11 C7         23.4030   16.6190   14.7320 C.2       1 ML1233      0.0000 
     12 C10        24.4450   13.0670   13.8020 C.ar      1 ML1233      0.0000 
     13 C11        23.3570   12.8500   12.8800 C.ar      1 ML1233      0.0000 
     14 N1         25.9550   18.9360   16.1960 N.am      1 ML1233      0.0000 
     15 N2         21.7350   16.1840   13.2830 N.pl3     1 ML1233      0.0000 
     16 O1         25.2980   11.9510   13.9530 O.3       1 ML1233      0.0000 
     17 O2         26.5590   20.8300   15.1480 O.2       1 ML1233      0.0000 
     18 H          23.9733   19.3395   15.6204 H         1 ML1233      0.0000 
     19 H          25.0065   18.6904   14.3355 H         1 ML1233      0.0000 
     20 H          21.9213   18.0034   14.2798 H         1 ML1233      0.0000 
     21 H          23.8092   17.2640   16.7266 H         1 ML1233      0.0000 
     22 H          25.2085   16.5922   15.8718 H         1 ML1233      0.0000 
     23 H          25.3069   14.4661   15.1259 H         1 ML1233      0.0000 
     24 H          21.6263   13.6531   11.9934 H         1 ML1233      0.0000 
     25 H          23.3153   11.9342   12.3959 H         1 ML1233      0.0000 
     26 H          26.2595   18.1711   16.8617 H         1 ML1233      0.0000 
     27 H          20.9437   16.3091   12.7584 H         1 ML1233      0.0000 
     28 H          27.1352   11.2981   14.4706 H         1 ML1233      0.0000 
     29 H          27.1428   12.7474   13.7737 H         1 ML1233      0.0000 
     30 H          26.6575   12.5910   15.2990 H         1 ML1233      0.0000 
     31 H          28.2019   19.7056   17.4517 H         1 ML1233      0.0000 
     32 H          27.9847   21.2765   17.1848 H         1 ML1233      0.0000 
     33 H          26.9735   20.4770   18.1462 H         1 ML1233      0.0000 
@<TRIPOS>BOND
     1    6    1 1    
     2   14    1 1    
     3   18    1 1    
     4   19    1 1    
     5   11    2 2    
     6   15    2 1    
     7   20    2 1    
     8   16    3 1    
     9   28    3 1    
    10   29    3 1    
    11   30    3 1    
    12    5    4 1    
    13   14    4 am   
    14   17    4 2    
    15   31    5 1    
    16   32    5 1    
    17   33    5 1    
    18   11    6 1    
    19   21    6 1    
    20   22    6 1    
    21    8    7 ar   
    22   10    7 ar   
    23   11    7 1    
    24   12    8 ar   
    25   23    8 1    
    26   10    9 ar   
    27   13    9 ar   
    28   24    9 1    
    29   15   10 1    
    30   13   12 ar   
    31   16   12 1    
    32   25   13 1    
    33   26   14 1    
    34   27   15 1    
@<TRIPOS>SUBSTRUCTURE
     1 ML1233      1 GROUP   
@<TRIPOS>SET

