#    Name: 3dy6_DY6_1_INTS_M
#    Modification time : Tue Mar 25 00:36:06 2014

@<TRIPOS>MOLECULE
3dy6_DY6_1_INTS_M
   65     0     6     0     0
SMALL
NO_CHARGES


@<TRIPOS>ATOM
      1 CA         31.1670    8.4980   63.3300 C.3       2 GLC5        0.0000 
      2 CA         32.8260    8.3220   62.1630 C.3       6 GLL5        0.0000 
      3 CA         29.5080    8.6740   64.4970 C.3       4 GLP5        0.0000 
      4 CA         34.0740   10.4560   64.2055 C.3       2 GLC5        0.0000 
      5 CA         33.9220    9.2930   62.5420 C.3       6 GLL5        0.0000 
      6 CA         34.2260   11.6190   65.8690 C.3       4 GLP5        0.0000 
      7 CA         33.6810    4.4370   58.5505 C.3       2 GLC5        0.0000 
      8 CA         31.7060    5.3660   58.9030 C.3       6 GLL5        0.0000 
      9 CA         35.6560    3.5080   58.1980 C.3       4 GLP5        0.0000 
     10 N          28.2960    8.6490   55.2405 N.am      1 SEC2        0.0000 
     11 N          28.6260    7.3480   54.8560 N.am      5 SEL2        0.0000 
     12 N          27.9660    9.9500   55.6250 N.am      3 SEP2        0.0000 
     13 N          28.4410    9.1400   54.2380 N.am      1 SEC2        0.0000 
     14 N          28.9160    8.3300   52.8510 N.am      5 SEL2        0.0000 
     15 CA         34.3450    8.3805   58.5067 C.3       2 GLC5        0.0000 
     16 CA         34.4990    7.3470   60.4950 C.3       6 GLL5        0.0000 
     17 CA         33.9130    8.7300   56.5690 C.3       4 GLP5        0.0000 
     18 CA         33.3800    7.9327   63.8773 C.3       2 GLC5        0.0000 
     19 CA         33.3860    7.0580   65.4020 C.3       4 GLP5        0.0000 
     20 CA         30.0645    4.6000   60.5457 C.3       2 GLC5        0.0000 
     21 CA         31.4060    5.8060   60.1760 C.3       6 GLL5        0.0000 
     22 CA         28.5730    3.6140   61.5520 C.3       4 GLP5        0.0000 
     23 CA         32.5547    6.2117   57.2447 C.3       2 GLC5        0.0000 
     24 CA         33.8910    7.0050   56.0730 C.3       4 GLP5        0.0000 
     25 CA         29.9008    4.0202   58.0983 C.3       2 GLC5        0.0000 
     26 CA         28.5830    2.6220   57.7800 C.3       4 GLP5        0.0000 
     27 CA         35.0105    9.2045   57.9232 C.3       2 GLC5        0.0000 
     28 CA         35.8480    9.0440   59.3210 C.3       6 GLL5        0.0000 
     29 CA         36.9178    7.3313   60.1509 C.3       2 GLC5        0.0000 
     30 CA         38.5230    6.1250   60.4190 C.3       4 GLP5        0.0000 
     31 CA         28.3672    7.8697   58.3810 C.3       2 GLC5        0.0000 
     32 CA         29.2220    6.4560   59.4960 C.3       6 GLL5        0.0000 
     33 CA         27.3740    9.5070   57.9040 C.3       4 GLP5        0.0000 
     34 CA         28.9718    4.4272   58.3190 C.3       2 GLC5        0.0000 
     35 CA         33.3214   11.5085   61.9125 C.3       2 GLC5        0.0000 
     36 CA         31.8180   12.8270   62.2070 C.3       4 GLP5        0.0000 
     37 CA         35.4597   13.1295   60.5405 C.3       2 GLC5        0.0000 
     38 CA         35.3000   10.9120   61.2780 C.3       6 GLL5        0.0000 
     39 CA         35.2210   15.1790   60.3370 C.3       4 GLP5        0.0000 
     40 CA         36.1107   12.2135   58.3095 C.3       2 GLC5        0.0000 
     41 CA         36.0970   11.2480   60.2100 C.3       6 GLL5        0.0000 
     42 CA         35.9890   13.6460   56.8970 C.3       4 GLP5        0.0000 
     43 CA         38.0343   11.5085   60.1590 C.3       2 GLC5        0.0000 
     44 CA         36.3680   10.3140   59.2340 C.3       6 GLL5        0.0000 
     45 CA         39.8360   12.2360   60.5960 C.3       4 GLP5        0.0000 
     46 CA         29.0864    4.9106   60.3284 C.3       2 GLC5        0.0000 
     47 CA         32.4973    6.0360   55.0353 C.3       2 GLC5        0.0000 
     48 CA         30.6860    5.5720   54.2090 C.3       6 GLL5        0.0000 
     49 CA         30.8605    7.9130   52.0872 C.3       2 GLC5        0.0000 
     50 CA         30.0130    6.3410   53.2820 C.3       6 GLL5        0.0000 
     51 CA         31.6290    9.6030   51.5640 C.3       4 GLP5        0.0000 
     52 CA         29.0906    4.7051   53.7724 C.3       2 GLC5        0.0000 
     53 CA         31.5210    4.5620   53.7860 C.3       6 GLL5        0.0000 
     54 CA         27.2460    4.1510   53.7790 C.3       4 GLP5        0.0000 
     55 CA         30.3513    3.2495   52.2218 C.3       2 GLC5        0.0000 
     56 CA         29.1040    2.0560   51.3290 C.3       4 GLP5        0.0000 
     57 CA         32.8892    3.0060   53.3987 C.3       2 GLC5        0.0000 
     58 CA         31.6760    4.3240   52.4430 C.3       6 GLL5        0.0000 
     59 CA         34.1800    1.5690   53.6830 C.3       4 GLP5        0.0000 
     60 CA         28.9165    4.8753   52.7553 C.3       2 GLC5        0.0000 
     61 CA         31.0030    5.0940   51.5240 C.3       6 GLL5        0.0000 
     62 CA         29.8455    3.8278   51.5303 C.3       2 GLC5        0.0000 
     63 CA         30.1710    6.1050   51.9390 C.3       6 GLL5        0.0000 
     64 CA         33.2719    4.9843   52.3576 C.3       2 GLC5        0.0000 
     65 CA         35.2430    5.2000   52.3960 C.3       4 GLP5        0.0000 
@<TRIPOS>BOND
@<TRIPOS>SUBSTRUCTURE
     1 SEC2       10 GROUP        1 X    SEC  0     ROOT SEC X 2
     2 GLC5        1 GROUP        1 X    GLC  0     **** GLC X 6
     3 SEP2       12 GROUP        1 Y    SEP  0     ROOT SEP Y 9
     4 GLP5        3 GROUP        1 Y    GLP  0     **** GLP Y 13
     5 SEL2       11 GROUP        1 Z    SEL  0     ROOT SEL Z 16
     6 GLL5        2 GROUP        1 Z    GLL  0     **** GLL Z 20
@<TRIPOS>SET

