#    Name: 3dy6_DY6_1_ligand
#    Modification time : Tue Mar 25 00:36:06 2014

@<TRIPOS>MOLECULE
3dy6_DY6_1_ligand
   50    53     1     0     0
SMALL
NO_CHARGES


@<TRIPOS>ATOM
      1 N1         33.1580    7.3050   61.1190 N.pl3     1 DY6478      0.0000 
      2 S2         32.6350    5.7080   61.4620 S.o2      1 DY6478      0.0000 
      3 C3         34.4990    7.3470   60.4950 C.3       1 DY6478      0.0000 
      4 C4         32.8260    8.3220   62.1630 C.3       1 DY6478      0.0000 
      5 C5         31.4060    5.8060   60.1760 C.ar      1 DY6478      0.0000 
      6 O6         31.9820    5.5900   62.7600 O.2       1 DY6478      0.0000 
      7 O7         33.6200    4.7390   61.0290 O.2       1 DY6478      0.0000 
      8 C8         35.0550    8.7150   60.3940 C.ar      1 DY6478      0.0000 
      9 C9         33.9220    9.2930   62.5420 C.3       1 DY6478      0.0000 
     10 C10        31.7060    5.3660   58.9030 C.ar      1 DY6478      0.0000 
     11 C11        30.1790    6.3550   60.4830 C.ar      1 DY6478      0.0000 
     12 C12        34.7770    9.6430   61.3740 C.ar      1 DY6478      0.0000 
     13 C13        35.8480    9.0440   59.3210 C.ar      1 DY6478      0.0000 
     14 C14        30.7310    5.4710   57.9300 C.ar      1 DY6478      0.0000 
     15 C15        29.2220    6.4560   59.4960 C.ar      1 DY6478      0.0000 
     16 C16        35.3000   10.9120   61.2780 C.ar      1 DY6478      0.0000 
     17 C17        36.3680   10.3140   59.2340 C.ar      1 DY6478      0.0000 
     18 C18        30.9970    5.0030   56.5630 C.2       1 DY6478      0.0000 
     19 C19        29.4990    6.0090   58.2200 C.ar      1 DY6478      0.0000 
     20 C20        36.0970   11.2480   60.2100 C.ar      1 DY6478      0.0000 
     21 N21        30.5110    5.8340   55.5860 N.am      1 DY6478      0.0000 
     22 O22        31.5980    3.9530   56.3740 O.2       1 DY6478      0.0000 
     23 C23        30.6860    5.5720   54.2090 C.ar      1 DY6478      0.0000 
     24 C24        30.0130    6.3410   53.2820 C.ar      1 DY6478      0.0000 
     25 C25        31.5210    4.5620   53.7860 C.ar      1 DY6478      0.0000 
     26 C26        30.1710    6.1050   51.9390 C.ar      1 DY6478      0.0000 
     27 C27        29.1170    7.4220   53.7000 C.2       1 DY6478      0.0000 
     28 C28        31.6760    4.3240   52.4430 C.ar      1 DY6478      0.0000 
     29 C29        31.0030    5.0940   51.5240 C.ar      1 DY6478      0.0000 
     30 O30        28.6260    7.3480   54.8560 O.co2     1 DY6478      0.0000 
     31 O31        28.9160    8.3300   52.8510 O.co2     1 DY6478      0.0000 
     32 H          34.4476    6.8956   59.4823 H         1 DY6478      0.0000 
     33 H          35.1959    6.7093   61.0778 H         1 DY6478      0.0000 
     34 H          32.4847    7.7954   63.0911 H         1 DY6478      0.0000 
     35 H          31.9330    8.9105   61.8293 H         1 DY6478      0.0000 
     36 H          34.5376    8.8439   63.3334 H         1 DY6478      0.0000 
     37 H          33.4647   10.2025   62.9551 H         1 DY6478      0.0000 
     38 H          32.6212    4.9743   58.6859 H         1 DY6478      0.0000 
     39 H          29.9807    6.6844   61.4348 H         1 DY6478      0.0000 
     40 H          36.0505    8.3485   58.5910 H         1 DY6478      0.0000 
     41 H          28.2996    6.8651   59.7101 H         1 DY6478      0.0000 
     42 H          35.0931   11.6121   62.0095 H         1 DY6478      0.0000 
     43 H          36.9679   10.5716   58.4294 H         1 DY6478      0.0000 
     44 H          28.7783    6.0796   57.4830 H         1 DY6478      0.0000 
     45 H          36.4930   12.1989   60.1376 H         1 DY6478      0.0000 
     46 H          29.9882    6.6996   55.8533 H         1 DY6478      0.0000 
     47 H          32.0273    3.9874   54.4774 H         1 DY6478      0.0000 
     48 H          29.6697    6.6814   51.2475 H         1 DY6478      0.0000 
     49 H          32.3000    3.5643   52.1208 H         1 DY6478      0.0000 
     50 H          31.1248    4.9097   50.5110 H         1 DY6478      0.0000 
@<TRIPOS>BOND
     1    2    1 1    
     2    3    1 1    
     3    4    1 1    
     4    5    2 1    
     5    6    2 2    
     6    7    2 2    
     7    8    3 1    
     8   32    3 1    
     9   33    3 1    
    10    9    4 1    
    11   34    4 1    
    12   35    4 1    
    13   10    5 ar   
    14   11    5 ar   
    15   12    8 ar   
    16   13    8 ar   
    17   12    9 1    
    18   36    9 1    
    19   37    9 1    
    20   14   10 ar   
    21   38   10 1    
    22   15   11 ar   
    23   39   11 1    
    24   16   12 ar   
    25   17   13 ar   
    26   40   13 1    
    27   18   14 1    
    28   19   14 ar   
    29   19   15 ar   
    30   41   15 1    
    31   20   16 ar   
    32   42   16 1    
    33   20   17 ar   
    34   43   17 1    
    35   21   18 am   
    36   22   18 2    
    37   44   19 1    
    38   45   20 1    
    39   23   21 1    
    40   46   21 1    
    41   24   23 ar   
    42   25   23 ar   
    43   26   24 ar   
    44   27   24 1    
    45   28   25 ar   
    46   47   25 1    
    47   29   26 ar   
    48   48   26 1    
    49   30   27 ar   
    50   31   27 ar   
    51   29   28 ar   
    52   49   28 1    
    53   50   29 1    
@<TRIPOS>SUBSTRUCTURE
     1 DY6478      1 GROUP   
@<TRIPOS>SET

