#    Name: 4j52_1J3_1_INTS_M
#    Modification time : Tue Mar 25 05:22:30 2014

@<TRIPOS>MOLECULE
4j52_1J3_1_INTS_M
   78     0     9     0     0
SMALL
NO_CHARGES


@<TRIPOS>ATOM
      1 CA         30.9790  -37.0655  -18.9510 C.3       3 GLC5        0.0000 
      2 CA         30.8930  -36.2540  -20.9970 C.3       9 GLL5        0.0000 
      3 CA         31.0650  -37.8770  -16.9050 C.3       6 GLP5        0.0000 
      4 CA         29.9390  -34.9170  -19.8365 C.3       3 GLC5        0.0000 
      5 CA         28.9850  -33.5800  -18.6760 C.3       6 GLP5        0.0000 
      6 CA         31.0790  -34.7315  -22.1060 C.3       3 GLC5        0.0000 
      7 CA         31.2650  -33.2090  -23.2150 C.3       6 GLP5        0.0000 
      8 CA         35.9115  -36.7285  -20.1360 C.3       3 GLC5        0.0000 
      9 CA         34.4360  -37.1550  -18.8520 C.3       9 GLL5        0.0000 
     10 CA         37.3870  -36.3020  -21.4200 C.3       6 GLP5        0.0000 
     11 CA         31.9760  -35.1860  -17.1275 C.3       3 GLC5        0.0000 
     12 CA         33.1490  -34.6760  -18.5680 C.3       9 GLL5        0.0000 
     13 CA         30.8030  -35.6960  -15.6870 C.3       6 GLP5        0.0000 
     14 CA         31.6580  -34.0750  -16.6275 C.3       3 GLC5        0.0000 
     15 CA         32.5130  -32.4540  -17.5680 C.3       9 GLL5        0.0000 
     16 CA         30.7490  -33.0170  -18.1220 C.3       3 GLC5        0.0000 
     17 CA         32.4170  -30.8510  -19.0400 C.3       3 GLC5        0.0000 
     18 CA         32.3210  -29.2480  -20.5120 C.3       6 GLP5        0.0000 
     19 N          30.9955  -30.9710  -18.8585 N.am      2 SEC2        0.0000 
     20 N          31.6980  -31.4220  -17.7160 N.am      8 SEL2        0.0000 
     21 N          30.2930  -30.5200  -20.0010 N.am      5 SEP2        0.0000 
     22 CA         29.9460  -30.5425  -17.8815 C.3       3 GLC5        0.0000 
     23 CA         31.7510  -30.3830  -16.8770 C.3       9 GLL5        0.0000 
     24 CA         28.1410  -30.7020  -18.8860 C.3       6 GLP5        0.0000 
     25 CA         32.0360  -29.8155  -18.6945 C.3       3 GLC5        0.0000 
     26 CA         32.6830  -26.2450  -16.2340 C.3       3 GLC5        0.0000 
     27 CA         32.6870  -27.9330  -15.6350 C.3       9 GLL5        0.0000 
     28 CA         32.6790  -24.5570  -16.8330 C.3       6 GLP5        0.0000 
     29 CA         32.1750  -27.8325  -17.7185 C.3       3 GLC5        0.0000 
     30 CA         31.6630  -27.7320  -19.8020 C.3       6 GLP5        0.0000 
     31 CA         34.4210  -27.5890  -15.6540 C.3       3 GLC5        0.0000 
     32 CA         36.1550  -27.2450  -15.6730 C.3       6 GLP5        0.0000 
     33 CA         33.2745  -29.7005   -9.6750 C.3       3 GLC5        0.0000 
     34 CA         33.1210  -30.3230  -11.5820 C.3       9 GLL5        0.0000 
     35 CA         33.4280  -29.0780   -7.7680 C.3       6 GLP5        0.0000 
     36 CA         31.5300  -28.8480  -11.4695 C.3       3 GLC5        0.0000 
     37 CA         29.9390  -27.3730  -11.3570 C.3       6 GLP5        0.0000 
     38 CA         35.2520  -30.0305  -14.3430 C.3       3 GLC5        0.0000 
     39 CA         34.1100  -31.4860  -13.2840 C.3       9 GLL5        0.0000 
     40 CA         36.3940  -28.5750  -15.4020 C.3       6 GLP5        0.0000 
     41 CA         35.8040  -36.5775  -12.6155 C.3       3 GLC5        0.0000 
     42 CA         35.7670  -34.5370  -13.0760 C.3       9 GLL5        0.0000 
     43 CA         35.8410  -38.6180  -12.1550 C.3       6 GLP5        0.0000 
     44 CA         34.5510  -34.1760  -11.6895 C.3       3 GLC5        0.0000 
     45 CA         33.3350  -33.8150  -10.3030 C.3       6 GLP5        0.0000 
     46 CA         33.6485  -35.7135  -14.5475 C.3       3 GLC5        0.0000 
     47 CA         34.7790  -34.0920  -14.1610 C.3       9 GLL5        0.0000 
     48 CA         32.5180  -37.3350  -14.9340 C.3       6 GLP5        0.0000 
     49 CA         33.5780  -34.5335  -12.7375 C.3       3 GLC5        0.0000 
     50 CA         32.3770  -34.9750  -11.3140 C.3       6 GLP5        0.0000 
     51 CA         30.5370  -31.2640  -10.2825 C.3       3 GLC5        0.0000 
     52 CA         30.9830  -31.8270  -11.9800 C.3       9 GLL5        0.0000 
     53 CA         30.0910  -30.7010   -8.5850 C.3       6 GLP5        0.0000 
     54 O          35.4050  -38.7995  -16.3925 O.2       1 ALC1        0.0000 
     55 O          35.4090  -39.1820  -17.8830 O.2       7 ALL1        0.0000 
     56 O          35.4010  -38.4170  -14.9020 O.2       4 ALP1        0.0000 
     57 CA         34.0765  -40.0730  -15.9410 C.3       3 GLC5        0.0000 
     58 CA         35.1160  -41.3820  -17.1540 C.3       9 GLL5        0.0000 
     59 CA         33.0370  -38.7640  -14.7280 C.3       6 GLP5        0.0000 
     60 CA         30.9575  -34.3577  -18.8622 C.3       3 GLC5        0.0000 
     61 CA         32.7110  -35.5950  -19.5290 C.3       9 GLL5        0.0000 
     62 CA         34.7800  -35.6325  -20.5790 C.3       3 GLC5        0.0000 
     63 CA         36.5340  -35.0520  -21.5570 C.3       6 GLP5        0.0000 
     64 CA         32.3980  -37.2805  -18.0658 C.3       3 GLC5        0.0000 
     65 CA         33.3410  -36.8310  -19.6730 C.3       9 GLL5        0.0000 
     66 CA         33.5355  -36.4710  -16.3755 C.3       3 GLC5        0.0000 
     67 CA         34.8660  -36.2230  -17.8880 C.3       9 GLL5        0.0000 
     68 CA         35.5435  -35.3295  -19.6870 C.3       3 GLC5        0.0000 
     69 CA         30.4118  -30.9943  -15.7965 C.3       3 GLC5        0.0000 
     70 CA         28.6190  -31.6000  -15.2370 C.3       6 GLP5        0.0000 
     71 CA         33.4506  -32.3961  -11.5351 C.3       3 GLC5        0.0000 
     72 CA         32.9240  -30.6140  -12.9190 C.3       9 GLL5        0.0000 
     73 CA         36.1692  -31.1043  -15.4348 C.3       3 GLC5        0.0000 
     74 CA         35.3710  -32.8260  -14.8190 C.3       9 GLL5        0.0000 
     75 CA         36.2840  -29.5120  -16.4050 C.3       6 GLP5        0.0000 
     76 CA         32.3203  -32.7112  -11.4058 C.3       3 GLC5        0.0000 
     77 CA         31.6280  -31.3880  -13.0370 C.3       9 GLL5        0.0000 
     78 CA         29.9623  -31.6038  -13.8727 C.3       3 GLC5        0.0000 
@<TRIPOS>BOND
@<TRIPOS>SUBSTRUCTURE
     1 ALC1       54 GROUP        1 X    ALC  0     ROOT ALC X 1
     2 SEC2       19 GROUP        1 X    SEC  0     **** SEC X 2
     3 GLC5        1 GROUP        1 X    GLC  0     **** GLC X 6
     4 ALP1       56 GROUP        1 Y    ALP  0     ROOT ALP Y 8
     5 SEP2       21 GROUP        1 Y    SEP  0     **** SEP Y 9
     6 GLP5        3 GROUP        1 Y    GLP  0     **** GLP Y 13
     7 ALL1       55 GROUP        1 Z    ALL  0     ROOT ALL Z 15
     8 SEL2       20 GROUP        1 Z    SEL  0     **** SEL Z 16
     9 GLL5        2 GROUP        1 Z    GLL  0     **** GLL Z 20
@<TRIPOS>SET

