#    Name: 4j52_1J3_1_ligand
#    Modification time : Tue Mar 25 05:22:30 2014

@<TRIPOS>MOLECULE
4j52_1J3_1_ligand
   76    80     1     0     0
SMALL
NO_CHARGES


@<TRIPOS>ATOM
      1 C1         30.8930  -36.2540  -20.9970 C.3       1 1J3400      0.0000 
      2 O2         31.6400  -35.2380  -20.3010 O.3       1 1J3400      0.0000 
      3 C3         32.7110  -35.5950  -19.5290 C.ar      1 1J3400      0.0000 
      4 C4         33.3410  -36.8310  -19.6730 C.ar      1 1J3400      0.0000 
      5 C5         34.4360  -37.1550  -18.8520 C.ar      1 1J3400      0.0000 
      6 C6         34.8660  -36.2230  -17.8880 C.ar      1 1J3400      0.0000 
      7 C7         34.2400  -34.9910  -17.7460 C.ar      1 1J3400      0.0000 
      8 C8         33.1490  -34.6760  -18.5680 C.ar      1 1J3400      0.0000 
      9 N9         32.4240  -33.4750  -18.4990 N.pl3     1 1J3400      0.0000 
     10 C10        32.5130  -32.4540  -17.5680 C.ar      1 1J3400      0.0000 
     11 N11        31.6980  -31.4220  -17.7160 N.ar      1 1J3400      0.0000 
     12 C12        31.7510  -30.3830  -16.8770 C.ar      1 1J3400      0.0000 
     13 C13        32.6580  -30.3940  -15.8350 C.ar      1 1J3400      0.0000 
     14 N14        32.7200  -29.2580  -14.9970 N.am      1 1J3400      0.0000 
     15 C15        32.6870  -27.9330  -15.6350 C.3       1 1J3400      0.0000 
     16 C16        32.8720  -29.3010  -13.6470 C.2       1 1J3400      0.0000 
     17 O17        32.9350  -28.2430  -13.0110 O.2       1 1J3400      0.0000 
     18 C18        32.9240  -30.6140  -12.9190 C.3       1 1J3400      0.0000 
     19 F19        33.1210  -30.3230  -11.5820 F         1 1J3400      0.0000 
     20 C20        34.1100  -31.4860  -13.2840 C.3       1 1J3400      0.0000 
     21 N21        34.4760  -31.6510  -14.6920 N.3       1 1J3400      0.0000 
     22 C22        35.3710  -32.8260  -14.8190 C.3       1 1J3400      0.0000 
     23 C23        36.7380  -32.5670  -14.1100 C.3       1 1J3400      0.0000 
     24 C24        37.1130  -33.9350  -13.4900 C.3       1 1J3400      0.0000 
     25 C25        35.7670  -34.5370  -13.0760 C.3       1 1J3400      0.0000 
     26 C26        34.7790  -34.0920  -14.1610 C.3       1 1J3400      0.0000 
     27 C27        33.5130  -31.5240  -15.6960 C.ar      1 1J3400      0.0000 
     28 N28        33.3930  -32.5000  -16.5790 N.ar      1 1J3400      0.0000 
     29 C29        31.6280  -31.3880  -13.0370 C.2       1 1J3400      0.0000 
     30 C30        30.9830  -31.8270  -11.9800 C.2       1 1J3400      0.0000 
     31 C31        35.0900  -38.4880  -18.9920 C.2       1 1J3400      0.0000 
     32 O32        35.2990  -38.9730  -20.0770 O.2       1 1J3400      0.0000 
     33 N33        35.4090  -39.1820  -17.8830 N.am      1 1J3400      0.0000 
     34 N34        35.9800  -40.4260  -17.8780 N.3       1 1J3400      0.0000 
     35 C35        37.3320  -40.3750  -17.2860 C.3       1 1J3400      0.0000 
     36 C36        37.9700  -41.7600  -17.3910 C.3       1 1J3400      0.0000 
     37 N37        37.1180  -42.7090  -16.6570 N.4       1 1J3400      0.0000 
     38 C38        37.7540  -44.0260  -16.5430 C.3       1 1J3400      0.0000 
     39 C39        35.7560  -42.7750  -17.2250 C.3       1 1J3400      0.0000 
     40 C40        35.1160  -41.3820  -17.1540 C.3       1 1J3400      0.0000 
     41 H          33.0121  -37.5024  -20.3711 H         1 1J3400      0.0000 
     42 H          35.6645  -36.4683  -17.2774 H         1 1J3400      0.0000 
     43 H          34.5673  -34.3170  -17.0509 H         1 1J3400      0.0000 
     44 H          31.6889  -33.3332  -19.2942 H         1 1J3400      0.0000 
     45 H          31.1250  -29.5653  -16.9899 H         1 1J3400      0.0000 
     46 H          33.9365  -32.5067  -12.8176 H         1 1J3400      0.0000 
     47 H          35.0065  -31.0988  -12.7044 H         1 1J3400      0.0000 
     48 H          35.5832  -33.0516  -15.8461 H         1 1J3400      0.0000 
     49 H          36.6029  -31.8523  -13.3441 H         1 1J3400      0.0000 
     50 H          37.4581  -32.2924  -14.8323 H         1 1J3400      0.0000 
     51 H          37.7181  -33.7786  -12.6356 H         1 1J3400      0.0000 
     52 H          37.5693  -34.5412  -14.2282 H         1 1J3400      0.0000 
     53 H          35.4691  -34.1380  -12.1353 H         1 1J3400      0.0000 
     54 H          35.8356  -35.5992  -13.0683 H         1 1J3400      0.0000 
     55 H          34.6822  -34.8613  -14.8989 H         1 1J3400      0.0000 
     56 H          33.8367  -33.8503  -13.7144 H         1 1J3400      0.0000 
     57 H          31.3112  -31.5314  -14.0148 H         1 1J3400      0.0000 
     58 H          35.2043  -38.7352  -16.9300 H         1 1J3400      0.0000 
     59 H          37.2819  -40.0949  -16.2376 H         1 1J3400      0.0000 
     60 H          37.9576  -39.6638  -17.8180 H         1 1J3400      0.0000 
     61 H          38.9625  -41.7171  -16.9589 H         1 1J3400      0.0000 
     62 H          38.0380  -42.0309  -18.4377 H         1 1J3400      0.0000 
     63 H          37.0134  -42.3025  -15.6093 H         1 1J3400      0.0000 
     64 H          35.1366  -43.4671  -16.6615 H         1 1J3400      0.0000 
     65 H          35.7870  -43.0866  -18.2653 H         1 1J3400      0.0000 
     66 H          34.1319  -41.4317  -17.6081 H         1 1J3400      0.0000 
     67 H          35.0197  -41.1002  -16.1108 H         1 1J3400      0.0000 
     68 H          31.4674  -36.7645  -21.6369 H         1 1J3400      0.0000 
     69 H          30.4942  -36.9195  -20.3661 H         1 1J3400      0.0000 
     70 H          30.1396  -35.8639  -21.5264 H         1 1J3400      0.0000 
     71 H          32.7343  -27.1953  -14.9616 H         1 1J3400      0.0000 
     72 H          33.4533  -27.8048  -16.2646 H         1 1J3400      0.0000 
     73 H          31.8484  -27.7954  -16.1621 H         1 1J3400      0.0000 
     74 H          37.9401  -44.4274  -17.4398 H         1 1J3400      0.0000 
     75 H          38.6267  -43.9762  -16.0573 H         1 1J3400      0.0000 
     76 H          37.1782  -44.6747  -16.0453 H         1 1J3400      0.0000 
@<TRIPOS>BOND
     1    2    1 1    
     2   68    1 1    
     3   69    1 1    
     4   70    1 1    
     5    3    2 1    
     6    4    3 ar   
     7    8    3 ar   
     8    5    4 ar   
     9   41    4 1    
    10    6    5 ar   
    11   31    5 1    
    12    7    6 ar   
    13   42    6 1    
    14    8    7 ar   
    15   43    7 1    
    16    9    8 1    
    17   10    9 1    
    18   44    9 1    
    19   11   10 ar   
    20   28   10 ar   
    21   12   11 ar   
    22   13   12 ar   
    23   45   12 1    
    24   14   13 1    
    25   27   13 ar   
    26   15   14 1    
    27   16   14 am   
    28   71   15 1    
    29   72   15 1    
    30   73   15 1    
    31   17   16 2    
    32   18   16 1    
    33   19   18 1    
    34   20   18 1    
    35   29   18 1    
    36   21   20 1    
    37   46   20 1    
    38   47   20 1    
    39   22   21 1    
    40   27   21 1    
    41   23   22 1    
    42   26   22 1    
    43   48   22 1    
    44   24   23 1    
    45   49   23 1    
    46   50   23 1    
    47   25   24 1    
    48   51   24 1    
    49   52   24 1    
    50   26   25 1    
    51   53   25 1    
    52   54   25 1    
    53   55   26 1    
    54   56   26 1    
    55   28   27 ar   
    56   30   29 2    
    57   57   29 1    
    58   32   31 2    
    59   33   31 am   
    60   34   33 1    
    61   58   33 1    
    62   35   34 1    
    63   40   34 1    
    64   36   35 1    
    65   59   35 1    
    66   60   35 1    
    67   37   36 1    
    68   61   36 1    
    69   62   36 1    
    70   38   37 1    
    71   39   37 1    
    72   63   37 1    
    73   74   38 1    
    74   75   38 1    
    75   76   38 1    
    76   40   39 1    
    77   64   39 1    
    78   65   39 1    
    79   66   40 1    
    80   67   40 1    
@<TRIPOS>SUBSTRUCTURE
     1 1J3400      1 GROUP   
@<TRIPOS>SET

