#    Name: 1o6q_R17_2_INTS_M
#    Modification time : Mon Mar 24 19:40:47 2014

@<TRIPOS>MOLECULE
1o6q_R17_2_INTS_M
   67     0     9     0     0
SMALL
NO_CHARGES


@<TRIPOS>ATOM
      1 CA         52.0290   16.0090   58.9140 C.3       3 GLC5        0.0000 
      2 CA         50.9990   17.0480   59.8310 C.3       9 GLL5        0.0000 
      3 CA         53.0590   14.9700   57.9970 C.3       6 GLP5        0.0000 
      4 CA         52.0535   17.8170   61.1345 C.3       3 GLC5        0.0000 
      5 CA         53.1080   18.5860   62.4380 C.3       6 GLP5        0.0000 
      6 CA         51.0610   15.8905   58.1945 C.3       3 GLC5        0.0000 
      7 CA         49.9160   16.3830   59.4210 C.3       9 GLL5        0.0000 
      8 CA         52.2060   15.3980   56.9680 C.3       6 GLP5        0.0000 
      9 CA         47.9195   14.7410   58.8475 C.3       3 GLC5        0.0000 
     10 CA         48.6200   16.3660   60.1940 C.3       9 GLL5        0.0000 
     11 CA         47.2190   13.1160   57.5010 C.3       6 GLP5        0.0000 
     12 OD1        47.5885   13.1180   60.1140 O.co2     2 ASC3        0.0000 
     13 OD1        47.9660   15.0410   60.1420 O.co2     8 ASL3        0.0000 
     14 OD1        47.2110   11.1950   60.0860 O.co2     5 ASP3        0.0000 
     15 OD1        47.8905   15.2235   58.6535 O.co2     2 ASC3        0.0000 
     16 OD1        47.8150   15.4060   57.1650 O.co2     5 ASP3        0.0000 
     17 O          47.8905   15.2235   58.6535 O.2       1 ALC1        0.0000 
     18 O          47.9660   15.0410   60.1420 O.2       7 ALL1        0.0000 
     19 O          47.8150   15.4060   57.1650 O.2       4 ALP1        0.0000 
     20 CA         47.9670   13.5715   59.2300 C.3       3 GLC5        0.0000 
     21 CA         48.7150   14.0270   60.9590 C.3       9 GLL5        0.0000 
     22 CA         50.2985   13.9155   65.0910 C.3       3 GLC5        0.0000 
     23 CA         48.7620   14.8390   64.7830 C.3       9 GLL5        0.0000 
     24 CA         51.8350   12.9920   65.3990 C.3       6 GLP5        0.0000 
     25 CA         50.6505   18.3750   71.1920 C.3       3 GLC5        0.0000 
     26 CA         48.9590   17.7840   70.4490 C.3       9 GLL5        0.0000 
     27 CA         52.3420   18.9660   71.9350 C.3       6 GLP5        0.0000 
     28 CA         50.5035   16.3095   69.9590 C.3       3 GLC5        0.0000 
     29 CA         52.0480   14.8350   69.4690 C.3       6 GLP5        0.0000 
     30 CA         44.0085   16.8455   70.6515 C.3       3 GLC5        0.0000 
     31 CA         45.4180   18.3480   71.3800 C.3       9 GLL5        0.0000 
     32 CA         42.5990   15.3430   69.9230 C.3       6 GLP5        0.0000 
     33 CA         45.3615   16.3415   71.8440 C.3       3 GLC5        0.0000 
     34 CA         45.3050   14.3350   72.3080 C.3       6 GLP5        0.0000 
     35 CA         42.8030   21.5385   75.4470 C.3       3 GLC5        0.0000 
     36 CA         43.9990   21.0680   74.1360 C.3       9 GLL5        0.0000 
     37 CA         41.6070   22.0090   76.7580 C.3       6 GLP5        0.0000 
     38 CA         45.1665   19.4085   74.7000 C.3       3 GLC5        0.0000 
     39 CA         46.3340   17.7490   75.2640 C.3       6 GLP5        0.0000 
     40 CA         43.5090   22.8820   73.8175 C.3       3 GLC5        0.0000 
     41 CA         43.0190   24.6960   73.4990 C.3       6 GLP5        0.0000 
     42 CA         43.8200   21.3615   72.0225 C.3       3 GLC5        0.0000 
     43 CA         43.6410   21.6550   69.9090 C.3       6 GLP5        0.0000 
     44 CA         46.8715   14.1400   59.0300 C.3       3 GLC5        0.0000 
     45 CA         46.5240   15.1640   60.5590 C.3       9 GLL5        0.0000 
     46 CA         44.5105   14.5235   60.7765 C.3       3 GLC5        0.0000 
     47 CA         42.4970   13.8830   60.9940 C.3       6 GLP5        0.0000 
     48 CA         45.4255   16.6690   60.9020 C.3       3 GLC5        0.0000 
     49 CA         44.3270   18.1740   61.2450 C.3       6 GLP5        0.0000 
     50 CA         48.2925   18.0823   59.7152 C.3       3 GLC5        0.0000 
     51 CA         47.3170   19.7900   59.6230 C.3       6 GLP5        0.0000 
     52 CA         50.4793   13.5278   62.7770 C.3       3 GLC5        0.0000 
     53 CA         49.0850   14.8320   63.3170 C.3       9 GLL5        0.0000 
     54 CA         52.1310   12.6150   63.0440 C.3       6 GLP5        0.0000 
     55 CA         50.3792   15.7703   68.6368 C.3       3 GLC5        0.0000 
     56 CA         48.7940   16.4080   67.1720 C.3       9 GLL5        0.0000 
     57 CA         47.9172   15.4902   69.6653 C.3       3 GLC5        0.0000 
     58 CA         48.6270   17.0030   68.4370 C.3       9 GLL5        0.0000 
     59 CA         47.8180   13.6960   70.6670 C.3       6 GLP5        0.0000 
     60 CA         48.0740   16.0270   71.2260 C.3       3 GLC5        0.0000 
     61 CA         47.8330   14.1250   72.1190 C.3       6 GLP5        0.0000 
     62 CA         46.6668   18.5535   73.3937 C.3       3 GLC5        0.0000 
     63 CA         46.7570   18.7880   71.1720 C.3       9 GLL5        0.0000 
     64 CA         46.0368   19.0727   74.0670 C.3       3 GLC5        0.0000 
     65 CA         46.4000   20.6180   72.7720 C.3       9 GLL5        0.0000 
     66 CA         45.6658   18.2220   73.5465 C.3       3 GLC5        0.0000 
     67 CA         44.5770   19.0420   72.2780 C.3       9 GLL5        0.0000 
@<TRIPOS>BOND
@<TRIPOS>SUBSTRUCTURE
     1 ALC1       17 GROUP        1 X    ALC  0     ROOT ALC X 1
     2 ASC3       12 GROUP        1 X    ASC  0     **** ASC X 3
     3 GLC5        1 GROUP        1 X    GLC  0     **** GLC X 6
     4 ALP1       19 GROUP        1 Y    ALP  0     ROOT ALP Y 8
     5 ASP3       14 GROUP        1 Y    ASP  0     **** ASP Y 10
     6 GLP5        3 GROUP        1 Y    GLP  0     **** GLP Y 13
     7 ALL1       18 GROUP        1 Z    ALL  0     ROOT ALL Z 15
     8 ASL3       13 GROUP        1 Z    ASL  0     **** ASL Z 17
     9 GLL5        2 GROUP        1 Z    GLL  0     **** GLL Z 20
@<TRIPOS>SET

