#    Name: 1o6q_R17_2_ligand
#    Modification time : Mon Mar 24 19:40:47 2014

@<TRIPOS>MOLECULE
1o6q_R17_2_ligand
   47    49     1     0     0
SMALL
NO_CHARGES


@<TRIPOS>ATOM
      1 C3A        50.9990   17.0480   59.8310 C.2       1 R17800      0.0000 
      2 C2A        49.9160   16.3830   59.4210 C.2       1 R17800      0.0000 
      3 C1A        48.6200   16.3660   60.1940 C.3       1 R17800      0.0000 
      4 N1         47.9660   15.0410   60.1420 N.4       1 R17800      0.0000 
      5 C1B        48.7150   14.0270   60.9590 C.3       1 R17800      0.0000 
      6 C2B        48.4250   14.0710   62.4470 C.2       1 R17800      0.0000 
      7 C3B        49.0850   14.8320   63.3170 C.2       1 R17800      0.0000 
      8 C4B        48.7620   14.8390   64.7830 C.3       1 R17800      0.0000 
      9 O5B        47.7210   15.8040   65.0090 O.3       1 R17800      0.0000 
     10 C6C        47.6520   16.3760   66.3070 C.ar      1 R17800      0.0000 
     11 C7C        48.7940   16.4080   67.1720 C.ar      1 R17800      0.0000 
     12 C7P        48.6270   17.0030   68.4370 C.ar      1 R17800      0.0000 
     13 O1C        49.5370   17.1410   69.3830 O.3       1 R17800      0.0000 
     14 C2C        48.9590   17.7840   70.4490 C.2       1 R17800      0.0000 
     15 C3C        47.6710   18.0740   70.2170 C.2       1 R17800      0.0000 
     16 C3P        47.4060   17.5660   68.8900 C.ar      1 R17800      0.0000 
     17 C4C        46.2780   17.5340   68.0470 C.ar      1 R17800      0.0000 
     18 C5C        46.4110   16.9340   66.7510 C.ar      1 R17800      0.0000 
     19 C1D        46.7570   18.7880   71.1720 C.ar      1 R17800      0.0000 
     20 C2D        47.2420   19.9280   71.8750 C.ar      1 R17800      0.0000 
     21 C3D        46.4000   20.6180   72.7720 C.ar      1 R17800      0.0000 
     22 C4D        45.0790   20.1750   72.9680 C.ar      1 R17800      0.0000 
     23 C5D        44.5770   19.0420   72.2780 C.ar      1 R17800      0.0000 
     24 C6D        45.4180   18.3480   71.3800 C.ar      1 R17800      0.0000 
     25 BR25       43.9990   21.0680   74.1360 Br        1 R17800      0.0000 
     26 C1E        46.5240   15.1640   60.5590 C.3       1 R17800      0.0000 
     27 H          49.8922   15.8298   58.5380 H         1 R17800      0.0000 
     28 H          47.9494   17.1338   59.7792 H         1 R17800      0.0000 
     29 H          48.8264   16.6437   61.2388 H         1 R17800      0.0000 
     30 H          47.9754   14.7000   59.0889 H         1 R17800      0.0000 
     31 H          49.8052   14.1669   60.8054 H         1 R17800      0.0000 
     32 H          48.4822   13.0095   60.5817 H         1 R17800      0.0000 
     33 H          47.6403   13.4340   62.7361 H         1 R17800      0.0000 
     34 H          49.8608   15.4666   63.0436 H         1 R17800      0.0000 
     35 H          49.6658   15.0933   65.3394 H         1 R17800      0.0000 
     36 H          48.4441   13.8370   65.0762 H         1 R17800      0.0000 
     37 H          49.6667   16.0212   66.8788 H         1 R17800      0.0000 
     38 H          49.4468   17.9987   71.2773 H         1 R17800      0.0000 
     39 H          45.3942   17.9199   68.3363 H         1 R17800      0.0000 
     40 H          45.5964   16.9048   66.1284 H         1 R17800      0.0000 
     41 H          48.2014   20.2413   71.7252 H         1 R17800      0.0000 
     42 H          46.7485   21.4338   73.2752 H         1 R17800      0.0000 
     43 H          43.6209   18.7345   72.4300 H         1 R17800      0.0000 
     44 H          45.0717   17.5314   70.8780 H         1 R17800      0.0000 
     45 H          46.4356   15.5155   61.4910 H         1 R17800      0.0000 
     46 H          46.0165   15.7853   59.9620 H         1 R17800      0.0000 
     47 H          46.0532   14.2822   60.5324 H         1 R17800      0.0000 
@<TRIPOS>BOND
     1    2    1 2    
     2    3    2 1    
     3   27    2 1    
     4    4    3 1    
     5   28    3 1    
     6   29    3 1    
     7    5    4 1    
     8   26    4 1    
     9   30    4 1    
    10    6    5 1    
    11   31    5 1    
    12   32    5 1    
    13    7    6 2    
    14   33    6 1    
    15    8    7 1    
    16   34    7 1    
    17    9    8 1    
    18   35    8 1    
    19   36    8 1    
    20   10    9 1    
    21   11   10 ar   
    22   18   10 ar   
    23   12   11 ar   
    24   37   11 1    
    25   13   12 1    
    26   16   12 ar   
    27   14   13 1    
    28   15   14 2    
    29   38   14 1    
    30   16   15 1    
    31   19   15 1    
    32   17   16 ar   
    33   18   17 ar   
    34   39   17 1    
    35   40   18 1    
    36   20   19 ar   
    37   24   19 ar   
    38   21   20 ar   
    39   41   20 1    
    40   22   21 ar   
    41   42   21 1    
    42   23   22 ar   
    43   25   22 1    
    44   24   23 ar   
    45   43   23 1    
    46   44   24 1    
    47   45   26 1    
    48   46   26 1    
    49   47   26 1    
@<TRIPOS>SUBSTRUCTURE
     1 R17800      1 GROUP   
@<TRIPOS>SET

