#    Name: 3piz_03C_1_INTS_M
#    Modification time : Tue Mar 25 06:39:28 2014

@<TRIPOS>MOLECULE
3piz_03C_1_INTS_M
   57     0     9     0     0
SMALL
NO_CHARGES


@<TRIPOS>ATOM
      1 O         -22.4590    4.0930  -15.5210 O.2       1 ALC1        0.0000 
      2 O         -21.7300    5.1590  -16.2510 O.2       7 ALL1        0.0000 
      3 O         -23.1880    3.0270  -14.7910 O.2       4 ALP1        0.0000 
      4 CA        -19.7810    2.3540  -15.2870 C.3       3 GLC5        0.0000 
      5 CA        -19.4430    2.8120  -13.4130 C.3       9 GLL5        0.0000 
      6 CA        -20.1190    1.8960  -17.1610 C.3       6 GLP5        0.0000 
      7 CA        -19.0330    0.7280  -13.8430 C.3       3 GLC5        0.0000 
      8 CA        -18.6230   -1.3560  -14.2730 C.3       6 GLP5        0.0000 
      9 CA        -23.4530    6.0875  -11.0640 C.3       3 GLC5        0.0000 
     10 CA        -21.4320    6.2930  -11.8160 C.3       9 GLL5        0.0000 
     11 CA        -25.4740    5.8820  -10.3120 C.3       6 GLP5        0.0000 
     12 CA        -22.9370    5.5105   -9.9125 C.3       3 GLC5        0.0000 
     13 CA        -21.3100    5.1280  -11.0540 C.3       9 GLL5        0.0000 
     14 CA        -24.5640    5.8930   -8.7710 C.3       6 GLP5        0.0000 
     15 N         -21.7370    4.8730  -20.0230 N.am      2 SEC2        0.0000 
     16 N         -20.7760    5.0230  -18.9910 N.am      8 SEL2        0.0000 
     17 N         -22.6980    4.7230  -21.0550 N.am      5 SEP2        0.0000 
     18 CA        -18.5310    8.2760  -18.8260 C.3       3 GLC5        0.0000 
     19 CA        -17.5360    6.5230  -19.2710 C.3       9 GLL5        0.0000 
     20 CA        -19.5260   10.0290  -18.3810 C.3       6 GLP5        0.0000 
     21 CA        -20.7270    5.4990  -21.3025 C.3       3 GLC5        0.0000 
     22 CA        -18.6420    5.0160  -20.8030 C.3       9 GLL5        0.0000 
     23 CA        -22.8120    5.9820  -21.8020 C.3       6 GLP5        0.0000 
     24 CA        -17.6460    9.4335  -18.7120 C.3       3 GLC5        0.0000 
     25 CA        -15.7660    8.8380  -19.0430 C.3       9 GLL5        0.0000 
     26 CA        -13.9590    4.9050  -19.6835 C.3       3 GLC5        0.0000 
     27 CA        -14.2150    6.8720  -19.5640 C.3       9 GLL5        0.0000 
     28 CA        -13.7030    2.9380  -19.8030 C.3       6 GLP5        0.0000 
     29 CA        -20.0115    3.5777  -16.8750 C.3       3 GLC5        0.0000 
     30 CA        -20.3860    5.2290  -16.0840 C.3       9 GLL5        0.0000 
     31 CA        -20.5410    6.9072  -16.8870 C.3       3 GLC5        0.0000 
     32 CA        -19.4220    5.2900  -17.0940 C.3       9 GLL5        0.0000 
     33 CA        -21.1780    8.5550  -17.1850 C.3       6 GLP5        0.0000 
     34 CA        -22.9475    6.4928  -13.6465 C.3       3 GLC5        0.0000 
     35 CA        -24.7300    6.6750  -14.8310 C.3       6 GLP5        0.0000 
     36 CA        -21.4507    2.9140  -10.1532 C.3       3 GLC5        0.0000 
     37 CA        -21.9160    1.2650   -8.9930 C.3       6 GLP5        0.0000 
     38 CA        -18.5700    2.5789  -11.8371 C.3       3 GLC5        0.0000 
     39 CA        -20.1330    4.0370  -12.8620 C.3       9 GLL5        0.0000 
     40 CA        -17.2200    1.7430  -10.8590 C.3       6 GLP5        0.0000 
     41 CA        -21.7713    3.2574  -12.8920 C.3       3 GLC5        0.0000 
     42 CA        -23.7240    2.8000  -12.4540 C.3       6 GLP5        0.0000 
     43 CA        -22.4664    4.1140  -12.0094 C.3       3 GLC5        0.0000 
     44 CA        -20.6610    3.9980  -11.5730 C.3       9 GLL5        0.0000 
     45 CA        -17.3428    3.7208  -20.0097 C.3       3 GLC5        0.0000 
     46 CA        -18.5810    5.6310  -19.5520 C.3       9 GLL5        0.0000 
     47 CA        -16.0740    2.1180  -19.8420 C.3       6 GLP5        0.0000 
     48 CA        -17.7180    7.9117  -21.1937 C.3       3 GLC5        0.0000 
     49 CA        -18.3860    9.1680  -22.6270 C.3       6 GLP5        0.0000 
     50 CA        -16.6203    3.9170  -20.7360 C.3       3 GLC5        0.0000 
     51 CA        -16.6500    6.1580  -21.4890 C.3       9 GLL5        0.0000 
     52 CA        -17.7763    7.4420  -22.1285 C.3       3 GLC5        0.0000 
     53 CA        -17.6830    5.2740  -21.7710 C.3       9 GLL5        0.0000 
     54 CA        -16.9885    8.7218  -21.0813 C.3       3 GLC5        0.0000 
     55 CA        -15.4160    7.7130  -20.0280 C.3       9 GLL5        0.0000 
     56 CA        -15.7363   10.9422  -19.4847 C.3       3 GLC5        0.0000 
     57 CA        -16.3190   12.6930  -20.2180 C.3       6 GLP5        0.0000 
@<TRIPOS>BOND
@<TRIPOS>SUBSTRUCTURE
     1 ALC1        1 GROUP        1 X    ALC  0     ROOT ALC X 1
     2 SEC2       15 GROUP        1 X    SEC  0     **** SEC X 2
     3 GLC5        4 GROUP        1 X    GLC  0     **** GLC X 6
     4 ALP1        3 GROUP        1 Y    ALP  0     ROOT ALP Y 8
     5 SEP2       17 GROUP        1 Y    SEP  0     **** SEP Y 9
     6 GLP5        6 GROUP        1 Y    GLP  0     **** GLP Y 13
     7 ALL1        2 GROUP        1 Z    ALL  0     ROOT ALL Z 15
     8 SEL2       16 GROUP        1 Z    SEL  0     **** SEL Z 16
     9 GLL5        5 GROUP        1 Z    GLL  0     **** GLL Z 20
@<TRIPOS>SET

