#    Name: 3piz_03C_1_ligand
#    Modification time : Tue Mar 25 06:39:28 2014

@<TRIPOS>MOLECULE
3piz_03C_1_ligand
   57    60     1     0     0
SMALL
NO_CHARGES


@<TRIPOS>ATOM
      1 N1        -19.7270    5.2440  -14.8630 N.pl3     1 03C1        0.0000 
      2 C2        -20.2550    5.1980  -13.6320 C.ar      1 03C1        0.0000 
      3 C3        -20.3860    5.2290  -16.0840 C.2       1 03C1        0.0000 
      4 N4        -18.3610    5.3140  -15.1180 N.2       1 03C1        0.0000 
      5 C5        -20.1330    4.0370  -12.8620 C.ar      1 03C1        0.0000 
      6 C6        -20.8980    6.3280  -13.1080 C.ar      1 03C1        0.0000 
      7 C7        -19.4220    5.2900  -17.0940 C.2       1 03C1        0.0000 
      8 N8        -21.7300    5.1590  -16.2510 N.pl3     1 03C1        0.0000 
      9 C9        -18.1730    5.3390  -16.4900 C.2       1 03C1        0.0000 
     10 C10       -20.6610    3.9980  -11.5730 C.ar      1 03C1        0.0000 
     11 C11       -19.4430    2.8120  -13.4130 C.3       1 03C1        0.0000 
     12 C12       -21.4320    6.2930  -11.8160 C.ar      1 03C1        0.0000 
     13 C13       -19.6680    5.2980  -18.5650 C.2       1 03C1        0.0000 
     14 C14       -21.3100    5.1280  -11.0540 C.ar      1 03C1        0.0000 
     15 C15       -18.5810    5.6310  -19.5520 C.ar      1 03C1        0.0000 
     16 O16       -20.7760    5.0230  -18.9910 O.2       1 03C1        0.0000 
     17 C17       -17.5360    6.5230  -19.2710 C.ar      1 03C1        0.0000 
     18 C18       -18.6420    5.0160  -20.8030 C.ar      1 03C1        0.0000 
     19 C19       -16.5640    6.7880  -20.2500 C.ar      1 03C1        0.0000 
     20 C20       -17.6830    5.2740  -21.7710 C.ar      1 03C1        0.0000 
     21 C21       -15.4160    7.7130  -20.0280 C.3       1 03C1        0.0000 
     22 C22       -16.6500    6.1580  -21.4890 C.ar      1 03C1        0.0000 
     23 C23       -15.7660    8.8380  -19.0430 C.3       1 03C1        0.0000 
     24 C24       -14.2150    6.8720  -19.5640 C.3       1 03C1        0.0000 
     25 C25       -14.5410    9.5450  -18.4600 C.3       1 03C1        0.0000 
     26 C26       -13.0840    7.7140  -18.9730 C.3       1 03C1        0.0000 
     27 N27       -13.6430    8.5250  -17.8740 N.pl3     1 03C1        0.0000 
     28 S28       -12.4590    9.1470  -16.9530 S.o2      1 03C1        0.0000 
     29 O29       -11.3860    8.1800  -16.8700 O.2       1 03C1        0.0000 
     30 O30       -11.9620   10.3850  -17.5040 O.2       1 03C1        0.0000 
     31 C31       -13.0300    9.4410  -15.4170 C.3       1 03C1        0.0000 
     32 H         -20.9761    7.1798  -13.6733 H         1 03C1        0.0000 
     33 H         -22.2323    4.6357  -15.5627 H         1 03C1        0.0000 
     34 H         -22.0999    5.6369  -17.0477 H         1 03C1        0.0000 
     35 H         -17.3392    5.3820  -16.9393 H         1 03C1        0.0000 
     36 H         -20.5778    3.1510  -11.0045 H         1 03C1        0.0000 
     37 H         -21.9072    7.1124  -11.4329 H         1 03C1        0.0000 
     38 H         -21.6999    5.0965  -10.1012 H         1 03C1        0.0000 
     39 H         -17.4808    6.9790  -18.3580 H         1 03C1        0.0000 
     40 H         -19.4146    4.3592  -21.0076 H         1 03C1        0.0000 
     41 H         -17.7356    4.8165  -22.6869 H         1 03C1        0.0000 
     42 H         -15.1448    8.1643  -20.9856 H         1 03C1        0.0000 
     43 H         -15.9324    6.3528  -22.2091 H         1 03C1        0.0000 
     44 H         -16.3622    8.4165  -18.2206 H         1 03C1        0.0000 
     45 H         -16.3955    9.5777  -19.5587 H         1 03C1        0.0000 
     46 H         -13.8304    6.3024  -20.4198 H         1 03C1        0.0000 
     47 H         -14.5581    6.1507  -18.8112 H         1 03C1        0.0000 
     48 H         -14.8728   10.2447  -17.7007 H         1 03C1        0.0000 
     49 H         -14.0398   10.0843  -19.2564 H         1 03C1        0.0000 
     50 H         -12.6804    8.3485  -19.7527 H         1 03C1        0.0000 
     51 H         -12.3119    7.0487  -18.6061 H         1 03C1        0.0000 
     52 H         -18.4922    3.0004  -13.6589 H         1 03C1        0.0000 
     53 H         -19.4315    2.0628  -12.7508 H         1 03C1        0.0000 
     54 H         -19.8962    2.4690  -14.2358 H         1 03C1        0.0000 
     55 H         -12.3214    9.8240  -14.8244 H         1 03C1        0.0000 
     56 H         -13.7908   10.0900  -15.4215 H         1 03C1        0.0000 
     57 H         -13.3599    8.6057  -14.9772 H         1 03C1        0.0000 
@<TRIPOS>BOND
     1    2    1 1    
     2    3    1 1    
     3    4    1 1    
     4    5    2 ar   
     5    6    2 ar   
     6    7    3 2    
     7    8    3 1    
     8    9    4 2    
     9   10    5 ar   
    10   11    5 1    
    11   12    6 ar   
    12   32    6 1    
    13    9    7 1    
    14   13    7 1    
    15   33    8 1    
    16   34    8 1    
    17   35    9 1    
    18   14   10 ar   
    19   36   10 1    
    20   52   11 1    
    21   53   11 1    
    22   54   11 1    
    23   14   12 ar   
    24   37   12 1    
    25   15   13 1    
    26   16   13 2    
    27   38   14 1    
    28   17   15 ar   
    29   18   15 ar   
    30   19   17 ar   
    31   39   17 1    
    32   20   18 ar   
    33   40   18 1    
    34   21   19 1    
    35   22   19 ar   
    36   22   20 ar   
    37   41   20 1    
    38   23   21 1    
    39   24   21 1    
    40   42   21 1    
    41   43   22 1    
    42   25   23 1    
    43   44   23 1    
    44   45   23 1    
    45   26   24 1    
    46   46   24 1    
    47   47   24 1    
    48   27   25 1    
    49   48   25 1    
    50   49   25 1    
    51   27   26 1    
    52   50   26 1    
    53   51   26 1    
    54   28   27 1    
    55   29   28 2    
    56   30   28 2    
    57   31   28 1    
    58   55   31 1    
    59   56   31 1    
    60   57   31 1    
@<TRIPOS>SUBSTRUCTURE
     1 03C1        1 GROUP   
@<TRIPOS>SET

