#    Name: 4glx_0XS_1_INTS_M
#    Modification time : Mon Mar 24 22:32:11 2014

@<TRIPOS>MOLECULE
4glx_0XS_1_INTS_M
   53     0     9     0     0
SMALL
NO_CHARGES


@<TRIPOS>ATOM
      1 CA         27.2335    1.9270    4.5750 C.3       3 GLC5        0.0000 
      2 CA         27.6240    3.9060    4.8310 C.3       9 GLL5        0.0000 
      3 CA         26.8430   -0.0520    4.3190 C.3       6 GLP5        0.0000 
      4 CA         28.2350    5.1120    3.1850 C.3       3 GLC5        0.0000 
      5 CA         28.8460    6.3180    1.5390 C.3       6 GLP5        0.0000 
      6 CA         28.9660    3.5815    3.3295 C.3       3 GLC5        0.0000 
      7 CA         30.3080    3.2570    1.8280 C.3       6 GLP5        0.0000 
      8 CA         23.9495    5.7875    3.4880 C.3       3 GLC5        0.0000 
      9 CA         25.0110    4.0110    4.3310 C.3       9 GLL5        0.0000 
     10 CA         22.8880    7.5640    2.6450 C.3       6 GLP5        0.0000 
     11 N          21.8225    3.7715    2.7260 N.am      2 SEC2        0.0000 
     12 N          23.0340    3.2520    3.4550 N.am      8 SEL2        0.0000 
     13 N          20.6110    4.2910    1.9970 N.am      5 SEP2        0.0000 
     14 O          21.2225    4.9150    4.7980 O.2       1 ALC1        0.0000 
     15 O          22.8580    4.8650    5.0420 O.2       7 ALL1        0.0000 
     16 O          19.5870    4.9650    4.5540 O.2       4 ALP1        0.0000 
     17 O          23.4115    4.8735    6.6735 O.2       1 ALC1        0.0000 
     18 O          23.9650    4.8820    8.3050 O.2       4 ALP1        0.0000 
     19 O          26.4690    1.8025    1.5415 O.2       1 ALC1        0.0000 
     20 O          25.4940    2.7530    2.2670 O.2       7 ALL1        0.0000 
     21 O          27.4440    0.8520    0.8160 O.2       4 ALP1        0.0000 
     22 O          24.4275    3.0775    1.1155 O.2       1 ALC1        0.0000 
     23 O          23.3610    3.4020   -0.0360 O.2       4 ALP1        0.0000 
     24 N          28.4385    2.7565    3.2150 N.am      2 SEC2        0.0000 
     25 N          27.1710    3.3180    3.7190 N.am      8 SEL2        0.0000 
     26 N          29.7060    2.1950    2.7110 N.am      5 SEP2        0.0000 
     27 CA         32.5910    6.8445    7.0400 C.3       3 GLC5        0.0000 
     28 CA         31.5450    5.3980    6.8760 C.3       9 GLL5        0.0000 
     29 CA         33.6370    8.2910    7.2040 C.3       6 GLP5        0.0000 
     30 CA         29.2405    2.3930    7.5265 C.3       3 GLC5        0.0000 
     31 CA         31.1390    3.3080    7.2280 C.3       9 GLL5        0.0000 
     32 CA         27.3420    1.4780    7.8250 C.3       6 GLP5        0.0000 
     33 CA         31.6545    3.5705    3.4385 C.3       3 GLC5        0.0000 
     34 CA         31.4750    4.0060    5.1880 C.3       9 GLL5        0.0000 
     35 CA         31.8340    3.1350    1.6890 C.3       6 GLP5        0.0000 
     36 CA         33.0920    4.1645    4.9085 C.3       3 GLC5        0.0000 
     37 CA         34.7090    4.3230    4.6290 C.3       6 GLP5        0.0000 
     38 CA         32.1955    5.7900    4.1665 C.3       3 GLC5        0.0000 
     39 CA         32.9160    7.5740    3.1450 C.3       6 GLP5        0.0000 
     40 CA         26.9096    6.3662    5.1086 C.3       3 GLC5        0.0000 
     41 CA         27.4170    8.2520    4.6850 C.3       6 GLP5        0.0000 
     42 CA         26.1433    1.8135    4.1005 C.3       3 GLC5        0.0000 
     43 CA         25.9194    5.1559    2.9035 C.3       3 GLC5        0.0000 
     44 CA         25.8760    3.3470    3.4330 C.3       9 GLL5        0.0000 
     45 CA         26.2820    6.4870    1.6350 C.3       6 GLP5        0.0000 
     46 CA         28.7775    7.1030    6.7905 C.3       3 GLC5        0.0000 
     47 CA         28.6810    5.0710    7.1400 C.3       9 GLL5        0.0000 
     48 CA         28.4590    8.7230    5.6730 C.3       6 GLP5        0.0000 
     49 CA         30.3726    6.6344    5.8924 C.3       3 GLC5        0.0000 
     50 CA         29.4810    4.4460    6.1860 C.3       9 GLL5        0.0000 
     51 CA         29.8620    8.3780    5.2070 C.3       6 GLP5        0.0000 
     52 CA         33.0086    4.0579    6.4786 C.3       3 GLC5        0.0000 
     53 CA         34.8210    4.0320    6.0310 C.3       6 GLP5        0.0000 
@<TRIPOS>BOND
@<TRIPOS>SUBSTRUCTURE
     1 ALC1       14 GROUP        1 X    ALC  0     ROOT ALC X 1
     2 SEC2       11 GROUP        1 X    SEC  0     **** SEC X 2
     3 GLC5        1 GROUP        1 X    GLC  0     **** GLC X 6
     4 ALP1       16 GROUP        1 Y    ALP  0     ROOT ALP Y 8
     5 SEP2       13 GROUP        1 Y    SEP  0     **** SEP Y 9
     6 GLP5        3 GROUP        1 Y    GLP  0     **** GLP Y 13
     7 ALL1       15 GROUP        1 Z    ALL  0     ROOT ALL Z 15
     8 SEL2       12 GROUP        1 Z    SEL  0     **** SEL Z 16
     9 GLL5        2 GROUP        1 Z    GLL  0     **** GLL Z 20
@<TRIPOS>SET

