#    Name: 4glx_0XS_1_ligand
#    Modification time : Mon Mar 24 22:32:11 2014

@<TRIPOS>MOLECULE
4glx_0XS_1_ligand
   25    26     1     0     0
SMALL
NO_CHARGES


@<TRIPOS>ATOM
      1 C4         27.3170    5.1160    6.8920 C.ar      1 0XS603      0.0000 
      2 C6         30.9620    4.3210    6.3730 C.3       1 0XS603      0.0000 
      3 C7         26.7970    4.5390    5.7390 C.ar      1 0XS603      0.0000 
      4 C8         27.6240    3.9060    4.8310 C.ar      1 0XS603      0.0000 
      5 C12        25.4640    4.5940    5.4910 C.ar      1 0XS603      0.0000 
      6 C14        25.0110    4.0110    4.3310 C.ar      1 0XS603      0.0000 
      7 C15        25.8760    3.3470    3.4330 C.ar      1 0XS603      0.0000 
      8 O18        23.0340    3.2520    3.4550 O.2       1 0XS603      0.0000 
      9 C16        23.5490    4.0680    4.2060 C.2       1 0XS603      0.0000 
     10 N19        22.8580    4.8650    5.0420 N.am      1 0XS603      0.0000 
     11 C2         28.6810    5.0710    7.1400 C.ar      1 0XS603      0.0000 
     12 BR1        29.5110    5.8950    8.6760 Br        1 0XS603      0.0000 
     13 N17        25.4940    2.7530    2.2670 N.pl3     1 0XS603      0.0000 
     14 N13        27.1710    3.3180    3.7190 N.ar      1 0XS603      0.0000 
     15 N5         28.9400    3.9010    5.0610 N.ar      1 0XS603      0.0000 
     16 C3         29.4810    4.4460    6.1860 C.ar      1 0XS603      0.0000 
     17 F9         31.5450    5.3980    6.8760 F         1 0XS603      0.0000 
     18 F10        31.1390    3.3080    7.2280 F         1 0XS603      0.0000 
     19 F11        31.4750    4.0060    5.1880 F         1 0XS603      0.0000 
     20 H          26.6865    5.5779    7.5631 H         1 0XS603      0.0000 
     21 H          24.8168    5.0477    6.1340 H         1 0XS603      0.0000 
     22 H          23.4008    5.3969    5.6920 H         1 0XS603      0.0000 
     23 H          21.8634    4.8542    4.9386 H         1 0XS603      0.0000 
     24 H          26.2189    2.3062    1.7427 H         1 0XS603      0.0000 
     25 H          24.5225    2.8163    2.0386 H         1 0XS603      0.0000 
@<TRIPOS>BOND
     1    3    1 ar   
     2   11    1 ar   
     3   20    1 1    
     4   16    2 1    
     5   17    2 1    
     6   18    2 1    
     7   19    2 1    
     8    4    3 ar   
     9    5    3 ar   
    10   14    4 ar   
    11   15    4 ar   
    12    6    5 ar   
    13   21    5 1    
    14    7    6 ar   
    15    9    6 1    
    16   13    7 1    
    17   14    7 ar   
    18    9    8 2    
    19   10    9 am   
    20   22   10 1    
    21   23   10 1    
    22   12   11 1    
    23   16   11 ar   
    24   24   13 1    
    25   25   13 1    
    26   16   15 ar   
@<TRIPOS>SUBSTRUCTURE
     1 0XS603      1 GROUP   
@<TRIPOS>SET

