#    Name: 1d3g_BRE_1_INTS_M
#    Modification time : Mon Mar 24 21:22:56 2014

@<TRIPOS>MOLECULE
1d3g_BRE_1_INTS_M
   92     0     9     0     0
SMALL
NO_CHARGES


@<TRIPOS>ATOM
      1 CA         50.0540   45.1235   -4.8470 C.3       3 GLC5        0.0000 
      2 CA         50.0330   43.3060   -5.2500 C.3       9 GLL5        0.0000 
      3 CA         50.0750   46.9410   -4.4440 C.3       6 GLP5        0.0000 
      4 CA         52.0165   44.0300   -5.8300 C.3       3 GLC5        0.0000 
      5 CA         54.0000   44.7540   -6.4100 C.3       6 GLP5        0.0000 
      6 CA         49.1775   43.3795   -7.0010 C.3       3 GLC5        0.0000 
      7 CA         48.3220   43.4530   -8.7520 C.3       6 GLP5        0.0000 
      8 CA         48.4290   44.0275   -3.9015 C.3       3 GLC5        0.0000 
      9 CA         46.8250   44.7490   -2.5530 C.3       6 GLP5        0.0000 
     10 CA         49.8525   39.1555   -1.9875 C.3       3 GLC5        0.0000 
     11 CA         48.5240   40.5940   -3.0520 C.3       9 GLL5        0.0000 
     12 CA         51.1810   37.7170   -0.9230 C.3       6 GLP5        0.0000 
     13 CA         50.6645   39.8425   -1.5760 C.3       3 GLC5        0.0000 
     14 CA         49.1130   40.9190   -1.8360 C.3       9 GLL5        0.0000 
     15 CA         52.2160   38.7660   -1.3160 C.3       6 GLP5        0.0000 
     16 NZ         47.8385   40.4380   -7.4845 N.4       2 LYC4        0.0000 
     17 NZ         47.1710   41.2320   -5.8680 N.4       8 LYL4        0.0000 
     18 NZ         47.4130   39.7570   -9.2930 N.4       5 LYP4        0.0000 
     19 N          46.7565   42.4960   -6.6355 N.am      1 SEC2        0.0000 
     20 N          47.1710   41.2320   -5.8680 N.am      7 SEL2        0.0000 
     21 N          46.3420   43.7600   -7.4030 N.am      4 SEP2        0.0000 
     22 N          46.8395   40.8240   -7.2290 N.am      1 SEC2        0.0000 
     23 N          46.5080   40.4160   -8.5900 N.am      4 SEP2        0.0000 
     24 NZ         48.8920   39.9690   -7.6045 N.4       2 LYC4        0.0000 
     25 NZ         49.1690   40.4600   -6.3790 N.4       8 LYL4        0.0000 
     26 N          47.8385   40.4380   -7.4845 N.am      1 SEC2        0.0000 
     27 N          49.1690   40.4600   -6.3790 N.am      7 SEL2        0.0000 
     28 N          48.8920   39.9690   -7.6045 N.am      1 SEC2        0.0000 
     29 N          48.6150   39.4780   -8.8300 N.am      4 SEP2        0.0000 
     30 CA         44.4690   37.7720   -2.4305 C.3       3 GLC5        0.0000 
     31 CA         46.3970   37.9740   -1.9620 C.3       9 GLL5        0.0000 
     32 CA         42.5410   37.5700   -2.8990 C.3       6 GLP5        0.0000 
     33 CA         54.9510   44.6840   -0.1895 C.3       3 GLC5        0.0000 
     34 CA         54.6510   46.7710   -0.1480 C.3       9 GLL5        0.0000 
     35 CA         55.2510   42.5970   -0.2310 C.3       6 GLP5        0.0000 
     36 CA         52.8995   47.9930   -3.7030 C.3       3 GLC5        0.0000 
     37 CA         54.6160   47.7880   -2.3290 C.3       9 GLL5        0.0000 
     38 CA         51.1830   48.1980   -5.0770 C.3       6 GLP5        0.0000 
     39 CA         54.5205   47.9215    2.1280 C.3       3 GLC5        0.0000 
     40 CA         55.6780   47.6130    0.2470 C.3       9 GLL5        0.0000 
     41 CA         53.3630   48.2300    4.0090 C.3       6 GLP5        0.0000 
     42 CA         56.0650   50.6870   -0.3510 C.3       3 GLC5        0.0000 
     43 CA         56.1860   48.5320   -0.6530 C.3       9 GLL5        0.0000 
     44 CA         55.9440   52.8420   -0.0490 C.3       6 GLP5        0.0000 
     45 CA         47.7433   42.6295   -3.3480 C.3       3 GLC5        0.0000 
     46 CA         49.7120   42.4580   -4.0370 C.3       9 GLL5        0.0000 
     47 CA         46.2050   43.3440   -2.5960 C.3       6 GLP5        0.0000 
     48 CA         52.2125   42.9810   -1.4693 C.3       3 GLC5        0.0000 
     49 CA         50.2340   42.7540   -2.7920 C.3       9 GLL5        0.0000 
     50 CA         53.7230   42.6490   -0.3010 C.3       6 GLP5        0.0000 
     51 CA         50.8361   41.1055   -4.8027 C.3       3 GLC5        0.0000 
     52 CA         52.2200   40.1160   -5.6650 C.3       6 GLP5        0.0000 
     53 CA         50.9008   45.4540   -3.6700 C.3       3 GLC5        0.0000 
     54 CA         52.2830   44.0620   -3.3090 C.3       9 GLL5        0.0000 
     55 CA         47.5427   41.7048   -1.8475 C.3       3 GLC5        0.0000 
     56 CA         46.2670   42.6530   -1.2510 C.3       6 GLP5        0.0000 
     57 CA         53.3620   44.6562   -4.7683 C.3       3 GLC5        0.0000 
     58 CA         53.2235   43.6038   -1.7138 C.3       3 GLC5        0.0000 
     59 CA         53.1650   45.0550   -2.9440 C.3       9 GLL5        0.0000 
     60 CA         50.7550   46.0382   -2.8113 C.3       3 GLC5        0.0000 
     61 CA         50.9840   44.6410   -1.3570 C.3       9 GLL5        0.0000 
     62 CA         52.5790   43.8922   -0.7397 C.3       3 GLC5        0.0000 
     63 CA         50.0685   45.9217    0.1678 C.3       3 GLC5        0.0000 
     64 CA         48.7020   46.7080    1.5140 C.3       6 GLP5        0.0000 
     65 CA         48.8340   44.3630   -2.2751 C.3       3 GLC5        0.0000 
     66 CA         46.8505   40.9292   -1.8780 C.3       3 GLC5        0.0000 
     67 CA         47.5990   39.5560   -3.0780 C.3       9 GLL5        0.0000 
     68 CA         47.2968   41.1707   -0.9777 C.3       3 GLC5        0.0000 
     69 CA         48.7810   40.2100   -0.6860 C.3       9 GLL5        0.0000 
     70 CA         51.5778   46.1993   -3.4152 C.3       3 GLC5        0.0000 
     71 CA         52.2395   47.8850   -1.1053 C.3       3 GLC5        0.0000 
     72 CA         52.9960   45.8600   -1.8290 C.3       9 GLL5        0.0000 
     73 CA         52.0380   50.0250   -0.7960 C.3       6 GLP5        0.0000 
     74 CA         49.4894   38.4944   -1.1206 C.3       3 GLC5        0.0000 
     75 CA         47.8720   39.1670   -0.7230 C.3       9 GLL5        0.0000 
     76 CA         46.2430   36.8103   -2.6295 C.3       3 GLC5        0.0000 
     77 CA         47.2690   38.8550   -1.9320 C.3       9 GLL5        0.0000 
     78 CA         45.6530   35.2060   -3.3120 C.3       6 GLP5        0.0000 
     79 CA         53.6285   44.5108   -0.9635 C.3       3 GLC5        0.0000 
     80 CA         47.2782   37.8029   -4.1267 C.3       3 GLC5        0.0000 
     81 CA         47.6410   37.0160   -6.0200 C.3       6 GLP5        0.0000 
     82 CA         46.0274   37.5418   -0.1894 C.3       3 GLC5        0.0000 
     83 CA         45.0710   36.5910    1.2660 C.3       6 GLP5        0.0000 
     84 CA         53.1910   48.6807   -1.3360 C.3       3 GLC5        0.0000 
     85 CA         54.0720   46.8850   -1.4230 C.3       9 GLL5        0.0000 
     86 CA         54.0713   48.6775    0.2132 C.3       3 GLC5        0.0000 
     87 CA         52.9780   50.1630    0.3770 C.3       6 GLP5        0.0000 
     88 CA         57.4920   46.7062   -0.1110 C.3       3 GLC5        0.0000 
     89 CA         59.0520   45.3400   -0.0190 C.3       6 GLP5        0.0000 
     90 CA         56.1330   48.8443    1.4035 C.3       3 GLC5        0.0000 
     91 CA         56.3340   49.6160    3.0100 C.3       6 GLP5        0.0000 
     92 CA         54.4453   49.3717   -0.4535 C.3       3 GLC5        0.0000 
@<TRIPOS>BOND
@<TRIPOS>SUBSTRUCTURE
     1 SEC2       19 GROUP        1 X    SEC  0     ROOT SEC X 2
     2 LYC4       16 GROUP        1 X    LYC  0     **** LYC X 4
     3 GLC5        1 GROUP        1 X    GLC  0     **** GLC X 6
     4 SEP2       21 GROUP        1 Y    SEP  0     ROOT SEP Y 9
     5 LYP4       18 GROUP        1 Y    LYP  0     **** LYP Y 11
     6 GLP5        3 GROUP        1 Y    GLP  0     **** GLP Y 13
     7 SEL2       20 GROUP        1 Z    SEL  0     ROOT SEL Z 16
     8 LYL4       17 GROUP        1 Z    LYL  0     **** LYL Z 18
     9 GLL5        2 GROUP        1 Z    GLL  0     **** GLL Z 20
@<TRIPOS>SET

