#    Name: 1d3g_BRE_1_ligand
#    Modification time : Mon Mar 24 21:22:56 2014

@<TRIPOS>MOLECULE
1d3g_BRE_1_ligand
   42    45     1     0     0
SMALL
NO_CHARGES


@<TRIPOS>ATOM
      1 C1         50.0330   43.3060   -5.2500 C.3       1 BRE397      0.0000 
      2 C2         49.7120   42.4580   -4.0370 C.ar      1 BRE397      0.0000 
      3 C3         50.2340   42.7540   -2.7920 C.ar      1 BRE397      0.0000 
      4 C4         48.8510   41.3720   -4.1630 C.ar      1 BRE397      0.0000 
      5 N1         49.9670   41.9490   -1.7270 N.ar      1 BRE397      0.0000 
      6 C5         48.2990   41.0310   -5.5210 C.2       1 BRE397      0.0000 
      7 C23        51.1700   43.8720   -2.4830 C.ar      1 BRE397      0.0000 
      8 C6         48.5240   40.5940   -3.0520 C.ar      1 BRE397      0.0000 
      9 C7         49.1130   40.9190   -1.8360 C.ar      1 BRE397      0.0000 
     10 C8         52.2830   44.0620   -3.3090 C.ar      1 BRE397      0.0000 
     11 C9         50.9840   44.6410   -1.3570 C.ar      1 BRE397      0.0000 
     12 O1         47.1710   41.2320   -5.8680 O.co2     1 BRE397      0.0000 
     13 O2         49.1690   40.4600   -6.3790 O.co2     1 BRE397      0.0000 
     14 C10        47.5990   39.5560   -3.0780 C.ar      1 BRE397      0.0000 
     15 C11        48.7810   40.2100   -0.6860 C.ar      1 BRE397      0.0000 
     16 C12        53.1650   45.0550   -2.9440 C.ar      1 BRE397      0.0000 
     17 C13        51.8860   45.6300   -1.0000 C.ar      1 BRE397      0.0000 
     18 C14        47.2690   38.8550   -1.9320 C.ar      1 BRE397      0.0000 
     19 C15        47.8720   39.1670   -0.7230 C.ar      1 BRE397      0.0000 
     20 C16        52.9960   45.8600   -1.8290 C.ar      1 BRE397      0.0000 
     21 F1         46.3970   37.9740   -1.9620 F         1 BRE397      0.0000 
     22 C17        54.0720   46.8850   -1.4230 C.ar      1 BRE397      0.0000 
     23 C18        54.6510   46.7710   -0.1480 C.ar      1 BRE397      0.0000 
     24 C19        54.6160   47.7880   -2.3290 C.ar      1 BRE397      0.0000 
     25 C20        55.6780   47.6130    0.2470 C.ar      1 BRE397      0.0000 
     26 C21        56.1860   48.5320   -0.6530 C.ar      1 BRE397      0.0000 
     27 C22        55.6390   48.6290   -1.9150 C.ar      1 BRE397      0.0000 
     28 H          52.4233   43.4945   -4.1289 H         1 BRE397      0.0000 
     29 H          50.1478   44.4790   -0.7573 H         1 BRE397      0.0000 
     30 H          47.1474   39.3037   -3.9797 H         1 BRE397      0.0000 
     31 H          49.2251   40.4705    0.2153 H         1 BRE397      0.0000 
     32 H          54.0192   45.2144   -3.5457 H         1 BRE397      0.0000 
     33 H          51.7548   46.1832   -0.1563 H         1 BRE397      0.0000 
     34 H          47.6495   38.6382    0.1207 H         1 BRE397      0.0000 
     35 H          54.2996   46.0454    0.4990 H         1 BRE397      0.0000 
     36 H          54.2655   47.8311   -3.2894 H         1 BRE397      0.0000 
     37 H          56.0573   47.5544    1.1986 H         1 BRE397      0.0000 
     38 H          56.9703   49.1411   -0.3798 H         1 BRE397      0.0000 
     39 H          55.9995   49.3490   -2.5755 H         1 BRE397      0.0000 
     40 H          51.0146   43.3264   -5.4397 H         1 BRE397      0.0000 
     41 H          49.5824   42.9616   -6.0737 H         1 BRE397      0.0000 
     42 H          49.7381   44.2538   -5.1291 H         1 BRE397      0.0000 
@<TRIPOS>BOND
     1    2    1 1    
     2   40    1 1    
     3   41    1 1    
     4   42    1 1    
     5    3    2 ar   
     6    4    2 ar   
     7    5    3 ar   
     8    7    3 1    
     9    6    4 1    
    10    8    4 ar   
    11    9    5 ar   
    12   12    6 ar   
    13   13    6 ar   
    14   10    7 ar   
    15   11    7 ar   
    16    9    8 ar   
    17   14    8 ar   
    18   15    9 ar   
    19   16   10 ar   
    20   28   10 1    
    21   17   11 ar   
    22   29   11 1    
    23   18   14 ar   
    24   30   14 1    
    25   19   15 ar   
    26   31   15 1    
    27   20   16 ar   
    28   32   16 1    
    29   20   17 ar   
    30   33   17 1    
    31   19   18 ar   
    32   21   18 1    
    33   34   19 1    
    34   22   20 1    
    35   23   22 ar   
    36   24   22 ar   
    37   25   23 ar   
    38   35   23 1    
    39   27   24 ar   
    40   36   24 1    
    41   26   25 ar   
    42   37   25 1    
    43   27   26 ar   
    44   38   26 1    
    45   39   27 1    
@<TRIPOS>SUBSTRUCTURE
     1 BRE397      1 GROUP   
@<TRIPOS>SET

