#    Name: 2dft_ADP_2_INTS_M
#    Modification time : Tue Mar 25 10:06:44 2014

@<TRIPOS>MOLECULE
2dft_ADP_2_INTS_M
   75     0    15     0     0
SMALL
NO_CHARGES


@<TRIPOS>ATOM
      1 NZ         40.1045   23.2360   74.2740 N.4       3 LYC4        0.0000 
      2 NZ         39.1370   24.1480   74.6780 N.4      13 LYL4        0.0000 
      3 NZ         41.0720   22.3240   73.8700 N.4       8 LYP4        0.0000 
      4 N          39.1195   25.0045   75.9865 N.am      2 SEC2        0.0000 
      5 N          39.1370   24.1480   74.6780 N.am     12 SEL2        0.0000 
      6 N          39.1020   25.8610   77.2950 N.am      7 SEP2        0.0000 
      7 N          39.8105   25.4710   74.9220 N.am      2 SEC2        0.0000 
      8 N          40.4840   26.7940   75.1660 N.am      7 SEP2        0.0000 
      9 N          40.1045   23.2360   74.2740 N.am      2 SEC2        0.0000 
     10 N          41.0720   22.3240   73.8700 N.am      7 SEP2        0.0000 
     11 Zn         38.7685   25.1530   71.5740 Zn        4 ZIC7        0.0000 
     12 Zn         38.4880   25.6550   72.7000 Zn       14 ZIL7        0.0000 
     13 Zn         39.0490   24.6510   70.4480 Zn        9 ZIP7        0.0000 
     14 N          39.1350   26.8695   72.7465 N.am      2 SEC2        0.0000 
     15 N          38.4880   25.6550   72.7000 N.am     12 SEL2        0.0000 
     16 N          39.7820   28.0840   72.7930 N.am      7 SEP2        0.0000 
     17 N          38.5975   26.4455   71.5570 N.am      2 SEC2        0.0000 
     18 N          38.7070   27.2360   70.4140 N.am      7 SEP2        0.0000 
     19 NZ         39.3765   22.8105   73.2845 N.4       3 LYC4        0.0000 
     20 NZ         37.6810   23.2970   72.6990 N.4      13 LYL4        0.0000 
     21 NZ         36.1895   23.1425   72.6640 N.4       3 LYC4        0.0000 
     22 NZ         34.4420   21.7190   72.3000 N.4       8 LYP4        0.0000 
     23 N          36.5620   22.0625   72.4290 N.am      2 SEC2        0.0000 
     24 N          37.6810   23.2970   72.6990 N.am     12 SEL2        0.0000 
     25 N          35.4430   20.8280   72.1590 N.am      7 SEP2        0.0000 
     26 N          36.1895   23.1425   72.6640 N.am      2 SEC2        0.0000 
     27 N          34.6980   22.9880   72.6290 N.am      7 SEP2        0.0000 
     28 N          38.2725   27.8895   73.6275 N.am      2 SEC2        0.0000 
     29 N          36.7630   27.6950   74.4620 N.am     12 SEL2        0.0000 
     30 N          37.4840   28.8660   74.0730 N.am      2 SEC2        0.0000 
     31 N          38.2050   30.0370   73.6840 N.am      7 SEP2        0.0000 
     32 N          36.1135   28.8225   74.6675 N.am      2 SEC2        0.0000 
     33 N          35.4640   29.9500   74.8730 N.am      7 SEP2        0.0000 
     34 CA         35.0925   23.9250   76.0760 C.3       5 GLC5        0.0000 
     35 CA         33.8460   25.5250   75.2240 C.3      15 GLL5        0.0000 
     36 CA         36.3390   22.3250   76.9280 C.3      10 GLP5        0.0000 
     37 CA         30.7980   29.1450   75.3505 C.3       5 GLC5        0.0000 
     38 CA         32.6360   27.8930   75.3940 C.3      15 GLL5        0.0000 
     39 CA         28.9600   30.3970   75.3070 C.3      10 GLP5        0.0000 
     40 N          30.7975   29.1870   75.1850 N.am      2 SEC2        0.0000 
     41 N          31.2340   28.2570   75.3030 N.am     12 SEL2        0.0000 
     42 N          30.3610   30.1170   75.0670 N.am      7 SEP2        0.0000 
     43 O          30.4955   28.5920   76.1605 O.2       1 ALC1        0.0000 
     44 O          31.2340   28.2570   75.3030 O.2      11 ALL1        0.0000 
     45 O          29.7570   28.9270   77.0180 O.2       6 ALP1        0.0000 
     46 CA         34.8550   29.6555   75.9980 C.3       5 GLC5        0.0000 
     47 CA         33.1070   28.7600   76.5200 C.3      15 GLL5        0.0000 
     48 CA         36.6030   30.5510   75.4760 C.3      10 GLP5        0.0000 
     49 CA         30.9630   29.3665   76.6375 C.3       5 GLC5        0.0000 
     50 CA         28.8190   29.9730   76.7550 C.3      10 GLP5        0.0000 
     51 O          31.1745   29.8900   75.8250 O.2       1 ALC1        0.0000 
     52 O          31.9880   29.6630   76.5830 O.2      11 ALL1        0.0000 
     53 O          30.3610   30.1170   75.0670 O.2       6 ALP1        0.0000 
     54 CA         32.8540   26.0515   78.9490 C.3       5 GLC5        0.0000 
     55 CA         33.0020   27.8600   77.7380 C.3      15 GLL5        0.0000 
     56 CA         32.7060   24.2430   80.1600 C.3      10 GLP5        0.0000 
     57 CA         35.6285   30.5815   83.5495 C.3       5 GLC5        0.0000 
     58 CA         35.2370   29.1950   81.9140 C.3      15 GLL5        0.0000 
     59 CA         36.0200   31.9680   85.1850 C.3      10 GLP5        0.0000 
     60 O          36.5800   29.5640   84.2570 O.2       1 ALC1        0.0000 
     61 O          36.3210   29.5360   82.6850 O.2      11 ALL1        0.0000 
     62 O          36.8390   29.5920   85.8290 O.2       6 ALP1        0.0000 
     63 CA         31.4100   28.8250   83.1115 C.3       5 GLC5        0.0000 
     64 CA         32.9540   29.1960   81.9290 C.3      15 GLL5        0.0000 
     65 CA         29.8660   28.4540   84.2940 C.3      10 GLP5        0.0000 
     66 CA         33.9385   30.8805   81.4895 C.3       5 GLC5        0.0000 
     67 CA         34.9230   32.5650   81.0500 C.3      10 GLP5        0.0000 
     68 CA         32.9690   24.7353   77.2152 C.3       5 GLC5        0.0000 
     69 CA         32.8240   26.4500   75.8970 C.3      15 GLL5        0.0000 
     70 CA         32.6030   23.4830   78.8700 C.3      10 GLP5        0.0000 
     71 CA         34.3595   26.5442   80.3713 C.3       5 GLC5        0.0000 
     72 CA         33.9580   28.5130   79.9110 C.3      15 GLL5        0.0000 
     73 CA         34.1450   24.4680   80.5110 C.3      10 GLP5        0.0000 
     74 CA         34.7544   30.6511   80.8110 C.3       5 GLC5        0.0000 
     75 CA         35.1900   28.7280   80.5520 C.3      15 GLL5        0.0000 
@<TRIPOS>BOND
@<TRIPOS>SUBSTRUCTURE
     1 ALC1       43 GROUP        1 X    ALC  0     ROOT ALC X 1
     2 SEC2        4 GROUP        1 X    SEC  0     **** SEC X 2
     3 LYC4        1 GROUP        1 X    LYC  0     **** LYC X 4
     4 ZIC7       11 GROUP        1 X    ZIC  0     **** ZIC X 5
     5 GLC5       34 GROUP        1 X    GLC  0     **** GLC X 6
     6 ALP1       45 GROUP        1 Y    ALP  0     ROOT ALP Y 8
     7 SEP2        6 GROUP        1 Y    SEP  0     **** SEP Y 9
     8 LYP4        3 GROUP        1 Y    LYP  0     **** LYP Y 11
     9 ZIP7       13 GROUP        1 Y    ZIP  0     **** ZIP Y 12
    10 GLP5       36 GROUP        1 Y    GLP  0     **** GLP Y 13
    11 ALL1       44 GROUP        1 Z    ALL  0     ROOT ALL Z 15
    12 SEL2        5 GROUP        1 Z    SEL  0     **** SEL Z 16
    13 LYL4        2 GROUP        1 Z    LYL  0     **** LYL Z 18
    14 ZIL7       12 GROUP        1 Z    ZIL  0     **** ZIL Z 19
    15 GLL5       35 GROUP        1 Z    GLL  0     **** GLL Z 20
@<TRIPOS>SET

