#    Name: 2dft_ADP_2_ligand
#    Modification time : Tue Mar 25 10:06:44 2014

@<TRIPOS>MOLECULE
2dft_ADP_2_ligand
   38    40     1     0     0
SMALL
NO_CHARGES


@<TRIPOS>ATOM
      1 PB         38.1670   24.4680   73.5660 P.3       1 ADP181      0.0000 
      2 O1B        39.1370   24.1480   74.6780 O.co2     1 ADP181      0.0000 
      3 O2B        38.4880   25.6550   72.7000 O.co2     1 ADP181      0.0000 
      4 O3B        37.6810   23.2970   72.6990 O.co2     1 ADP181      0.0000 
      5 PA         36.1210   26.3610   74.2250 P.3       1 ADP181      0.0000 
      6 O1A        35.5780   25.9180   72.9400 O.co2     1 ADP181      0.0000 
      7 O2A        36.7630   27.6950   74.4620 O.co2     1 ADP181      0.0000 
      8 O3A        37.0170   25.0600   74.5210 O.3       1 ADP181      0.0000 
      9 O5'        35.0120   26.3170   75.4030 O.3       1 ADP181      0.0000 
     10 C5'        33.8460   25.5250   75.2240 C.3       1 ADP181      0.0000 
     11 C4'        32.8240   26.4500   75.8970 C.3       1 ADP181      0.0000 
     12 O4'        33.2520   26.5940   77.2440 O.3       1 ADP181      0.0000 
     13 C3'        32.6360   27.8930   75.3940 C.3       1 ADP181      0.0000 
     14 O3'        31.2340   28.2570   75.3030 O.3       1 ADP181      0.0000 
     15 C2'        33.1070   28.7600   76.5200 C.3       1 ADP181      0.0000 
     16 O2'        31.9880   29.6630   76.5830 O.3       1 ADP181      0.0000 
     17 C1'        33.0020   27.8600   77.7380 C.3       1 ADP181      0.0000 
     18 N9         34.0860   28.0900   78.6560 N.pl3     1 ADP181      0.0000 
     19 C8         35.3760   28.0060   78.4100 C.2       1 ADP181      0.0000 
     20 N7         36.0630   28.3630   79.5600 N.2       1 ADP181      0.0000 
     21 C5         35.1900   28.7280   80.5520 C.ar      1 ADP181      0.0000 
     22 C6         35.2370   29.1950   81.9140 C.ar      1 ADP181      0.0000 
     23 N6         36.3210   29.5360   82.6850 N.pl3     1 ADP181      0.0000 
     24 N1         34.0770   29.4790   82.5690 N.ar      1 ADP181      0.0000 
     25 C2         32.9540   29.1960   81.9290 C.ar      1 ADP181      0.0000 
     26 N3         32.8580   28.7980   80.6420 N.ar      1 ADP181      0.0000 
     27 C4         33.9580   28.5130   79.9110 C.ar      1 ADP181      0.0000 
     28 H          33.8772   24.6190   75.7640 H         1 ADP181      0.0000 
     29 H          33.5748   25.4154   74.2102 H         1 ADP181      0.0000 
     30 H          31.8514   25.9588   75.9003 H         1 ADP181      0.0000 
     31 H          33.1746   28.0767   74.5492 H         1 ADP181      0.0000 
     32 H          33.9812   29.1537   76.3698 H         1 ADP181      0.0000 
     33 H          32.0688   27.9506   78.1758 H         1 ADP181      0.0000 
     34 H          35.8089   27.7458   77.5878 H         1 ADP181      0.0000 
     35 H          32.0218   29.2886   82.4775 H         1 ADP181      0.0000 
     36 H          31.0279   28.7114   76.1696 H         1 ADP181      0.0000 
     37 H          31.8264   29.9412   75.6362 H         1 ADP181      0.0000 
     38 H          36.0317   29.3672   83.6272 H         1 ADP181      0.0000 
@<TRIPOS>BOND
     1    2    1 ar   
     2    3    1 ar   
     3    4    1 ar   
     4    8    1 1    
     5    6    5 ar   
     6    7    5 ar   
     7    8    5 1    
     8    9    5 1    
     9   10    9 1    
    10   11   10 1    
    11   28   10 1    
    12   29   10 1    
    13   12   11 1    
    14   13   11 1    
    15   30   11 1    
    16   17   12 1    
    17   14   13 1    
    18   15   13 1    
    19   31   13 1    
    20   36   14 1    
    21   16   15 1    
    22   17   15 1    
    23   32   15 1    
    24   37   16 1    
    25   18   17 1    
    26   33   17 1    
    27   19   18 1    
    28   27   18 1    
    29   20   19 2    
    30   34   19 1    
    31   21   20 1    
    32   22   21 ar   
    33   27   21 ar   
    34   23   22 1    
    35   24   22 ar   
    36   38   23 1    
    37   25   24 ar   
    38   26   25 ar   
    39   35   25 1    
    40   27   26 ar   
@<TRIPOS>SUBSTRUCTURE
     1 ADP181      1 GROUP   
@<TRIPOS>SET

