#    Name: 3dmg_SAH_1_INTS_M
#    Modification time : Mon Mar 24 23:47:02 2014

@<TRIPOS>MOLECULE
3dmg_SAH_1_INTS_M
   64     0     9     0     0
SMALL
NO_CHARGES


@<TRIPOS>ATOM
      1 O          25.2035   59.1485   21.1825 O.2       1 ALC1        0.0000 
      2 O          24.4110   58.5370   22.1500 O.2       7 ALL1        0.0000 
      3 O          25.9960   59.7600   20.2150 O.2       4 ALP1        0.0000 
      4 O          23.1720   59.2475   22.2620 O.2       1 ALC1        0.0000 
      5 O          21.9330   59.9580   22.3740 O.2       4 ALP1        0.0000 
      6 CA         26.8320   56.6300   23.3300 C.3       3 GLC5        0.0000 
      7 CA         26.3630   56.3690   21.3700 C.3       9 GLL5        0.0000 
      8 CA         27.3010   56.8910   25.2900 C.3       6 GLP5        0.0000 
      9 CA         26.7585   53.9350   20.1245 C.3       3 GLC5        0.0000 
     10 CA         27.5270   55.3700   20.4040 C.3       9 GLL5        0.0000 
     11 CA         25.9900   52.5000   19.8450 C.3       6 GLP5        0.0000 
     12 N          23.8480   55.6910   24.7275 N.am      2 SEC2        0.0000 
     13 N          23.9260   56.5550   23.7860 N.am      8 SEL2        0.0000 
     14 N          23.7700   54.8270   25.6690 N.am      5 SEP2        0.0000 
     15 N          23.3420   55.0420   24.0100 N.am      2 SEC2        0.0000 
     16 N          22.9140   55.2570   22.3510 N.am      8 SEL2        0.0000 
     17 CA         30.5240   57.2970   20.0455 C.3       3 GLC5        0.0000 
     18 CA         28.6820   56.6530   19.8120 C.3       9 GLL5        0.0000 
     19 CA         32.3660   57.9410   20.2790 C.3       6 GLP5        0.0000 
     20 CA         27.8230   59.3650   18.9130 C.3       3 GLC5        0.0000 
     21 CA         28.1090   57.4810   18.6590 C.3       9 GLL5        0.0000 
     22 CA         27.5370   61.2490   19.1670 C.3       6 GLP5        0.0000 
     23 CA         26.6355   54.8005   17.9295 C.3       3 GLC5        0.0000 
     24 CA         27.6470   56.6850   17.4200 C.3       9 GLL5        0.0000 
     25 CA         25.6240   52.9160   18.4390 C.3       6 GLP5        0.0000 
     26 O          26.0260   58.2365   16.6670 O.2       1 ALC1        0.0000 
     27 O          26.3000   56.9950   17.1050 O.2       7 ALL1        0.0000 
     28 O          25.7520   59.4780   16.2290 O.2       4 ALP1        0.0000 
     29 O          27.4650   58.1220   14.6625 O.2       1 ALC1        0.0000 
     30 O          28.1790   57.1150   15.0480 O.2       7 ALL1        0.0000 
     31 O          26.7510   59.1290   14.2770 O.2       4 ALP1        0.0000 
     32 CA         28.2705   59.8970   18.0390 C.3       3 GLC5        0.0000 
     33 CA         29.0040   58.5450   16.9110 C.3       9 GLL5        0.0000 
     34 CA         33.1670   63.4280   15.8695 C.3       3 GLC5        0.0000 
     35 CA         32.0810   61.8220   15.0800 C.3       9 GLL5        0.0000 
     36 CA         34.2530   65.0340   16.6590 C.3       6 GLP5        0.0000 
     37 O          33.8025   63.1740   13.7610 O.2       1 ALC1        0.0000 
     38 O          33.2600   62.0060   14.4480 O.2       7 ALL1        0.0000 
     39 O          34.3450   64.3420   13.0740 O.2       4 ALP1        0.0000 
     40 N          31.6085   64.2580   15.2015 N.am      2 SEC2        0.0000 
     41 N          31.2390   62.8830   15.3730 N.am      8 SEL2        0.0000 
     42 N          31.9780   65.6330   15.0300 N.am      5 SEP2        0.0000 
     43 CA         28.7730   61.9860   17.5700 C.3       3 GLC5        0.0000 
     44 CA         30.0090   62.7230   15.9730 C.3       9 GLL5        0.0000 
     45 CA         28.1760   62.7245   15.4230 C.3       3 GLC5        0.0000 
     46 CA         26.3430   62.7260   14.8730 C.3       6 GLP5        0.0000 
     47 CA         30.1140   62.0305   14.1800 C.3       3 GLC5        0.0000 
     48 CA         30.2190   61.3380   12.3870 C.3       6 GLP5        0.0000 
     49 CA         31.0280   64.4970   16.1680 C.3       3 GLC5        0.0000 
     50 CA         32.0470   66.2710   16.3630 C.3       6 GLP5        0.0000 
     51 N          28.8025   61.6830   14.8305 N.am      2 SEC2        0.0000 
     52 N          29.5450   61.4640   16.3100 N.am      8 SEL2        0.0000 
     53 N          28.0600   61.9020   13.3510 N.am      5 SEP2        0.0000 
     54 CA         28.9570   60.8315   17.6150 C.3       3 GLC5        0.0000 
     55 CA         30.3770   60.4140   16.0630 C.3       9 GLL5        0.0000 
     56 CA         23.7378   57.4988   19.3500 C.3       3 GLC5        0.0000 
     57 CA         25.0240   56.5870   20.6770 C.3       9 GLL5        0.0000 
     58 CA         22.9920   58.0820   17.5890 C.3       6 GLP5        0.0000 
     59 CA         25.4548   54.6980   20.9818 C.3       3 GLC5        0.0000 
     60 CA         25.2160   52.9180   20.9400 C.3       6 GLP5        0.0000 
     61 CA         30.6689   61.0695   14.0281 C.3       3 GLC5        0.0000 
     62 CA         31.6400   60.5540   15.4710 C.3       9 GLL5        0.0000 
     63 CA         32.8599   60.7475   16.6091 C.3       3 GLC5        0.0000 
     64 CA         34.6010   60.6940   17.5490 C.3       6 GLP5        0.0000 
@<TRIPOS>BOND
@<TRIPOS>SUBSTRUCTURE
     1 ALC1        1 GROUP        1 X    ALC  0     ROOT ALC X 1
     2 SEC2       12 GROUP        1 X    SEC  0     **** SEC X 2
     3 GLC5        6 GROUP        1 X    GLC  0     **** GLC X 6
     4 ALP1        3 GROUP        1 Y    ALP  0     ROOT ALP Y 8
     5 SEP2       14 GROUP        1 Y    SEP  0     **** SEP Y 9
     6 GLP5        8 GROUP        1 Y    GLP  0     **** GLP Y 13
     7 ALL1        2 GROUP        1 Z    ALL  0     ROOT ALL Z 15
     8 SEL2       13 GROUP        1 Z    SEL  0     **** SEL Z 16
     9 GLL5        7 GROUP        1 Z    GLL  0     **** GLL Z 20
@<TRIPOS>SET

