#    Name: 3dmg_SAH_1_ligand
#    Modification time : Mon Mar 24 23:47:02 2014

@<TRIPOS>MOLECULE
3dmg_SAH_1_ligand
   46    48     1     0     0
SMALL
NO_CHARGES


@<TRIPOS>ATOM
      1 N          24.4110   58.5370   22.1500 N.4       1 SAH388      0.0000 
      2 CA         23.9430   57.2440   21.5450 C.3       1 SAH388      0.0000 
      3 CB         25.0240   56.5870   20.6770 C.3       1 SAH388      0.0000 
      4 CG         26.3630   56.3690   21.3700 C.3       1 SAH388      0.0000 
      5 SD         27.5270   55.3700   20.4040 S.3       1 SAH388      0.0000 
      6 C          23.5470   56.2700   22.6440 C.2       1 SAH388      0.0000 
      7 O          23.9260   56.5550   23.7860 O.co2     1 SAH388      0.0000 
      8 OXT        22.9140   55.2570   22.3510 O.co2     1 SAH388      0.0000 
      9 C5'        28.6820   56.6530   19.8120 C.3       1 SAH388      0.0000 
     10 C4'        28.1090   57.4810   18.6590 C.3       1 SAH388      0.0000 
     11 O4'        29.1730   58.3580   18.2920 O.3       1 SAH388      0.0000 
     12 C3'        27.6470   56.6850   17.4200 C.3       1 SAH388      0.0000 
     13 O3'        26.3000   56.9950   17.1050 O.3       1 SAH388      0.0000 
     14 C2'        28.6570   57.1680   16.3730 C.3       1 SAH388      0.0000 
     15 O2'        28.1790   57.1150   15.0480 O.3       1 SAH388      0.0000 
     16 C1'        29.0040   58.5450   16.9110 C.3       1 SAH388      0.0000 
     17 N9         30.2010   59.0920   16.2910 N.pl3     1 SAH388      0.0000 
     18 C8         31.3110   58.4020   15.8620 C.2       1 SAH388      0.0000 
     19 N7         32.1830   59.3080   15.3500 N.2       1 SAH388      0.0000 
     20 C5         31.6400   60.5540   15.4710 C.ar      1 SAH388      0.0000 
     21 C6         32.0810   61.8220   15.0800 C.ar      1 SAH388      0.0000 
     22 N6         33.2600   62.0060   14.4480 N.pl3     1 SAH388      0.0000 
     23 N1         31.2390   62.8830   15.3730 N.ar      1 SAH388      0.0000 
     24 C2         30.0090   62.7230   15.9730 C.ar      1 SAH388      0.0000 
     25 N3         29.5450   61.4640   16.3100 N.ar      1 SAH388      0.0000 
     26 C4         30.3770   60.4140   16.0630 C.ar      1 SAH388      0.0000 
     27 H          23.0746   57.4242   20.9269 H         1 SAH388      0.0000 
     28 H          25.1817   57.2121   19.7771 H         1 SAH388      0.0000 
     29 H          24.6423   55.6126   20.3161 H         1 SAH388      0.0000 
     30 H          26.2864   55.8078   22.2868 H         1 SAH388      0.0000 
     31 H          26.9188   57.2787   21.5277 H         1 SAH388      0.0000 
     32 H          29.5414   56.0731   19.5385 H         1 SAH388      0.0000 
     33 H          28.8608   57.2229   20.7024 H         1 SAH388      0.0000 
     34 H          27.2782   58.0582   19.0394 H         1 SAH388      0.0000 
     35 H          27.8397   55.6633   17.6187 H         1 SAH388      0.0000 
     36 H          29.5516   56.5471   16.5337 H         1 SAH388      0.0000 
     37 H          28.1473   59.1827   16.7195 H         1 SAH388      0.0000 
     38 H          31.4353   57.4586   15.9186 H         1 SAH388      0.0000 
     39 H          33.4771   62.9465   14.1867 H         1 SAH388      0.0000 
     40 H          33.8112   61.1854   14.2974 H         1 SAH388      0.0000 
     41 H          29.4228   63.5538   16.1752 H         1 SAH388      0.0000 
     42 H          25.0820   58.9975   21.5689 H         1 SAH388      0.0000 
     43 H          23.6553   59.1770   22.2890 H         1 SAH388      0.0000 
     44 H          24.8428   58.3955   23.0408 H         1 SAH388      0.0000 
     45 H          26.3226   57.9376   16.7719 H         1 SAH388      0.0000 
     46 H          27.3233   57.6324   15.0608 H         1 SAH388      0.0000 
@<TRIPOS>BOND
     1    2    1 1    
     2   42    1 1    
     3   43    1 1    
     4   44    1 1    
     5    3    2 1    
     6    6    2 1    
     7   27    2 1    
     8    4    3 1    
     9   28    3 1    
    10   29    3 1    
    11    5    4 1    
    12   30    4 1    
    13   31    4 1    
    14    9    5 1    
    15    7    6 ar   
    16    8    6 ar   
    17   10    9 1    
    18   32    9 1    
    19   33    9 1    
    20   11   10 1    
    21   12   10 1    
    22   34   10 1    
    23   16   11 1    
    24   13   12 1    
    25   14   12 1    
    26   35   12 1    
    27   45   13 1    
    28   15   14 1    
    29   16   14 1    
    30   36   14 1    
    31   46   15 1    
    32   17   16 1    
    33   37   16 1    
    34   18   17 1    
    35   26   17 1    
    36   19   18 2    
    37   38   18 1    
    38   20   19 1    
    39   21   20 ar   
    40   26   20 ar   
    41   22   21 1    
    42   23   21 ar   
    43   39   22 1    
    44   40   22 1    
    45   24   23 ar   
    46   25   24 ar   
    47   41   24 1    
    48   26   25 ar   
@<TRIPOS>SUBSTRUCTURE
     1 SAH388      1 GROUP   
@<TRIPOS>SET

