#    Name: 4bzc_T8T_3_INTS_M
#    Modification time : Tue Mar 25 08:34:48 2014

@<TRIPOS>MOLECULE
4bzc_T8T_3_INTS_M
   73     0    15     0     0
SMALL
NO_CHARGES


@<TRIPOS>ATOM
      1 N          26.3990    4.6995   52.0205 N.am      2 SEC2        0.0000 
      2 N          26.0260    5.1910   50.8570 N.am     12 SEL2        0.0000 
      3 N          26.7720    4.2080   53.1840 N.am      7 SEP2        0.0000 
      4 O          25.6710    3.7820   52.0625 O.2       1 ALC1        0.0000 
      5 O          24.5700    3.3560   50.9410 O.2      11 ALL1        0.0000 
      6 O          26.7720    4.2080   53.1840 O.2       6 ALP1        0.0000 
      7 O          25.0210    2.8920   52.1370 O.2       1 ALC1        0.0000 
      8 O          25.4720    2.4280   53.3330 O.2       6 ALP1        0.0000 
      9 N          28.0425    7.0505   52.0625 N.am      2 SEC2        0.0000 
     10 N          27.4770    6.9350   50.7440 N.am     12 SEL2        0.0000 
     11 N          28.6080    7.1660   53.3810 N.am      7 SEP2        0.0000 
     12 N          27.4725    8.3665   50.4270 N.am      2 SEC2        0.0000 
     13 N          27.4680    9.7980   50.1100 N.am      7 SEP2        0.0000 
     14 N          26.9175    8.6870   49.0725 N.am      2 SEC2        0.0000 
     15 N          26.3670    7.5760   48.0350 N.am     12 SEL2        0.0000 
     16 CA         23.5365    8.0200   46.1160 C.3       5 GLC5        0.0000 
     17 CA         23.8170    5.8570   46.1700 C.3      15 GLL5        0.0000 
     18 CA         23.2560   10.1830   46.0620 C.3      10 GLP5        0.0000 
     19 CA         21.8420    3.9390   52.0505 C.3       5 GLC5        0.0000 
     20 CA         21.0570    3.2520   50.6920 C.3      15 GLL5        0.0000 
     21 CA         22.6270    4.6260   53.4090 C.3      10 GLP5        0.0000 
     22 CA         21.6595    1.7605   50.0565 C.3       5 GLC5        0.0000 
     23 CA         22.2620    0.2690   49.4210 C.3      10 GLP5        0.0000 
     24 NZ         15.5545    4.5600   48.0580 N.4       3 LYC4        0.0000 
     25 NZ         16.1480    4.3530   49.5440 N.4      13 LYL4        0.0000 
     26 NZ         14.9610    4.7670   46.5720 N.4       8 LYP4        0.0000 
     27 NZ         16.8135    0.3920   47.6730 N.4       3 LYC4        0.0000 
     28 NZ         18.2280    0.7700   48.2330 N.4      13 LYL4        0.0000 
     29 NZ         15.3990    0.0140   47.1130 N.4       8 LYP4        0.0000 
     30 NZ         19.5640    0.5965   48.5310 N.4       3 LYC4        0.0000 
     31 NZ         20.9000    0.4230   48.8290 N.4       8 LYP4        0.0000 
     32 Zn         18.3510    1.4875   47.4830 Zn        4 ZIC7        0.0000 
     33 Zn         18.2280    0.7700   48.2330 Zn       14 ZIL7        0.0000 
     34 Zn         18.4740    2.2050   46.7330 Zn        9 ZIP7        0.0000 
     35 Zn         19.2750    2.4240   47.4315 Zn        4 ZIC7        0.0000 
     36 Zn         20.0760    2.6430   48.1300 Zn       14 ZIL7        0.0000 
     37 N          20.4880    1.5330   48.4795 N.am      2 SEC2        0.0000 
     38 N          20.0760    2.6430   48.1300 N.am     12 SEL2        0.0000 
     39 N          20.9000    0.4230   48.8290 N.am      7 SEP2        0.0000 
     40 NZ         16.2260    3.9355   47.1560 N.4       3 LYC4        0.0000 
     41 NZ         17.4910    3.1040   47.7400 N.4      13 LYL4        0.0000 
     42 NZ         16.4450    1.5590   47.4265 N.4       3 LYC4        0.0000 
     43 Zn         17.9825    2.6545   47.2365 Zn        4 ZIC7        0.0000 
     44 Zn         17.4910    3.1040   47.7400 Zn       14 ZIL7        0.0000 
     45 NZ         17.0145    0.3490   52.0065 N.4       3 LYC4        0.0000 
     46 NZ         18.3370    0.0620   50.7200 N.4      13 LYL4        0.0000 
     47 NZ         15.6920    0.6360   53.2930 N.4       8 LYP4        0.0000 
     48 NZ         19.6185    0.2425   49.7745 N.4       3 LYC4        0.0000 
     49 N          19.6185    0.2425   49.7745 N.am      2 SEC2        0.0000 
     50 N          18.3370    0.0620   50.7200 N.am     12 SEL2        0.0000 
     51 NZ         15.8945    0.4800   51.3770 N.4       3 LYC4        0.0000 
     52 NZ         16.0970    0.3240   49.4610 N.4      13 LYL4        0.0000 
     53 NZ         15.7480    0.1690   48.2870 N.4       3 LYC4        0.0000 
     54 N          15.7480    0.1690   48.2870 N.am      2 SEC2        0.0000 
     55 N          16.0970    0.3240   49.4610 N.am     12 SEL2        0.0000 
     56 N          15.3990    0.0140   47.1130 N.am      7 SEP2        0.0000 
     57 CA         21.4780    7.4980   45.4040 C.3       5 GLC5        0.0000 
     58 CA         21.5190    5.5200   46.3040 C.3      15 GLL5        0.0000 
     59 CA         21.4370    9.4760   44.5040 C.3      10 GLP5        0.0000 
     60 CA         18.7460    6.3505   47.7520 C.3       5 GLC5        0.0000 
     61 CA         20.4250    5.5650   47.3780 C.3      15 GLL5        0.0000 
     62 CA         17.0670    7.1360   48.1260 C.3      10 GLP5        0.0000 
     63 N          21.6625    6.0715   49.0985 N.am      2 SEC2        0.0000 
     64 N          20.8870    5.0430   48.6020 N.am     12 SEL2        0.0000 
     65 N          22.4380    7.1000   49.5950 N.am      7 SEP2        0.0000 
     66 CA         26.8002    5.3520   47.2500 C.3       5 GLC5        0.0000 
     67 CA         25.0680    5.7890   48.3380 C.3      15 GLL5        0.0000 
     68 CA         28.0230    4.4980   45.8770 C.3      10 GLP5        0.0000 
     69 CA         25.4075    4.7878   45.3710 C.3       5 GLC5        0.0000 
     70 CA         27.0950    4.4530   44.6890 C.3      10 GLP5        0.0000 
     71 CA         23.1417    2.4970   47.2485 C.3       5 GLC5        0.0000 
     72 CA         23.6230    4.3880   45.9360 C.3      15 GLL5        0.0000 
     73 CA         23.3970    0.7140   48.4980 C.3      10 GLP5        0.0000 
@<TRIPOS>BOND
@<TRIPOS>SUBSTRUCTURE
     1 ALC1        4 GROUP        1 X    ALC  0     ROOT ALC X 1
     2 SEC2        1 GROUP        1 X    SEC  0     **** SEC X 2
     3 LYC4       24 GROUP        1 X    LYC  0     **** LYC X 4
     4 ZIC7       32 GROUP        1 X    ZIC  0     **** ZIC X 5
     5 GLC5       16 GROUP        1 X    GLC  0     **** GLC X 6
     6 ALP1        6 GROUP        1 Y    ALP  0     ROOT ALP Y 8
     7 SEP2        3 GROUP        1 Y    SEP  0     **** SEP Y 9
     8 LYP4       26 GROUP        1 Y    LYP  0     **** LYP Y 11
     9 ZIP7       34 GROUP        1 Y    ZIP  0     **** ZIP Y 12
    10 GLP5       18 GROUP        1 Y    GLP  0     **** GLP Y 13
    11 ALL1        5 GROUP        1 Z    ALL  0     ROOT ALL Z 15
    12 SEL2        2 GROUP        1 Z    SEL  0     **** SEL Z 16
    13 LYL4       25 GROUP        1 Z    LYL  0     **** LYL Z 18
    14 ZIL7       33 GROUP        1 Z    ZIL  0     **** ZIL Z 19
    15 GLL5       17 GROUP        1 Z    GLL  0     **** GLL Z 20
@<TRIPOS>SET

