#    Name: 4bzc_T8T_3_ligand
#    Modification time : Tue Mar 25 08:34:49 2014

@<TRIPOS>MOLECULE
4bzc_T8T_3_ligand
   43    45     1     0     0
SMALL
NO_CHARGES


@<TRIPOS>ATOM
      1 N1         26.0260    5.1910   50.8570 N.2       1 T8T900      0.0000 
      2 C2         25.0800    4.4410   50.2800 C.2       1 T8T900      0.0000 
      3 N2         24.5700    3.3560   50.9410 N.pl3     1 T8T900      0.0000 
      4 N3         24.6060    4.7500   49.0470 N.pl3     1 T8T900      0.0000 
      5 C4         25.0680    5.7890   48.3380 C.2       1 T8T900      0.0000 
      6 C5         26.0870    6.6230   48.9080 C.2       1 T8T900      0.0000 
      7 C6         26.5680    6.2470   50.2330 C.2       1 T8T900      0.0000 
      8 O6         27.4770    6.9350   50.7440 O.2       1 T8T900      0.0000 
      9 N7         26.3670    7.5760   48.0350 N.2       1 T8T900      0.0000 
     10 C8         25.5810    7.3860   46.9780 C.2       1 T8T900      0.0000 
     11 N9         24.8350    6.3000   47.1520 N.pl3     1 T8T900      0.0000 
     12 PA         20.1270    3.7660   49.1110 P.3       1 T8T900      0.0000 
     13 PB         17.3200    3.5120   49.2160 P.3       1 T8T900      0.0000 
     14 PG         17.5500    0.7060   49.5850 P.3       1 T8T900      0.0000 
     15 C1'        23.8170    5.8570   46.1700 C.3       1 T8T900      0.0000 
     16 S1A        21.0570    3.2520   50.6920 S.3       1 T8T900      0.0000 
     17 O1B        16.1480    4.3530   49.5440 O.co2     1 T8T900      0.0000 
     18 O1G        18.2280    0.7700   48.2330 O.co2     1 T8T900      0.0000 
     19 C2'        23.6230    4.3880   45.9360 C.3       1 T8T900      0.0000 
     20 O2A        20.0760    2.6430   48.1300 O.2       1 T8T900      0.0000 
     21 O2B        17.4910    3.1040   47.7400 O.co2     1 T8T900      0.0000 
     22 O2G        18.3370    0.0620   50.7200 O.co2     1 T8T900      0.0000 
     23 C3'        22.1500    4.1720   46.0620 C.3       1 T8T900      0.0000 
     24 O3'        21.5070    3.6770   44.8930 O.3       1 T8T900      0.0000 
     25 O3A        18.6770    4.2710   49.6390 O.3       1 T8T900      0.0000 
     26 O3B        17.4240    2.2270   50.1520 O.3       1 T8T900      0.0000 
     27 O3G        16.0970    0.3240   49.4610 O.co2     1 T8T900      0.0000 
     28 C4'        21.5190    5.5200   46.3040 C.3       1 T8T900      0.0000 
     29 O4'        22.5840    6.3710   46.6850 O.3       1 T8T900      0.0000 
     30 C5'        20.4250    5.5650   47.3780 C.3       1 T8T900      0.0000 
     31 O5'        20.8870    5.0430   48.6020 O.3       1 T8T900      0.0000 
     32 H          24.9048    3.2106   51.8720 H         1 T8T900      0.0000 
     33 H          23.9073    2.8040   50.4349 H         1 T8T900      0.0000 
     34 H          23.8418    4.1427   48.6353 H         1 T8T900      0.0000 
     35 H          25.5565    7.9661   46.1834 H         1 T8T900      0.0000 
     36 H          24.0058    6.3523   45.2134 H         1 T8T900      0.0000 
     37 H          24.1441    3.8270   46.6852 H         1 T8T900      0.0000 
     38 H          23.9514    4.1289   44.9498 H         1 T8T900      0.0000 
     39 H          21.9370    3.5667   46.9220 H         1 T8T900      0.0000 
     40 H          21.0946    5.8720   45.3641 H         1 T8T900      0.0000 
     41 H          19.5599    5.0015   46.9851 H         1 T8T900      0.0000 
     42 H          20.1020    6.6175   47.4696 H         1 T8T900      0.0000 
     43 H          21.5963    2.6826   44.9500 H         1 T8T900      0.0000 
@<TRIPOS>BOND
     1    2    1 2    
     2    7    1 1    
     3    3    2 1    
     4    4    2 1    
     5   32    3 1    
     6   33    3 1    
     7    5    4 1    
     8   34    4 1    
     9    6    5 2    
    10   11    5 1    
    11    7    6 1    
    12    9    6 1    
    13    8    7 2    
    14   10    9 2    
    15   11   10 1    
    16   35   10 1    
    17   15   11 1    
    18   16   12 1    
    19   20   12 2    
    20   25   12 1    
    21   31   12 1    
    22   17   13 ar   
    23   21   13 ar   
    24   25   13 1    
    25   26   13 1    
    26   18   14 ar   
    27   22   14 ar   
    28   26   14 1    
    29   27   14 ar   
    30   19   15 1    
    31   29   15 1    
    32   36   15 1    
    33   23   19 1    
    34   37   19 1    
    35   38   19 1    
    36   24   23 1    
    37   28   23 1    
    38   39   23 1    
    39   43   24 1    
    40   29   28 1    
    41   30   28 1    
    42   40   28 1    
    43   31   30 1    
    44   41   30 1    
    45   42   30 1    
@<TRIPOS>SUBSTRUCTURE
     1 T8T900      1 GROUP   
@<TRIPOS>SET

