#    Name: 3liv_E16_1_INTS_M
#    Modification time : Mon Mar 24 21:43:18 2014

@<TRIPOS>MOLECULE
3liv_E16_1_INTS_M
  105     0    12     0     0
SMALL
NO_CHARGES


@<TRIPOS>ATOM
      1 OD1        26.2715   27.9915   25.9750 O.co2     3 ASC3        0.0000 
      2 OD1        25.7050   28.0970   27.3270 O.co2    11 ASL3        0.0000 
      3 OD1        26.8380   27.8860   24.6230 O.co2     7 ASP3        0.0000 
      4 O          26.2715   27.9915   25.9750 O.2       1 ALC1        0.0000 
      5 O          25.7050   28.0970   27.3270 O.2       9 ALL1        0.0000 
      6 O          26.8380   27.8860   24.6230 O.2       5 ALP1        0.0000 
      7 N          23.6280   28.3830   23.8645 N.am      2 SEC2        0.0000 
      8 N          23.8980   29.0550   25.3150 N.am     10 SEL2        0.0000 
      9 N          23.3580   27.7110   22.4140 N.am      6 SEP2        0.0000 
     10 CA         27.4425   31.6290   24.4100 C.3       4 GLC5        0.0000 
     11 CA         25.8410   31.2760   25.9130 C.3      12 GLL5        0.0000 
     12 CA         29.0440   31.9820   22.9070 C.3       8 GLP5        0.0000 
     13 O          22.5705   30.2700   28.2905 O.2       1 ALC1        0.0000 
     14 O          22.3840   29.7500   26.9040 O.2       9 ALL1        0.0000 
     15 O          22.7570   30.7900   29.6770 O.2       5 ALP1        0.0000 
     16 CA         21.4090   29.4980   23.8830 C.3       4 GLC5        0.0000 
     17 CA         21.3470   29.8290   25.8950 C.3      12 GLL5        0.0000 
     18 CA         21.4710   29.1670   21.8710 C.3       8 GLP5        0.0000 
     19 CA         20.4240   25.6745   26.5685 C.3       4 GLC5        0.0000 
     20 CA         20.7760   27.3870   25.5340 C.3      12 GLL5        0.0000 
     21 CA         20.0720   23.9620   27.6030 C.3       8 GLP5        0.0000 
     22 CA         18.9125   29.6415   28.5045 C.3       4 GLC5        0.0000 
     23 CA         20.0240   28.5190   27.6390 C.3      12 GLL5        0.0000 
     24 CA         17.8010   30.7640   29.3700 C.3       8 GLP5        0.0000 
     25 CA         20.4305   27.7980   29.1290 C.3       4 GLC5        0.0000 
     26 CA         20.8370   27.0770   30.6190 C.3       8 GLP5        0.0000 
     27 CA         18.3840   29.9390   27.3910 C.3       4 GLC5        0.0000 
     28 CA         18.9670   29.1140   25.4120 C.3      12 GLL5        0.0000 
     29 CA         17.8335   27.2260   25.5645 C.3       4 GLC5        0.0000 
     30 CA         16.7000   25.3380   25.7170 C.3       8 GLP5        0.0000 
     31 CA         16.8700   28.9525   24.8310 C.3       4 GLC5        0.0000 
     32 CA         14.7730   28.7910   24.2500 C.3       8 GLP5        0.0000 
     33 O          21.8880   31.7880   23.6030 O.2       1 ALC1        0.0000 
     34 O          20.9440   32.0580   24.7580 O.2       9 ALL1        0.0000 
     35 O          22.8320   31.5180   22.4480 O.2       5 ALP1        0.0000 
     36 N          19.4495   35.7815   22.3775 N.am      2 SEC2        0.0000 
     37 N          18.3900   35.2970   23.1310 N.am     10 SEL2        0.0000 
     38 N          20.5090   36.2660   21.6240 N.am      6 SEP2        0.0000 
     39 CA         20.9175   32.8820   21.9255 C.3       4 GLC5        0.0000 
     40 CA         19.4260   33.2100   23.5060 C.3      12 GLL5        0.0000 
     41 CA         22.4090   32.5540   20.3450 C.3       8 GLP5        0.0000 
     42 N          20.3070   34.7960   21.9585 N.am      2 SEC2        0.0000 
     43 N          20.1050   33.3260   22.2930 N.am     10 SEL2        0.0000 
     44 O          19.6060   32.7830   21.1305 O.2       1 ALC1        0.0000 
     45 O          20.1050   33.3260   22.2930 O.2       9 ALL1        0.0000 
     46 O          19.1070   32.2400   19.9680 O.2       5 ALP1        0.0000 
     47 O          18.8970   32.5085   21.9205 O.2       1 ALC1        0.0000 
     48 O          17.6890   31.6910   21.5480 O.2       5 ALP1        0.0000 
     49 CA         20.4730   36.4535   27.9585 C.3       4 GLC5        0.0000 
     50 CA         21.7810   35.8170   26.6560 C.3      12 GLL5        0.0000 
     51 CA         19.1650   37.0900   29.2610 C.3       8 GLP5        0.0000 
     52 CA         22.7160   37.4065   26.3680 C.3       4 GLC5        0.0000 
     53 CA         22.5370   35.9930   27.9810 C.3      12 GLL5        0.0000 
     54 CA         22.8950   38.8200   24.7550 C.3       8 GLP5        0.0000 
     55 CA         22.4240   33.2810   28.9030 C.3       4 GLC5        0.0000 
     56 CA         23.9670   33.8080   27.4670 C.3      12 GLL5        0.0000 
     57 CA         20.8810   32.7540   30.3390 C.3       8 GLP5        0.0000 
     58 CA         14.5550   34.9825   27.6950 C.3       4 GLC5        0.0000 
     59 CA         13.6280   34.9570   25.7130 C.3      12 GLL5        0.0000 
     60 CA         15.4820   35.0080   29.6770 C.3       8 GLP5        0.0000 
     61 CA         13.7620   32.7605   22.3245 C.3       4 GLC5        0.0000 
     62 CA         14.0340   33.5620   23.7020 C.3      12 GLL5        0.0000 
     63 CA         13.4900   31.9590   20.9470 C.3       8 GLP5        0.0000 
     64 CA         15.4430   33.9330   27.8225 C.3       4 GLC5        0.0000 
     65 CA         15.4040   32.8580   25.9680 C.3      12 GLL5        0.0000 
     66 CA         14.3845   31.8050   27.3830 C.3       4 GLC5        0.0000 
     67 CA         13.3650   30.7520   28.7980 C.3       8 GLP5        0.0000 
     68 O          15.0160   37.8530   24.3425 O.2       1 ALC1        0.0000 
     69 O          15.7780   37.3420   25.3780 O.2       9 ALL1        0.0000 
     70 O          14.2540   38.3640   23.3070 O.2       5 ALP1        0.0000 
     71 CA         18.5235   38.5555   23.2135 C.3       4 GLC5        0.0000 
     72 CA         18.6140   38.3280   25.2760 C.3      12 GLL5        0.0000 
     73 CA         18.4330   38.7830   21.1510 C.3       8 GLP5        0.0000 
     74 CA         20.7545   38.5740   25.0155 C.3       4 GLC5        0.0000 
     75 CA         17.7095   39.5180   22.9590 C.3       4 GLC5        0.0000 
     76 CA         16.9860   40.2530   24.7670 C.3      12 GLL5        0.0000 
     77 CA         18.8970   41.3495   25.0730 C.3       4 GLC5        0.0000 
     78 CA         20.8080   42.4460   25.3790 C.3       8 GLP5        0.0000 
     79 CA         16.9805   42.0195   25.5545 C.3       4 GLC5        0.0000 
     80 CA         16.9750   43.7860   26.3420 C.3       8 GLP5        0.0000 
     81 CA         19.4485   41.1635   26.2180 C.3       4 GLC5        0.0000 
     82 CA         18.0890   39.8810   27.0570 C.3      12 GLL5        0.0000 
     83 CA         16.8795   40.0180   28.5035 C.3       4 GLC5        0.0000 
     84 CA         15.6700   40.1550   29.9500 C.3       8 GLP5        0.0000 
     85 CA         19.3475   40.3530   28.5910 C.3       4 GLC5        0.0000 
     86 CA         20.6060   40.8250   30.1250 C.3       8 GLP5        0.0000 
     87 CA         17.5320   41.8335   26.6995 C.3       4 GLC5        0.0000 
     88 CA         28.0970   32.3955   24.6077 C.3       4 GLC5        0.0000 
     89 CA         26.7320   32.5300   25.7180 C.3      12 GLL5        0.0000 
     90 CA         26.7410   32.2205   30.1197 C.3       4 GLC5        0.0000 
     91 CA         27.5010   32.3680   28.2740 C.3      12 GLL5        0.0000 
     92 CA         26.4270   32.7000   31.8690 C.3       8 GLP5        0.0000 
     93 CA         19.8894   28.5811   23.7222 C.3       4 GLC5        0.0000 
     94 CA         20.0310   28.5790   21.8220 C.3       8 GLP5        0.0000 
     95 CA         22.4252   37.0267   25.4815 C.3       4 GLC5        0.0000 
     96 CA         22.1300   34.6500   25.7600 C.3      12 GLL5        0.0000 
     97 CA         21.9820   34.1232   29.2625 C.3       4 GLC5        0.0000 
     98 CA         21.5500   35.9657   29.2515 C.3       4 GLC5        0.0000 
     99 CA         23.6290   34.9920   28.3910 C.3      12 GLL5        0.0000 
    100 CA         20.0170   36.4390   30.3170 C.3       8 GLP5        0.0000 
    101 CA         15.4283   30.7515   24.8732 C.3       4 GLC5        0.0000 
    102 CA         16.7630   32.5660   25.0250 C.3      12 GLL5        0.0000 
    103 CA         15.6205   39.4860   28.1685 C.3       4 GLC5        0.0000 
    104 CA         16.2100   38.3910   26.2930 C.3      12 GLL5        0.0000 
    105 CA         18.6014   37.9621   27.5890 C.3       4 GLC5        0.0000 
@<TRIPOS>BOND
@<TRIPOS>SUBSTRUCTURE
     1 ALC1        4 GROUP        1 X    ALC  0     ROOT ALC X 1
     2 SEC2        7 GROUP        1 X    SEC  0     **** SEC X 2
     3 ASC3        1 GROUP        1 X    ASC  0     **** ASC X 3
     4 GLC5       10 GROUP        1 X    GLC  0     **** GLC X 6
     5 ALP1        6 GROUP        1 Y    ALP  0     ROOT ALP Y 8
     6 SEP2        9 GROUP        1 Y    SEP  0     **** SEP Y 9
     7 ASP3        3 GROUP        1 Y    ASP  0     **** ASP Y 10
     8 GLP5       12 GROUP        1 Y    GLP  0     **** GLP Y 13
     9 ALL1        5 GROUP        1 Z    ALL  0     ROOT ALL Z 15
    10 SEL2        8 GROUP        1 Z    SEL  0     **** SEL Z 16
    11 ASL3        2 GROUP        1 Z    ASL  0     **** ASL Z 17
    12 GLL5       11 GROUP        1 Z    GLL  0     **** GLL Z 20
@<TRIPOS>SET

