#    Name: 3liv_E16_1_ligand
#    Modification time : Mon Mar 24 21:43:18 2014

@<TRIPOS>MOLECULE
3liv_E16_1_ligand
  101   103     1     0     0
SMALL
NO_CHARGES


@<TRIPOS>ATOM
      1 CBF        23.7120   29.3370   26.4580 C.2       1 E16117      0.0000 
      2 NAJ        25.7050   28.0970   27.3270 N.4       1 E16117      0.0000 
      3 OAK        23.8980   29.0550   25.3150 O.2       1 E16117      0.0000 
      4 CBM        24.8670   29.2960   27.4920 C.3       1 E16117      0.0000 
      5 CBK        25.7700   30.5520   27.2830 C.ar      1 E16117      0.0000 
      6 CAQ        27.5680   33.0880   26.8990 C.ar      1 E16117      0.0000 
      7 CAT        26.7320   32.5300   25.7180 C.ar      1 E16117      0.0000 
      8 CAU        27.5010   32.3680   28.2740 C.ar      1 E16117      0.0000 
      9 CAX        25.8410   31.2760   25.9130 C.ar      1 E16117      0.0000 
     10 CAY        26.6090   31.1140   28.4670 C.ar      1 E16117      0.0000 
     11 N          22.3840   29.7500   26.9040 N.am      1 E16117      0.0000 
     12 CA         21.3470   29.8290   25.8950 C.3       1 E16117      0.0000 
     13 CB         20.2810   28.7180   26.1320 C.3       1 E16117      0.0000 
     14 CAG        20.7760   27.3870   25.5340 C.3       1 E16117      0.0000 
     15 CG1        20.0240   28.5190   27.6390 C.3       1 E16117      0.0000 
     16 CG2        18.9670   29.1140   25.4120 C.3       1 E16117      0.0000 
     17 C          20.7370   31.2540   25.9530 C.2       1 E16117      0.0000 
     18 O          20.1290   31.6820   26.8930 O.2       1 E16117      0.0000 
     19 CBI        18.3150   34.2340   23.6120 C.2       1 E16117      0.0000 
     20 NBC        20.9440   32.0580   24.7580 N.am      1 E16117      0.0000 
     21 OAN        18.3900   35.2970   23.1310 O.2       1 E16117      0.0000 
     22 CBN        19.4260   33.2100   23.5060 C.3       1 E16117      0.0000 
     23 CBJ        22.1300   34.6500   25.7600 C.ar      1 E16117      0.0000 
     24 CBA        21.3870   34.4810   24.4530 C.3       1 E16117      0.0000 
     25 CAP        23.6290   34.9920   28.3910 C.ar      1 E16117      0.0000 
     26 CBO        20.3520   33.3800   24.7090 C.3       1 E16117      0.0000 
     27 OAO        20.1050   33.3260   22.2930 O.3       1 E16117      0.0000 
     28 CAV        21.7810   35.8170   26.6560 C.ar      1 E16117      0.0000 
     29 CAW        23.2140   33.6490   26.1460 C.ar      1 E16117      0.0000 
     30 CAR        22.5370   35.9930   27.9810 C.ar      1 E16117      0.0000 
     31 CAS        23.9670   33.8080   27.4670 C.ar      1 E16117      0.0000 
     32 CBH        16.4600   36.0630   25.3670 C.2       1 E16117      0.0000 
     33 NBR        17.1060   33.8910   24.3080 N.am      1 E16117      0.0000 
     34 OAM        17.3890   35.8970   26.0780 O.2       1 E16117      0.0000 
     35 CBQ        15.9500   34.9560   24.4240 C.3       1 E16117      0.0000 
     36 CBU        14.7020   34.1420   24.9520 C.3       1 E16117      0.0000 
     37 CAZ        16.7630   32.5660   25.0250 C.3       1 E16117      0.0000 
     38 CAH        13.6280   34.9570   25.7130 C.3       1 E16117      0.0000 
     39 CAI        14.0340   33.5620   23.7020 C.3       1 E16117      0.0000 
     40 SBE        15.4040   32.8580   25.9680 S.3       1 E16117      0.0000 
     41 NBB        15.7780   37.3420   25.3780 N.am      1 E16117      0.0000 
     42 CBL        16.2100   38.3910   26.2930 C.3       1 E16117      0.0000 
     43 CBS        17.4580   39.2080   25.8250 C.3       1 E16117      0.0000 
     44 CAA        14.9320   39.2430   26.4810 C.3       1 E16117      0.0000 
     45 CAB        18.6140   38.3280   25.2760 C.3       1 E16117      0.0000 
     46 CAC        16.9860   40.2530   24.7670 C.3       1 E16117      0.0000 
     47 CAD        18.0890   39.8810   27.0570 C.3       1 E16117      0.0000 
     48 H          24.4559   29.3521   28.4742 H         1 E16117      0.0000 
     49 H          28.1221   33.8709   26.7827 H         1 E16117      0.0000 
     50 H          26.7670   32.9710   24.8464 H         1 E16117      0.0000 
     51 H          28.0276   32.7101   29.0256 H         1 E16117      0.0000 
     52 H          25.3134   30.9347   25.1576 H         1 E16117      0.0000 
     53 H          26.5720   30.6717   29.3383 H         1 E16117      0.0000 
     54 H          22.2068   29.9639   27.8489 H         1 E16117      0.0000 
     55 H          21.7678   29.6895   24.9111 H         1 E16117      0.0000 
     56 H          21.4786   31.7069   23.9956 H         1 E16117      0.0000 
     57 H          18.9544   32.2217   23.6111 H         1 E16117      0.0000 
     58 H          22.0591   34.1635   23.6859 H         1 E16117      0.0000 
     59 H          20.8835   35.3873   24.1960 H         1 E16117      0.0000 
     60 H          24.1078   35.1059   29.2354 H         1 E16117      0.0000 
     61 H          19.7707   33.5751   25.5540 H         1 E16117      0.0000 
     62 H          21.0859   36.4558   26.4047 H         1 E16117      0.0000 
     63 H          23.4298   32.9006   25.5462 H         1 E16117      0.0000 
     64 H          22.3220   36.7492   28.5701 H         1 E16117      0.0000 
     65 H          24.6559   33.1677   27.7261 H         1 E16117      0.0000 
     66 H          15.7572   35.3207   23.4618 H         1 E16117      0.0000 
     67 H          17.5273   32.2790   25.6940 H         1 E16117      0.0000 
     68 H          16.4862   31.8144   24.3375 H         1 E16117      0.0000 
     69 H          15.0047   37.5094   24.7543 H         1 E16117      0.0000 
     70 H          16.4249   37.9467   27.2685 H         1 E16117      0.0000 
     71 H          26.4517   28.0715   27.9916 H         1 E16117      0.0000 
     72 H          25.1775   27.2560   27.4464 H         1 E16117      0.0000 
     73 H          26.1200   28.0561   26.4181 H         1 E16117      0.0000 
     74 H          20.9393   27.4598   24.5501 H         1 E16117      0.0000 
     75 H          21.6338   27.0882   25.9521 H         1 E16117      0.0000 
     76 H          20.1128   26.6505   25.6674 H         1 E16117      0.0000 
     77 H          20.8553   28.2497   28.1251 H         1 E16117      0.0000 
     78 H          19.6891   29.3557   28.0723 H         1 E16117      0.0000 
     79 H          19.3418   27.8078   27.8087 H         1 E16117      0.0000 
     80 H          19.1018   29.2243   24.4273 H         1 E16117      0.0000 
     81 H          18.2537   28.4239   25.5347 H         1 E16117      0.0000 
     82 H          18.6008   29.9785   25.7564 H         1 E16117      0.0000 
     83 H          14.0050   35.3995   26.5267 H         1 E16117      0.0000 
     84 H          13.2357   35.6784   25.1423 H         1 E16117      0.0000 
     85 H          12.8704   34.3797   26.0177 H         1 E16117      0.0000 
     86 H          14.6512   32.9584   23.1972 H         1 E16117      0.0000 
     87 H          13.2213   33.0258   23.9301 H         1 E16117      0.0000 
     88 H          13.7435   34.2798   23.0692 H         1 E16117      0.0000 
     89 H          15.0870   40.0136   27.0992 H         1 E16117      0.0000 
     90 H          14.6081   39.6229   25.6145 H         1 E16117      0.0000 
     91 H          14.1807   38.7060   26.8647 H         1 E16117      0.0000 
     92 H          19.3948   38.8804   24.9840 H         1 E16117      0.0000 
     93 H          18.9506   37.6853   25.9642 H         1 E16117      0.0000 
     94 H          18.3259   37.7870   24.4859 H         1 E16117      0.0000 
     95 H          17.7457   40.8085   24.4291 H         1 E16117      0.0000 
     96 H          16.5679   39.8137   23.9719 H         1 E16117      0.0000 
     97 H          16.3073   40.8831   25.1444 H         1 E16117      0.0000 
     98 H          18.3762   39.2099   27.7405 H         1 E16117      0.0000 
     99 H          18.8978   40.4165   26.8142 H         1 E16117      0.0000 
    100 H          17.4498   40.5037   27.5082 H         1 E16117      0.0000 
    101 H          19.5405   32.8314   21.6322 H         1 E16117      0.0000 
@<TRIPOS>BOND
     1    3    1 2    
     2    4    1 1    
     3   11    1 am   
     4    4    2 1    
     5   71    2 1    
     6   72    2 1    
     7   73    2 1    
     8    5    4 1    
     9   48    4 1    
    10    9    5 ar   
    11   10    5 ar   
    12    7    6 ar   
    13    8    6 ar   
    14   49    6 1    
    15    9    7 ar   
    16   50    7 1    
    17   10    8 ar   
    18   51    8 1    
    19   52    9 1    
    20   53   10 1    
    21   12   11 1    
    22   54   11 1    
    23   13   12 1    
    24   17   12 1    
    25   55   12 1    
    26   14   13 1    
    27   15   13 1    
    28   16   13 1    
    29   74   14 1    
    30   75   14 1    
    31   76   14 1    
    32   77   15 1    
    33   78   15 1    
    34   79   15 1    
    35   80   16 1    
    36   81   16 1    
    37   82   16 1    
    38   18   17 2    
    39   20   17 am   
    40   21   19 2    
    41   22   19 1    
    42   33   19 am   
    43   26   20 1    
    44   56   20 1    
    45   26   22 1    
    46   27   22 1    
    47   57   22 1    
    48   24   23 1    
    49   28   23 ar   
    50   29   23 ar   
    51   26   24 1    
    52   58   24 1    
    53   59   24 1    
    54   30   25 ar   
    55   31   25 ar   
    56   60   25 1    
    57   61   26 1    
    58  101   27 1    
    59   30   28 ar   
    60   62   28 1    
    61   31   29 ar   
    62   63   29 1    
    63   64   30 1    
    64   65   31 1    
    65   34   32 2    
    66   35   32 1    
    67   41   32 am   
    68   35   33 1    
    69   37   33 1    
    70   36   35 1    
    71   66   35 1    
    72   38   36 1    
    73   39   36 1    
    74   40   36 1    
    75   40   37 1    
    76   67   37 1    
    77   68   37 1    
    78   83   38 1    
    79   84   38 1    
    80   85   38 1    
    81   86   39 1    
    82   87   39 1    
    83   88   39 1    
    84   42   41 1    
    85   69   41 1    
    86   43   42 1    
    87   44   42 1    
    88   70   42 1    
    89   45   43 1    
    90   46   43 1    
    91   47   43 1    
    92   89   44 1    
    93   90   44 1    
    94   91   44 1    
    95   92   45 1    
    96   93   45 1    
    97   94   45 1    
    98   95   46 1    
    99   96   46 1    
   100   97   46 1    
   101   98   47 1    
   102   99   47 1    
   103  100   47 1    
@<TRIPOS>SUBSTRUCTURE
     1 E16117      1 GROUP   
@<TRIPOS>SET

