#    Name: 4c3x_FAD_2_INTS_M
#    Modification time : Tue Mar 25 08:48:39 2014

@<TRIPOS>MOLECULE
4c3x_FAD_2_INTS_M
  143     0     9     0     0
SMALL
NO_CHARGES


@<TRIPOS>ATOM
      1 N         -29.2310  -17.7800   59.9165 N.am      2 SEC2        0.0000 
      2 N         -28.7210  -18.0780   61.2450 N.am      8 SEL2        0.0000 
      3 N         -29.7410  -17.4820   58.5880 N.am      5 SEP2        0.0000 
      4 N         -27.9050  -18.0570   59.9395 N.am      2 SEC2        0.0000 
      5 N         -27.0890  -18.0360   58.6340 N.am      5 SEP2        0.0000 
      6 N         -27.4175  -17.3425   61.5205 N.am      2 SEC2        0.0000 
      7 N         -26.1140  -16.6070   61.7960 N.am      5 SEP2        0.0000 
      8 N         -30.8370  -19.7935   59.7090 N.am      2 SEC2        0.0000 
      9 N         -30.5990  -19.7520   61.1990 N.am      8 SEL2        0.0000 
     10 N         -31.0750  -19.8350   58.2190 N.am      5 SEP2        0.0000 
     11 N         -31.3520  -20.7225   60.7405 N.am      2 SEC2        0.0000 
     12 N         -32.1050  -21.6930   60.2820 N.am      5 SEP2        0.0000 
     13 CA        -28.0545  -18.0495   64.6285 C.3       3 GLC5        0.0000 
     14 CA        -29.7660  -17.2690   63.9280 C.3       9 GLL5        0.0000 
     15 CA        -26.3430  -18.8300   65.3290 C.3       6 GLP5        0.0000 
     16 CA        -31.7130  -16.0410   65.8845 C.3       3 GLC5        0.0000 
     17 CA        -30.5910  -16.0070   64.1650 C.3       9 GLL5        0.0000 
     18 CA        -32.8350  -16.0750   67.6040 C.3       6 GLP5        0.0000 
     19 CA        -30.7860  -15.4705   61.3365 C.3       3 GLC5        0.0000 
     20 CA        -30.3090  -14.9690   63.0630 C.3       9 GLL5        0.0000 
     21 CA        -31.2630  -15.9720   59.6100 C.3       6 GLP5        0.0000 
     22 N         -32.0660  -13.6565   61.3990 N.am      2 SEC2        0.0000 
     23 N         -31.5720  -14.3870   62.6230 N.am      8 SEL2        0.0000 
     24 N         -32.5600  -12.9260   60.1750 N.am      5 SEP2        0.0000 
     25 O         -32.4895  -13.8880   63.4055 O.2       1 ALC1        0.0000 
     26 O         -31.5720  -14.3870   62.6230 O.2       7 ALL1        0.0000 
     27 O         -33.4070  -13.3890   64.1880 O.2       4 ALP1        0.0000 
     28 CA        -28.3415  -12.8800   62.5295 C.3       3 GLC5        0.0000 
     29 CA        -29.5030  -13.8950   63.8290 C.3       9 GLL5        0.0000 
     30 CA        -27.1800  -11.8650   61.2300 C.3       6 GLP5        0.0000 
     31 O         -31.1415  -12.0740   63.3570 O.2       1 ALC1        0.0000 
     32 O         -29.8140  -12.5360   63.4270 O.2       7 ALL1        0.0000 
     33 O         -32.4690  -11.6120   63.2870 O.2       4 ALP1        0.0000 
     34 CA        -31.4440  -15.0680   66.4400 C.3       3 GLC5        0.0000 
     35 CA        -30.0530  -14.0610   65.2760 C.3       9 GLL5        0.0000 
     36 CA        -30.1225  -11.8775   65.7165 C.3       3 GLC5        0.0000 
     37 CA        -30.1920   -9.6940   66.1570 C.3       6 GLP5        0.0000 
     38 CA        -29.4400  -15.7065   66.4940 C.3       3 GLC5        0.0000 
     39 CA        -28.8270  -17.3520   67.7120 C.3       6 GLP5        0.0000 
     40 N         -26.0940  -12.8865   67.4435 N.am      2 SEC2        0.0000 
     41 N         -27.4410  -12.7380   67.5060 N.am      8 SEL2        0.0000 
     42 N         -24.7470  -13.0350   67.3810 N.am      5 SEP2        0.0000 
     43 CA        -29.8620  -13.1275   70.4385 C.3       3 GLC5        0.0000 
     44 CA        -28.7640  -11.7860   69.3160 C.3       9 GLL5        0.0000 
     45 CA        -30.9600  -14.4690   71.5610 C.3       6 GLP5        0.0000 
     46 CA        -28.5540   -9.7155   69.7055 C.3       3 GLC5        0.0000 
     47 CA        -28.3440   -7.6450   70.0950 C.3       6 GLP5        0.0000 
     48 CA        -29.0665  -11.7705   71.4080 C.3       3 GLC5        0.0000 
     49 CA        -29.3690  -11.7550   73.5000 C.3       6 GLP5        0.0000 
     50 CA        -26.6415  -11.9015   69.9070 C.3       3 GLC5        0.0000 
     51 CA        -24.5190  -12.0170   70.4980 C.3       6 GLP5        0.0000 
     52 O         -27.5305  -10.4925   71.4350 O.2       1 ALC1        0.0000 
     53 O         -27.6730  -11.3260   69.9810 O.2       7 ALL1        0.0000 
     54 O         -27.3880   -9.6590   72.8890 O.2       4 ALP1        0.0000 
     55 O         -26.4215  -10.8510   69.4450 O.2       1 ALC1        0.0000 
     56 O         -25.1700  -10.3760   68.9090 O.2       4 ALP1        0.0000 
     57 N         -30.0850  -10.6615   71.0100 N.am      2 SEC2        0.0000 
     58 N         -29.9920  -11.5420   69.7560 N.am      8 SEL2        0.0000 
     59 N         -30.1780   -9.7810   72.2640 N.am      5 SEP2        0.0000 
     60 CA        -31.0275  -13.2420   70.2805 C.3       3 GLC5        0.0000 
     61 CA        -31.0950  -12.0150   69.0000 C.3       9 GLL5        0.0000 
     62 CA        -32.8425  -11.7930   67.8130 C.3       3 GLC5        0.0000 
     63 CA        -34.5900  -11.5710   66.6260 C.3       6 GLP5        0.0000 
     64 CA        -30.6435  -10.8545   67.5785 C.3       3 GLC5        0.0000 
     65 CA        -30.9260  -10.0280   69.8255 C.3       3 GLC5        0.0000 
     66 CA        -30.7570   -8.0410   70.6510 C.3       6 GLP5        0.0000 
     67 N         -31.6765  -11.5130   67.1120 N.am      2 SEC2        0.0000 
     68 N         -30.8340  -12.6750   67.8150 N.am      8 SEL2        0.0000 
     69 N         -32.5190  -10.3510   66.4090 N.am      5 SEP2        0.0000 
     70 N         -29.8055  -28.0945   58.7715 N.am      2 SEC2        0.0000 
     71 N         -29.7720  -28.1530   57.3750 N.am      8 SEL2        0.0000 
     72 N         -29.8390  -28.0360   60.1680 N.am      5 SEP2        0.0000 
     73 O         -31.3825  -28.6010   55.4900 O.2       1 ALC1        0.0000 
     74 O         -30.3290  -27.8040   55.2200 O.2       7 ALL1        0.0000 
     75 O         -32.4360  -29.3980   55.7600 O.2       4 ALP1        0.0000 
     76 N         -32.1910  -27.9815   53.2715 N.am      2 SEC2        0.0000 
     77 N         -30.8340  -27.4510   53.0500 N.am      8 SEL2        0.0000 
     78 N         -33.5480  -28.5120   53.4930 N.am      5 SEP2        0.0000 
     79 N         -30.3125  -24.8190   52.3275 N.am      2 SEC2        0.0000 
     80 N         -28.9100  -25.3960   52.8720 N.am      8 SEL2        0.0000 
     81 N         -31.7150  -24.2420   51.7830 N.am      5 SEP2        0.0000 
     82 CA        -27.3075  -19.3395   50.5090 C.3       3 GLC5        0.0000 
     83 CA        -27.4920  -21.2590   50.7290 C.3       9 GLL5        0.0000 
     84 CA        -27.1230  -17.4200   50.2890 C.3       6 GLP5        0.0000 
     85 CA        -26.1890  -22.3630   49.9395 C.3       3 GLC5        0.0000 
     86 CA        -24.8860  -23.4670   49.1500 C.3       6 GLP5        0.0000 
     87 CA        -27.6620  -20.2645   48.7840 C.3       3 GLC5        0.0000 
     88 CA        -27.8320  -19.2700   46.8390 C.3       6 GLP5        0.0000 
     89 CA        -28.0980  -19.3150   53.2340 C.3       3 GLC5        0.0000 
     90 CA        -26.3220  -20.4130   53.1300 C.3       9 GLL5        0.0000 
     91 CA        -29.8740  -18.2170   53.3380 C.3       6 GLP5        0.0000 
     92 CA        -26.7225  -18.9165   51.7095 C.3       3 GLC5        0.0000 
     93 CA        -24.8740  -19.4440   52.9890 C.3       3 GLC5        0.0000 
     94 CA        -23.4260  -18.4750   52.8480 C.3       6 GLP5        0.0000 
     95 CA        -25.2440  -22.9405   54.7430 C.3       3 GLC5        0.0000 
     96 CA        -27.0120  -22.5270   54.1760 C.3       9 GLL5        0.0000 
     97 CA        -23.4760  -23.3540   55.3100 C.3       6 GLP5        0.0000 
     98 CA        -29.3865  -23.5455   54.3625 C.3       3 GLC5        0.0000 
     99 CA        -27.6070  -23.8120   54.1490 C.3       9 GLL5        0.0000 
    100 CA        -31.1660  -23.2790   54.5760 C.3       6 GLP5        0.0000 
    101 CA        -25.7105  -24.4380   53.8225 C.3       3 GLC5        0.0000 
    102 CA        -23.8140  -25.0640   53.4960 C.3       6 GLP5        0.0000 
    103 CA        -25.2335  -23.8345   55.9330 C.3       3 GLC5        0.0000 
    104 CA        -26.9910  -24.3150   56.5560 C.3       9 GLL5        0.0000 
    105 CA        -29.5835  -23.4905   56.0260 C.3       3 GLC5        0.0000 
    106 CA        -28.0010  -23.7020   57.4760 C.3       9 GLL5        0.0000 
    107 N         -25.6020  -23.2970   60.6430 N.am      2 SEC2        0.0000 
    108 N         -26.2420  -23.7450   59.2090 N.am      8 SEL2        0.0000 
    109 N         -24.9620  -22.8490   62.0770 N.am      5 SEP2        0.0000 
    110 O         -25.1975  -23.0760   58.5255 O.2       1 ALC1        0.0000 
    111 O         -26.2420  -23.7450   59.2090 O.2       7 ALL1        0.0000 
    112 O         -24.1530  -22.4070   57.8420 O.2       4 ALP1        0.0000 
    113 CA        -28.1900  -21.0595   58.9045 C.3       3 GLC5        0.0000 
    114 CA        -28.4350  -23.1010   59.7770 C.3       9 GLL5        0.0000 
    115 CA        -27.9450  -19.0180   58.0320 C.3       6 GLP5        0.0000 
    116 CA        -30.3465  -24.0160   59.6240 C.3       3 GLC5        0.0000 
    117 CA        -32.2580  -24.9310   59.4710 C.3       6 GLP5        0.0000 
    118 O         -30.8140  -22.0355   59.7535 O.2       1 ALC1        0.0000 
    119 O         -29.5230  -22.3780   59.2250 O.2       7 ALL1        0.0000 
    120 O         -32.1050  -21.6930   60.2820 O.2       4 ALP1        0.0000 
    121 N         -27.0785  -22.6410   64.8885 N.am      2 SEC2        0.0000 
    122 N         -27.8670  -21.8250   63.9740 N.am      8 SEL2        0.0000 
    123 N         -26.2900  -23.4570   65.8030 N.am      5 SEP2        0.0000 
    124 CA        -29.5028  -16.9950   65.8792 C.3       3 GLC5        0.0000 
    125 CA        -28.8248  -14.4698   68.2867 C.3       3 GLC5        0.0000 
    126 CA        -28.5560  -12.4100   68.1430 C.3       9 GLL5        0.0000 
    127 CA        -28.5760  -16.3020   68.8000 C.3       6 GLP5        0.0000 
    128 CA        -29.6588  -11.0877   67.1119 C.3       3 GLC5        0.0000 
    129 CA        -29.5910  -12.8650   67.4040 C.3       9 GLL5        0.0000 
    130 CA        -29.6435  -23.1300   52.8243 C.3       3 GLC5        0.0000 
    131 CA        -28.2090  -24.2290   52.9300 C.3       9 GLL5        0.0000 
    132 CA        -31.1090  -22.4490   53.2860 C.3       6 GLP5        0.0000 
    133 CA        -25.0959  -21.9141   52.8476 C.3       3 GLC5        0.0000 
    134 CA        -23.4060  -22.6720   52.9000 C.3       6 GLP5        0.0000 
    135 CA        -27.0098  -20.7246   55.2529 C.3       3 GLC5        0.0000 
    136 CA        -26.9720  -21.6780   53.0650 C.3       9 GLL5        0.0000 
    137 CA        -27.1900  -19.6630   56.8690 C.3       6 GLP5        0.0000 
    138 CA        -29.1199  -22.3311   53.3021 C.3       3 GLC5        0.0000 
    139 CA        -27.1965  -25.6483   58.3045 C.3       3 GLC5        0.0000 
    140 CA        -26.8970  -27.2880   59.5930 C.3       6 GLP5        0.0000 
    141 CA        -27.4390  -21.5200   57.4883 C.3       3 GLC5        0.0000 
    142 CA        -27.4010  -25.1822   59.4255 C.3       3 GLC5        0.0000 
    143 CA        -27.3750  -23.0520   58.7390 C.3       9 GLL5        0.0000 
@<TRIPOS>BOND
@<TRIPOS>SUBSTRUCTURE
     1 ALC1       25 GROUP        1 X    ALC  0     ROOT ALC X 1
     2 SEC2        1 GROUP        1 X    SEC  0     **** SEC X 2
     3 GLC5       13 GROUP        1 X    GLC  0     **** GLC X 6
     4 ALP1       27 GROUP        1 Y    ALP  0     ROOT ALP Y 8
     5 SEP2        3 GROUP        1 Y    SEP  0     **** SEP Y 9
     6 GLP5       15 GROUP        1 Y    GLP  0     **** GLP Y 13
     7 ALL1       26 GROUP        1 Z    ALL  0     ROOT ALL Z 15
     8 SEL2        2 GROUP        1 Z    SEL  0     **** SEL Z 16
     9 GLL5       14 GROUP        1 Z    GLL  0     **** GLL Z 20
@<TRIPOS>SET

