#    Name: 4c3x_FAD_2_ligand
#    Modification time : Tue Mar 25 08:48:39 2014

@<TRIPOS>MOLECULE
4c3x_FAD_2_ligand
   84    89     1     0     0
SMALL
NO_CHARGES


@<TRIPOS>ATOM
      1 PA        -29.6290  -18.8940   61.9920 P.3       1 FAD551      0.0000 
      2 O1A       -28.7210  -18.0780   61.2450 O.co2     1 FAD551      0.0000 
      3 O2A       -30.5990  -19.7520   61.1990 O.co2     1 FAD551      0.0000 
      4 O5B       -30.4620  -18.0790   62.9440 O.3       1 FAD551      0.0000 
      5 C5B       -29.7660  -17.2690   63.9280 C.3       1 FAD551      0.0000 
      6 C4B       -30.5910  -16.0070   64.1650 C.3       1 FAD551      0.0000 
      7 O4B       -30.2050  -15.4290   65.4160 O.3       1 FAD551      0.0000 
      8 C3B       -30.3090  -14.9690   63.0630 C.3       1 FAD551      0.0000 
      9 O3B       -31.5720  -14.3870   62.6230 O.3       1 FAD551      0.0000 
     10 C2B       -29.5030  -13.8950   63.8290 C.3       1 FAD551      0.0000 
     11 O2B       -29.8140  -12.5360   63.4270 O.3       1 FAD551      0.0000 
     12 C1B       -30.0530  -14.0610   65.2760 C.3       1 FAD551      0.0000 
     13 N9A       -29.1160  -13.4790   66.3040 N.pl3     1 FAD551      0.0000 
     14 C8A       -27.7790  -13.3800   66.3680 C.2       1 FAD551      0.0000 
     15 N7A       -27.4410  -12.7380   67.5060 N.2       1 FAD551      0.0000 
     16 C5A       -28.5560  -12.4100   68.1430 C.ar      1 FAD551      0.0000 
     17 C6A       -28.7640  -11.7860   69.3160 C.ar      1 FAD551      0.0000 
     18 N6A       -27.6730  -11.3260   69.9810 N.pl3     1 FAD551      0.0000 
     19 N1A       -29.9920  -11.5420   69.7560 N.ar      1 FAD551      0.0000 
     20 C2A       -31.0950  -12.0150   69.0000 C.ar      1 FAD551      0.0000 
     21 N3A       -30.8340  -12.6750   67.8150 N.ar      1 FAD551      0.0000 
     22 C4A       -29.5910  -12.8650   67.4040 C.ar      1 FAD551      0.0000 
     23 N1        -28.6850  -26.4820   56.3200 N.2       1 FAD551      0.0000 
     24 C2        -29.6080  -27.5170   56.3470 C.2       1 FAD551      0.0000 
     25 O2        -29.7720  -28.1530   57.3750 O.2       1 FAD551      0.0000 
     26 N3        -30.3290  -27.8040   55.2200 N.am      1 FAD551      0.0000 
     27 C4        -30.1110  -27.1340   54.0230 C.2       1 FAD551      0.0000 
     28 O4        -30.8340  -27.4510   53.0500 O.2       1 FAD551      0.0000 
     29 C4X       -29.1770  -26.0850   54.0030 C.2       1 FAD551      0.0000 
     30 N5        -28.9100  -25.3960   52.8720 N.2       1 FAD551      0.0000 
     31 C5X       -28.2090  -24.2290   52.9300 C.ar      1 FAD551      0.0000 
     32 C6        -28.1470  -23.3930   51.7950 C.ar      1 FAD551      0.0000 
     33 C7        -27.5270  -22.1210   51.8560 C.ar      1 FAD551      0.0000 
     34 C7M       -27.4920  -21.2590   50.7290 C.3       1 FAD551      0.0000 
     35 C8        -26.9720  -21.6780   53.0650 C.ar      1 FAD551      0.0000 
     36 C8M       -26.3220  -20.4130   53.1300 C.3       1 FAD551      0.0000 
     37 C9        -27.0120  -22.5270   54.1760 C.ar      1 FAD551      0.0000 
     38 C9A       -27.6070  -23.8120   54.1490 C.ar      1 FAD551      0.0000 
     39 N10       -27.6220  -24.6800   55.2420 N.pl3     1 FAD551      0.0000 
     40 C10       -28.4480  -25.7710   55.1810 C.2       1 FAD551      0.0000 
     41 C1'       -26.9910  -24.3150   56.5560 C.3       1 FAD551      0.0000 
     42 C2'       -28.0010  -23.7020   57.4760 C.3       1 FAD551      0.0000 
     43 O2'       -28.7400  -22.7180   56.7920 O.3       1 FAD551      0.0000 
     44 C3'       -27.3750  -23.0520   58.7390 C.3       1 FAD551      0.0000 
     45 O3'       -26.2420  -23.7450   59.2090 O.3       1 FAD551      0.0000 
     46 C4'       -28.4350  -23.1010   59.7770 C.3       1 FAD551      0.0000 
     47 O4'       -29.5230  -22.3780   59.2250 O.3       1 FAD551      0.0000 
     48 C5'       -28.0120  -22.4400   61.1290 C.3       1 FAD551      0.0000 
     49 O5'       -29.1410  -22.2190   61.9490 O.3       1 FAD551      0.0000 
     50 P         -29.0720  -21.3450   63.3140 P.3       1 FAD551      0.0000 
     51 O1P       -27.8670  -21.8250   63.9740 O.co2     1 FAD551      0.0000 
     52 O2P       -30.3790  -21.5760   63.8960 O.co2     1 FAD551      0.0000 
     53 O3P       -28.6610  -19.8590   62.7860 O.3       1 FAD551      0.0000 
     54 H         -28.7833  -16.9736   63.5734 H         1 FAD551      0.0000 
     55 H         -29.6654  -17.7942   64.8729 H         1 FAD551      0.0000 
     56 H         -31.6252  -16.2518   64.1448 H         1 FAD551      0.0000 
     57 H         -29.7342  -15.3802   62.3268 H         1 FAD551      0.0000 
     58 H         -28.5002  -14.1362   63.8384 H         1 FAD551      0.0000 
     59 H         -30.9977  -13.5464   65.3023 H         1 FAD551      0.0000 
     60 H         -27.1533  -13.7143   65.7058 H         1 FAD551      0.0000 
     61 H         -26.9115  -11.0128   69.4135 H         1 FAD551      0.0000 
     62 H         -27.7275  -11.3411   70.9795 H         1 FAD551      0.0000 
     63 H         -32.0379  -11.8648   69.3335 H         1 FAD551      0.0000 
     64 H         -31.0645  -28.5448   55.2516 H         1 FAD551      0.0000 
     65 H         -28.5583  -23.7105   50.9074 H         1 FAD551      0.0000 
     66 H         -26.5838  -22.2039   55.0734 H         1 FAD551      0.0000 
     67 H         -26.1747  -23.6069   56.3828 H         1 FAD551      0.0000 
     68 H         -26.5702  -25.2129   57.0188 H         1 FAD551      0.0000 
     69 H         -28.6726  -24.4924   57.8336 H         1 FAD551      0.0000 
     70 H         -27.1749  -22.0250   58.5053 H         1 FAD551      0.0000 
     71 H         -28.7107  -24.1171   59.9685 H         1 FAD551      0.0000 
     72 H         -27.4880  -21.5093   60.8722 H         1 FAD551      0.0000 
     73 H         -27.2795  -23.1151   61.5921 H         1 FAD551      0.0000 
     74 H         -27.0216  -20.4003   50.9326 H         1 FAD551      0.0000 
     75 H         -27.0159  -21.6778   49.9558 H         1 FAD551      0.0000 
     76 H         -28.4110  -21.0222   50.4139 H         1 FAD551      0.0000 
     77 H         -25.9722  -20.2219   54.0471 H         1 FAD551      0.0000 
     78 H         -25.5444  -20.3624   52.5032 H         1 FAD551      0.0000 
     79 H         -26.9407  -19.6648   52.8905 H         1 FAD551      0.0000 
     80 H         -32.0205  -14.0779   63.4616 H         1 FAD551      0.0000 
     81 H         -30.8093  -12.4675   63.4949 H         1 FAD551      0.0000 
     82 H         -29.2578  -22.2424   57.5031 H         1 FAD551      0.0000 
     83 H         -25.4682  -23.3308   58.7297 H         1 FAD551      0.0000 
     84 H         -30.2371  -22.4114   59.9242 H         1 FAD551      0.0000 
@<TRIPOS>BOND
     1    2    1 ar   
     2    3    1 ar   
     3    4    1 1    
     4   53    1 1    
     5    5    4 1    
     6    6    5 1    
     7   54    5 1    
     8   55    5 1    
     9    7    6 1    
    10    8    6 1    
    11   56    6 1    
    12   12    7 1    
    13    9    8 1    
    14   10    8 1    
    15   57    8 1    
    16   80    9 1    
    17   11   10 1    
    18   12   10 1    
    19   58   10 1    
    20   81   11 1    
    21   13   12 1    
    22   59   12 1    
    23   14   13 1    
    24   22   13 1    
    25   15   14 2    
    26   60   14 1    
    27   16   15 1    
    28   17   16 ar   
    29   22   16 ar   
    30   18   17 1    
    31   19   17 ar   
    32   61   18 1    
    33   62   18 1    
    34   20   19 ar   
    35   21   20 ar   
    36   63   20 1    
    37   22   21 ar   
    38   24   23 1    
    39   40   23 2    
    40   25   24 2    
    41   26   24 am   
    42   27   26 am   
    43   64   26 1    
    44   28   27 2    
    45   29   27 1    
    46   30   29 2    
    47   40   29 1    
    48   31   30 1    
    49   32   31 ar   
    50   38   31 ar   
    51   33   32 ar   
    52   65   32 1    
    53   34   33 1    
    54   35   33 ar   
    55   74   34 1    
    56   75   34 1    
    57   76   34 1    
    58   36   35 1    
    59   37   35 ar   
    60   77   36 1    
    61   78   36 1    
    62   79   36 1    
    63   38   37 ar   
    64   66   37 1    
    65   39   38 1    
    66   40   39 1    
    67   41   39 1    
    68   42   41 1    
    69   67   41 1    
    70   68   41 1    
    71   43   42 1    
    72   44   42 1    
    73   69   42 1    
    74   82   43 1    
    75   45   44 1    
    76   46   44 1    
    77   70   44 1    
    78   83   45 1    
    79   47   46 1    
    80   48   46 1    
    81   71   46 1    
    82   84   47 1    
    83   49   48 1    
    84   72   48 1    
    85   73   48 1    
    86   50   49 1    
    87   51   50 ar   
    88   52   50 ar   
    89   53   50 1    
@<TRIPOS>SUBSTRUCTURE
     1 FAD551      1 GROUP   
@<TRIPOS>SET

