#    Name: 3eq8_X98_1_INTS_M
#    Modification time : Tue Mar 25 02:20:50 2014

@<TRIPOS>MOLECULE
3eq8_X98_1_INTS_M
   57     0     6     0     0
SMALL
NO_CHARGES


@<TRIPOS>ATOM
      1 N           7.3705   37.6405   28.7425 N.am      1 SEC2        0.0000 
      2 N           7.4710   38.1050   30.2310 N.am      5 SEL2        0.0000 
      3 N           7.2700   37.1760   27.2540 N.am      3 SEP2        0.0000 
      4 CA          5.9065   36.9155   28.5120 C.3       2 GLC5        0.0000 
      5 CA          4.7010   38.0220   29.7080 C.3       6 GLL5        0.0000 
      6 CA          7.1120   35.8090   27.3160 C.3       4 GLP5        0.0000 
      7 CA          2.6890   35.6520   29.9765 C.3       2 GLC5        0.0000 
      8 CA          3.4800   37.3120   30.3030 C.3       6 GLL5        0.0000 
      9 CA          1.8980   33.9920   29.6500 C.3       4 GLP5        0.0000 
     10 CA          5.2680   39.1855   25.8970 C.3       2 GLC5        0.0000 
     11 CA          3.4370   39.5180   26.3940 C.3       6 GLL5        0.0000 
     12 CA          7.0990   38.8530   25.4000 C.3       4 GLP5        0.0000 
     13 CA          4.8510   41.1205   26.8645 C.3       2 GLC5        0.0000 
     14 CA          6.2650   42.7230   27.3350 C.3       4 GLP5        0.0000 
     15 CA          3.5410   35.5645   27.2000 C.3       2 GLC5        0.0000 
     16 CA          3.8180   37.2440   27.1590 C.3       6 GLL5        0.0000 
     17 CA          3.2640   33.8850   27.2410 C.3       4 GLP5        0.0000 
     18 CA          5.4370   37.4110   26.5605 C.3       2 GLC5        0.0000 
     19 CA          7.0560   37.5780   25.9620 C.3       4 GLP5        0.0000 
     20 CA          2.3615   35.7410   26.6440 C.3       2 GLC5        0.0000 
     21 CA          2.7960   37.2330   26.0280 C.3       6 GLL5        0.0000 
     22 CA          1.9270   34.2490   27.2600 C.3       4 GLP5        0.0000 
     23 CA          1.0100   36.9200   25.9570 C.3       2 GLC5        0.0000 
     24 CA         -0.7760   36.6070   25.8860 C.3       4 GLP5        0.0000 
     25 CA          4.7780   36.8280   25.6140 C.3       2 GLC5        0.0000 
     26 CA          6.7600   36.4230   25.2000 C.3       4 GLP5        0.0000 
     27 CA          2.4085   35.4845   24.7475 C.3       2 GLC5        0.0000 
     28 CA          2.0210   33.7360   23.4670 C.3       4 GLP5        0.0000 
     29 CA          0.9865   38.0620   25.0450 C.3       2 GLC5        0.0000 
     30 CA          3.0340   38.5280   25.3310 C.3       6 GLL5        0.0000 
     31 CA         -1.0610   37.5960   24.7590 C.3       4 GLP5        0.0000 
     32 CA          4.9390   38.7440   24.6970 C.3       2 GLC5        0.0000 
     33 CA          6.8440   38.9600   24.0630 C.3       4 GLP5        0.0000 
     34 CA          9.2215   40.8088   32.2418 C.3       2 GLC5        0.0000 
     35 CA          7.1290   39.4130   32.2010 C.3       6 GLL5        0.0000 
     36 CA         10.5520   42.1730   32.2650 C.3       4 GLP5        0.0000 
     37 CA         12.3477   35.7578   33.2302 C.3       2 GLC5        0.0000 
     38 CA         10.6560   35.0500   33.9990 C.3       6 GLL5        0.0000 
     39 CA         14.3260   36.2770   33.0730 C.3       4 GLP5        0.0000 
     40 CA          8.3992   35.3315   31.9143 C.3       2 GLC5        0.0000 
     41 CA         10.0830   35.4270   32.7760 C.3       6 GLL5        0.0000 
     42 CA          6.9490   34.5880   31.1500 C.3       4 GLP5        0.0000 
     43 CA         10.2127   35.4525   30.8807 C.3       2 GLC5        0.0000 
     44 CA         10.5760   34.8300   29.0830 C.3       4 GLP5        0.0000 
     45 CA         12.0581   37.4584   34.1457 C.3       2 GLC5        0.0000 
     46 CA          9.7090   37.6900   33.6240 C.3       6 GLL5        0.0000 
     47 CA         13.9950   37.7560   33.9980 C.3       4 GLP5        0.0000 
     48 CA         11.7611   42.1960   36.4370 C.3       2 GLC5        0.0000 
     49 CA         10.1180   40.4160   36.9330 C.3       6 GLL5        0.0000 
     50 CA         13.2950   42.4740   35.6200 C.3       4 GLP5        0.0000 
     51 CA          5.5198   36.1275   30.5778 C.3       2 GLC5        0.0000 
     52 CA          1.5913   40.1455   26.0712 C.3       2 GLC5        0.0000 
     53 CA         -0.0530   41.2680   26.2800 C.3       4 GLP5        0.0000 
     54 CA          3.8232   40.3520   24.8567 C.3       2 GLC5        0.0000 
     55 CA          4.4110   41.6810   23.8510 C.3       4 GLP5        0.0000 
     56 CA          3.1100   38.1402   23.6992 C.3       2 GLC5        0.0000 
     57 CA          3.3050   38.4000   21.7190 C.3       4 GLP5        0.0000 
@<TRIPOS>BOND
@<TRIPOS>SUBSTRUCTURE
     1 SEC2        1 GROUP        1 X    SEC  0     ROOT SEC X 2
     2 GLC5        4 GROUP        1 X    GLC  0     **** GLC X 6
     3 SEP2        3 GROUP        1 Y    SEP  0     ROOT SEP Y 9
     4 GLP5        6 GROUP        1 Y    GLP  0     **** GLP Y 13
     5 SEL2        2 GROUP        1 Z    SEL  0     ROOT SEL Z 16
     6 GLL5        5 GROUP        1 Z    GLL  0     **** GLL Z 20
@<TRIPOS>SET

