#    Name: 3eq8_X98_1_ligand
#    Modification time : Tue Mar 25 02:20:50 2014

@<TRIPOS>MOLECULE
3eq8_X98_1_ligand
   61    65     1     0     0
SMALL
NO_CHARGES


@<TRIPOS>ATOM
      1 C           6.6990   38.8090   30.8800 C.2       1 X98711      0.0000 
      2 O           7.4710   38.1050   30.2310 O.2       1 X98711      0.0000 
      3 C1          7.1290   39.4130   32.2010 C.3       1 X98711      0.0000 
      4 C2          8.6530   39.4760   32.2360 C.3       1 X98711      0.0000 
      5 N3          9.2530   39.0130   33.4750 N.am      1 X98711      0.0000 
      6 C4          9.3640   39.9400   34.5400 C.2       1 X98711      0.0000 
      7 C5         10.0010   39.4290   35.8200 C.2       1 X98711      0.0000 
      8 N6         10.4290   38.1910   35.9570 N.2       1 X98711      0.0000 
      9 C7         10.3010   37.2990   34.8840 C.ar      1 X98711      0.0000 
     10 C8         10.7660   35.9640   35.0420 C.ar      1 X98711      0.0000 
     11 C9         10.6560   35.0500   33.9990 C.ar      1 X98711      0.0000 
     12 C10        10.0830   35.4270   32.7760 C.ar      1 X98711      0.0000 
     13 C11         9.6160   36.7230   32.5810 C.ar      1 X98711      0.0000 
     14 C12         9.7090   37.6900   33.6240 C.ar      1 X98711      0.0000 
     15 O13         8.9470   41.1090   34.3730 O.2       1 X98711      0.0000 
     16 C14        10.1180   40.4160   36.9330 C.ar      1 X98711      0.0000 
     17 C15        10.1620   39.9720   38.2720 C.ar      1 X98711      0.0000 
     18 C16        10.2780   40.9000   39.3160 C.ar      1 X98711      0.0000 
     19 C17        10.3470   42.2790   39.0370 C.ar      1 X98711      0.0000 
     20 C18        10.3020   42.7260   37.7110 C.ar      1 X98711      0.0000 
     21 C19        10.1870   41.8040   36.6610 C.ar      1 X98711      0.0000 
     22 N           5.3730   38.5970   30.8730 N.am      1 X98711      0.0000 
     23 CA          4.7010   38.0220   29.7080 C.3       1 X98711      0.0000 
     24 C3          4.3080   39.0890   28.7020 C.2       1 X98711      0.0000 
     25 O1          4.3540   40.2840   28.9970 O.2       1 X98711      0.0000 
     26 CB          3.4800   37.3120   30.3030 C.3       1 X98711      0.0000 
     27 CG          3.3470   37.8380   31.7350 C.3       1 X98711      0.0000 
     28 CD          4.4210   38.8690   31.9630 C.3       1 X98711      0.0000 
     29 N1          3.8950   38.6630   27.5010 N.am      1 X98711      0.0000 
     30 CD1         3.4370   39.5180   26.3940 C.3       1 X98711      0.0000 
     31 CA1         3.8180   37.2440   27.1590 C.3       1 X98711      0.0000 
     32 CB1         2.7960   37.2330   26.0280 C.3       1 X98711      0.0000 
     33 CG1         3.0340   38.5280   25.3310 C.3       1 X98711      0.0000 
     34 H           6.7778   38.7958   33.0165 H         1 X98711      0.0000 
     35 H           6.7276   40.4128   32.2935 H         1 X98711      0.0000 
     36 H           8.9524   40.5292   32.0265 H         1 X98711      0.0000 
     37 H           9.0354   38.8847   31.3718 H         1 X98711      0.0000 
     38 H          11.1837   35.6864   35.9376 H         1 X98711      0.0000 
     39 H          10.9975   34.0853   34.1216 H         1 X98711      0.0000 
     40 H          10.0092   34.7336   32.0168 H         1 X98711      0.0000 
     41 H           9.1991   36.9994   31.6852 H         1 X98711      0.0000 
     42 H          10.1089   38.9706   38.4764 H         1 X98711      0.0000 
     43 H          10.3131   40.5766   40.2887 H         1 X98711      0.0000 
     44 H          10.4298   42.9499   39.8049 H         1 X98711      0.0000 
     45 H          10.3532   43.7298   37.5063 H         1 X98711      0.0000 
     46 H          10.1522   42.1298   35.6905 H         1 X98711      0.0000 
     47 H           5.3227   37.2843   29.2522 H         1 X98711      0.0000 
     48 H           3.6517   36.2587   30.3216 H         1 X98711      0.0000 
     49 H           2.6081   37.5689   29.7435 H         1 X98711      0.0000 
     50 H           3.4692   37.0161   32.4256 H         1 X98711      0.0000 
     51 H           2.3712   38.2855   31.8573 H         1 X98711      0.0000 
     52 H           4.0041   39.8452   31.8701 H         1 X98711      0.0000 
     53 H           4.8742   38.7080   32.9139 H         1 X98711      0.0000 
     54 H           4.2329   40.1286   26.0286 H         1 X98711      0.0000 
     55 H           2.5869   40.0952   26.6838 H         1 X98711      0.0000 
     56 H           3.4424   36.6668   27.9695 H         1 X98711      0.0000 
     57 H           4.7465   36.8806   26.7890 H         1 X98711      0.0000 
     58 H           1.8154   37.2012   26.4397 H         1 X98711      0.0000 
     59 H           2.9969   36.4135   25.3797 H         1 X98711      0.0000 
     60 H           3.8312   38.4247   24.6137 H         1 X98711      0.0000 
     61 H           2.1308   38.8640   24.8492 H         1 X98711      0.0000 
@<TRIPOS>BOND
     1    2    1 2    
     2    3    1 1    
     3   22    1 am   
     4    4    3 1    
     5   34    3 1    
     6   35    3 1    
     7    5    4 1    
     8   36    4 1    
     9   37    4 1    
    10    6    5 am   
    11   14    5 1    
    12    7    6 1    
    13   15    6 2    
    14    8    7 2    
    15   16    7 1    
    16    9    8 1    
    17   10    9 ar   
    18   14    9 ar   
    19   11   10 ar   
    20   38   10 1    
    21   12   11 ar   
    22   39   11 1    
    23   13   12 ar   
    24   40   12 1    
    25   14   13 ar   
    26   41   13 1    
    27   17   16 ar   
    28   21   16 ar   
    29   18   17 ar   
    30   42   17 1    
    31   19   18 ar   
    32   43   18 1    
    33   20   19 ar   
    34   44   19 1    
    35   21   20 ar   
    36   45   20 1    
    37   46   21 1    
    38   23   22 1    
    39   28   22 1    
    40   24   23 1    
    41   26   23 1    
    42   47   23 1    
    43   25   24 2    
    44   29   24 am   
    45   27   26 1    
    46   48   26 1    
    47   49   26 1    
    48   28   27 1    
    49   50   27 1    
    50   51   27 1    
    51   52   28 1    
    52   53   28 1    
    53   30   29 1    
    54   31   29 1    
    55   33   30 1    
    56   54   30 1    
    57   55   30 1    
    58   32   31 1    
    59   56   31 1    
    60   57   31 1    
    61   33   32 1    
    62   58   32 1    
    63   59   32 1    
    64   60   33 1    
    65   61   33 1    
@<TRIPOS>SUBSTRUCTURE
     1 X98711      1 GROUP   
@<TRIPOS>SET

