#    Name: 4dtk_7LI_1_INTS_M
#    Modification time : Tue Mar 25 10:12:39 2014

@<TRIPOS>MOLECULE
4dtk_7LI_1_INTS_M
   65     0    12     0     0
SMALL
NO_CHARGES


@<TRIPOS>ATOM
      1 CA         23.6215  -38.6045   -2.9075 C.3       4 GLC5        0.0000 
      2 CA         22.7970  -40.1530   -3.7150 C.3      12 GLL5        0.0000 
      3 CA         24.4460  -37.0560   -2.1000 C.3       8 GLP5        0.0000 
      4 CA         17.7585  -38.2120    4.1400 C.3       4 GLC5        0.0000 
      5 CA         17.7840  -36.8070    2.6510 C.3      12 GLL5        0.0000 
      6 CA         17.7330  -39.6170    5.6290 C.3       8 GLP5        0.0000 
      7 CA         18.6065  -35.6175    3.9190 C.3       4 GLC5        0.0000 
      8 CA         19.4290  -34.4280    5.1870 C.3       8 GLP5        0.0000 
      9 CA         16.2610  -37.8625    2.2660 C.3       4 GLC5        0.0000 
     10 CA         14.7380  -38.9180    1.8810 C.3       8 GLP5        0.0000 
     11 OD1        16.4910  -38.4400   -5.6645 O.co2     3 ASC3        0.0000 
     12 OD1        16.3110  -37.3160   -4.7420 O.co2    11 ASL3        0.0000 
     13 OD1        16.6710  -39.5640   -6.5870 O.co2     7 ASP3        0.0000 
     14 O          16.4910  -38.4400   -5.6645 O.2       1 ALC1        0.0000 
     15 O          16.3110  -37.3160   -4.7420 O.2       9 ALL1        0.0000 
     16 O          16.6710  -39.5640   -6.5870 O.2       5 ALP1        0.0000 
     17 O          15.0320  -38.0510   -4.3950 O.2       1 ALC1        0.0000 
     18 O          13.7530  -38.7860   -4.0480 O.2       5 ALP1        0.0000 
     19 CA         20.2570  -43.1875   -5.1230 C.3       4 GLC5        0.0000 
     20 CA         20.6960  -41.2920   -4.3840 C.3      12 GLL5        0.0000 
     21 CA         19.8180  -45.0830   -5.8620 C.3       8 GLP5        0.0000 
     22 N          14.5300  -36.1900    3.5050 N.am      2 SEC2        0.0000 
     23 N          15.8050  -35.8970    4.1670 N.am     10 SEL2        0.0000 
     24 N          13.2550  -36.4830    2.8430 N.am      6 SEP2        0.0000 
     25 CA         23.1130  -40.3715    0.3155 C.3       4 GLC5        0.0000 
     26 CA         21.1810  -39.7010   -0.5130 C.3      12 GLL5        0.0000 
     27 CA         25.0450  -41.0420    1.1440 C.3       8 GLP5        0.0000 
     28 CA         22.3160  -40.4215    2.0165 C.3       4 GLC5        0.0000 
     29 CA         20.9850  -39.2170    0.7690 C.3      12 GLL5        0.0000 
     30 CA         23.6470  -41.6260    3.2640 C.3       8 GLP5        0.0000 
     31 CA         21.0315  -35.1235   -1.9285 C.3       4 GLC5        0.0000 
     32 CA         20.1400  -36.2080   -3.3070 C.3      12 GLL5        0.0000 
     33 CA         21.9230  -34.0390   -0.5500 C.3       8 GLP5        0.0000 
     34 CA         20.2645  -33.9415   -5.2500 C.3       4 GLC5        0.0000 
     35 CA         19.3510  -35.1490   -4.0470 C.3      12 GLL5        0.0000 
     36 CA         21.1780  -32.7340   -6.4530 C.3       8 GLP5        0.0000 
     37 CA         20.3660  -33.9760   -2.6585 C.3       4 GLC5        0.0000 
     38 CA         21.3810  -32.8030   -1.2700 C.3       8 GLP5        0.0000 
     39 CA         17.9425  -39.6465   -2.5395 C.3       4 GLC5        0.0000 
     40 CA         18.1700  -37.7150   -3.2430 C.3      12 GLL5        0.0000 
     41 CA         17.7150  -41.5780   -1.8360 C.3       8 GLP5        0.0000 
     42 CA         19.3978  -41.2743   -2.8333 C.3       4 GLC5        0.0000 
     43 CA         21.4650  -40.6490   -3.2770 C.3      12 GLL5        0.0000 
     44 CA         22.1307  -42.3152   -3.1575 C.3       4 GLC5        0.0000 
     45 CA         22.8480  -43.7840   -2.3750 C.3       8 GLP5        0.0000 
     46 CA         22.6758  -38.2097   -1.5777 C.3       4 GLC5        0.0000 
     47 CA         18.9898  -40.0068   -1.6703 C.3       4 GLC5        0.0000 
     48 CA         20.6300  -39.0260   -1.5980 C.3      12 GLL5        0.0000 
     49 CA         19.5975  -40.3075    0.5602 C.3       4 GLC5        0.0000 
     50 CA         20.2470  -38.0650    0.9710 C.3      12 GLL5        0.0000 
     51 CA         18.5300  -41.8530    0.5710 C.3       8 GLP5        0.0000 
     52 CA         21.6133  -37.3300    1.4013 C.3       4 GLC5        0.0000 
     53 CA         19.7010  -37.3590   -0.1090 C.3      12 GLL5        0.0000 
     54 CA         23.0680  -36.6600    2.4220 C.3       8 GLP5        0.0000 
     55 CA         17.6715  -37.9750   -0.6730 C.3       4 GLC5        0.0000 
     56 CA         15.5430  -38.3480   -0.5860 C.3       8 GLP5        0.0000 
     57 CA         21.7472  -35.7257   -3.9295 C.3       4 GLC5        0.0000 
     58 CA         23.7490  -35.7730   -4.1820 C.3       8 GLP5        0.0000 
     59 CA         17.9265  -33.7203   -4.5005 C.3       4 GLC5        0.0000 
     60 CA         17.0610  -31.9730   -4.5470 C.3       8 GLP5        0.0000 
     61 CA         16.6562  -37.7655   -2.0933 C.3       4 GLC5        0.0000 
     62 CA         17.3690  -36.6510   -3.9580 C.3      12 GLL5        0.0000 
     63 CA         20.6017  -35.4842   -0.4395 C.3       4 GLC5        0.0000 
     64 CA         18.7610  -36.2570    0.1020 C.3      12 GLL5        0.0000 
     65 CA         16.9675  -37.2190    0.0258 C.3       4 GLC5        0.0000 
@<TRIPOS>BOND
@<TRIPOS>SUBSTRUCTURE
     1 ALC1       14 GROUP        1 X    ALC  0     ROOT ALC X 1
     2 SEC2       22 GROUP        1 X    SEC  0     **** SEC X 2
     3 ASC3       11 GROUP        1 X    ASC  0     **** ASC X 3
     4 GLC5        1 GROUP        1 X    GLC  0     **** GLC X 6
     5 ALP1       16 GROUP        1 Y    ALP  0     ROOT ALP Y 8
     6 SEP2       24 GROUP        1 Y    SEP  0     **** SEP Y 9
     7 ASP3       13 GROUP        1 Y    ASP  0     **** ASP Y 10
     8 GLP5        3 GROUP        1 Y    GLP  0     **** GLP Y 13
     9 ALL1       15 GROUP        1 Z    ALL  0     ROOT ALL Z 15
    10 SEL2       23 GROUP        1 Z    SEL  0     **** SEL Z 16
    11 ASL3       12 GROUP        1 Z    ASL  0     **** ASL Z 17
    12 GLL5        2 GROUP        1 Z    GLL  0     **** GLL Z 20
@<TRIPOS>SET

