#    Name: 4dtk_7LI_1_ligand
#    Modification time : Tue Mar 25 10:12:39 2014

@<TRIPOS>MOLECULE
4dtk_7LI_1_ligand
   49    51     1     0     0
SMALL
NO_CHARGES


@<TRIPOS>ATOM
      1 C          22.7970  -40.1530   -3.7150 C.3       1 7LI408      0.0000 
      2 N          19.3330  -37.1640   -2.5370 N.3       1 7LI408      0.0000 
      3 O          20.7330  -39.4530   -2.9090 O.3       1 7LI408      0.0000 
      4 S          17.7840  -36.8070    2.6510 S.3       1 7LI408      0.0000 
      5 C1         21.4650  -40.6490   -3.2770 C.3       1 7LI408      0.0000 
      6 N1         16.3110  -37.3160   -4.7420 N.4       1 7LI408      0.0000 
      7 O1         17.0340  -33.9390    0.2010 O.2       1 7LI408      0.0000 
      8 C2         20.6960  -41.2920   -4.3840 C.3       1 7LI408      0.0000 
      9 N2         16.2780  -34.7590    2.2280 N.am      1 7LI408      0.0000 
     10 O2         15.8050  -35.8970    4.1670 O.2       1 7LI408      0.0000 
     11 C3         20.6300  -39.0260   -1.5980 C.ar      1 7LI408      0.0000 
     12 C4         21.1810  -39.7010   -0.5130 C.ar      1 7LI408      0.0000 
     13 C5         20.9850  -39.2170    0.7690 C.ar      1 7LI408      0.0000 
     14 C6         20.2470  -38.0650    0.9710 C.ar      1 7LI408      0.0000 
     15 C7         19.7010  -37.3590   -0.1090 C.ar      1 7LI408      0.0000 
     16 C8         19.8990  -37.8450   -1.4110 C.ar      1 7LI408      0.0000 
     17 C9         20.1400  -36.2080   -3.3070 C.3       1 7LI408      0.0000 
     18 C10        19.3510  -35.1490   -4.0470 C.3       1 7LI408      0.0000 
     19 C11        18.2330  -35.7860   -4.8610 C.3       1 7LI408      0.0000 
     20 C12        17.3690  -36.6510   -3.9580 C.3       1 7LI408      0.0000 
     21 C13        18.1700  -37.7150   -3.2430 C.3       1 7LI408      0.0000 
     22 C14        18.7610  -36.2570    0.1020 C.2       1 7LI408      0.0000 
     23 C15        18.0230  -35.9230    1.1730 C.2       1 7LI408      0.0000 
     24 C16        17.0940  -34.7720    1.1100 C.2       1 7LI408      0.0000 
     25 C17        16.4670  -35.7360    3.1610 C.2       1 7LI408      0.0000 
     26 H          21.5563  -41.2928   -2.4517 H         1 7LI408      0.0000 
     27 H          15.5650  -34.0418    2.3411 H         1 7LI408      0.0000 
     28 H          21.7309  -40.5554   -0.6663 H         1 7LI408      0.0000 
     29 H          21.3905  -39.7171    1.5750 H         1 7LI408      0.0000 
     30 H          20.0912  -37.7126    1.9315 H         1 7LI408      0.0000 
     31 H          20.7696  -36.7538   -4.0490 H         1 7LI408      0.0000 
     32 H          20.8646  -35.6932   -2.6327 H         1 7LI408      0.0000 
     33 H          20.0142  -34.6015   -4.7164 H         1 7LI408      0.0000 
     34 H          18.9193  -34.4496   -3.3314 H         1 7LI408      0.0000 
     35 H          18.6639  -36.3999   -5.6459 H         1 7LI408      0.0000 
     36 H          17.6231  -35.0064   -5.3069 H         1 7LI408      0.0000 
     37 H          16.9039  -36.0137   -3.2094 H         1 7LI408      0.0000 
     38 H          17.5040  -38.2369   -2.5329 H         1 7LI408      0.0000 
     39 H          18.4941  -38.4669   -3.9844 H         1 7LI408      0.0000 
     40 H          18.6722  -35.6160   -0.7931 H         1 7LI408      0.0000 
     41 H          23.2674  -39.6576   -2.9847 H         1 7LI408      0.0000 
     42 H          23.3980  -40.9013   -3.9958 H         1 7LI408      0.0000 
     43 H          22.7235  -39.5285   -4.4926 H         1 7LI408      0.0000 
     44 H          15.7272  -37.8890   -4.1669 H         1 7LI408      0.0000 
     45 H          15.7151  -36.6547   -5.1976 H         1 7LI408      0.0000 
     46 H          16.6916  -37.9065   -5.4536 H         1 7LI408      0.0000 
     47 H          20.5286  -40.6566   -5.1378 H         1 7LI408      0.0000 
     48 H          21.1818  -42.0783   -4.7658 H         1 7LI408      0.0000 
     49 H          19.8038  -41.6208   -4.0743 H         1 7LI408      0.0000 
@<TRIPOS>BOND
     1    5    1 1    
     2   41    1 1    
     3   42    1 1    
     4   43    1 1    
     5   16    2 1    
     6   17    2 1    
     7   21    2 1    
     8    5    3 1    
     9   11    3 1    
    10   23    4 1    
    11   25    4 1    
    12    8    5 1    
    13   26    5 1    
    14   20    6 1    
    15   44    6 1    
    16   45    6 1    
    17   46    6 1    
    18   24    7 2    
    19   47    8 1    
    20   48    8 1    
    21   49    8 1    
    22   24    9 am   
    23   25    9 am   
    24   27    9 1    
    25   25   10 2    
    26   12   11 ar   
    27   16   11 ar   
    28   13   12 ar   
    29   28   12 1    
    30   14   13 ar   
    31   29   13 1    
    32   15   14 ar   
    33   30   14 1    
    34   16   15 ar   
    35   22   15 1    
    36   18   17 1    
    37   31   17 1    
    38   32   17 1    
    39   19   18 1    
    40   33   18 1    
    41   34   18 1    
    42   20   19 1    
    43   35   19 1    
    44   36   19 1    
    45   21   20 1    
    46   37   20 1    
    47   38   21 1    
    48   39   21 1    
    49   23   22 2    
    50   40   22 1    
    51   24   23 1    
@<TRIPOS>SUBSTRUCTURE
     1 7LI408      1 GROUP   
@<TRIPOS>SET

