#    Name: 3r04_UNQ_1_INTS_M
#    Modification time : Tue Mar 25 10:24:53 2014

@<TRIPOS>MOLECULE
3r04_UNQ_1_INTS_M
   69     0    15     0     0
SMALL
NO_CHARGES


@<TRIPOS>ATOM
      1 CA         24.5815  -35.3255   -4.0525 C.3       5 GLC5        0.0000 
      2 CA         23.2570  -35.3100   -2.3790 C.3      15 GLL5        0.0000 
      3 CA         25.9060  -35.3410   -5.7260 C.3      10 GLP5        0.0000 
      4 CA         21.9160  -34.6600   -3.9360 C.3       5 GLC5        0.0000 
      5 CA         20.5750  -34.0100   -5.4930 C.3      10 GLP5        0.0000 
      6 CA         22.6820  -36.3325   -4.6755 C.3       5 GLC5        0.0000 
      7 CA         23.6990  -36.5730   -2.8450 C.3      15 GLL5        0.0000 
      8 CA         21.6650  -36.0920   -6.5060 C.3      10 GLP5        0.0000 
      9 CA         20.3055  -33.6425   -0.4615 C.3       5 GLC5        0.0000 
     10 CA         22.3450  -33.6730   -0.9800 C.3      15 GLL5        0.0000 
     11 CA         18.2660  -33.6120    0.0570 C.3      10 GLP5        0.0000 
     12 CA         21.5610  -33.6260   -3.8725 C.3       5 GLC5        0.0000 
     13 CA         22.5470  -33.2420   -2.2520 C.3      15 GLL5        0.0000 
     14 CA         24.4010  -32.7315   -2.0575 C.3       5 GLC5        0.0000 
     15 CA         26.2550  -32.2210   -1.8630 C.3      10 GLP5        0.0000 
     16 NZ         20.9170  -30.0280   -2.4350 N.4       4 LYC4        0.0000 
     17 NZ         21.8430  -30.9210   -2.0610 N.4      14 LYL4        0.0000 
     18 NZ         19.9910  -29.1350   -2.8090 N.4       9 LYP4        0.0000 
     19 N          20.9170  -30.0280   -2.4350 N.am      2 SEC2        0.0000 
     20 N          21.8430  -30.9210   -2.0610 N.am     12 SEL2        0.0000 
     21 N          19.9910  -29.1350   -2.8090 N.am      7 SEP2        0.0000 
     22 N          23.9830  -30.6635   -3.3735 N.am      2 SEC2        0.0000 
     23 N          23.0210  -31.6630   -3.8860 N.am     12 SEL2        0.0000 
     24 N          24.9450  -29.6640   -2.8610 N.am      7 SEP2        0.0000 
     25 CA         23.5185  -41.0610   -1.0200 C.3       5 GLC5        0.0000 
     26 CA         23.6450  -39.6670    0.1400 C.3      15 GLL5        0.0000 
     27 CA         23.3920  -42.4550   -2.1800 C.3      10 GLP5        0.0000 
     28 CA         25.5695  -39.8010    1.2215 C.3       5 GLC5        0.0000 
     29 CA         27.4940  -39.9350    2.3030 C.3      10 GLP5        0.0000 
     30 CA         25.9055  -36.2480    3.1410 C.3       5 GLC5        0.0000 
     31 CA         24.4530  -36.4870    4.4470 C.3      15 GLL5        0.0000 
     32 CA         27.3580  -36.0090    1.8350 C.3      10 GLP5        0.0000 
     33 OD1        25.1100  -33.7670    6.9935 O.co2     3 ASC3        0.0000 
     34 OD1        23.5430  -33.7360    6.9350 O.co2    13 ASL3        0.0000 
     35 OD1        26.6770  -33.7980    7.0520 O.co2     8 ASP3        0.0000 
     36 O          24.3785  -32.8885    6.4840 O.2       1 ALC1        0.0000 
     37 O          23.5430  -33.7360    6.9350 O.2      11 ALL1        0.0000 
     38 O          25.2140  -32.0410    6.0330 O.2       6 ALP1        0.0000 
     39 CA         21.7828  -37.5130   -1.6375 C.3       5 GLC5        0.0000 
     40 CA         23.3010  -37.3150   -0.5070 C.3      15 GLL5        0.0000 
     41 CA         20.5150  -38.3390   -2.9650 C.3      10 GLP5        0.0000 
     42 CA         25.0772  -36.8450   -0.4045 C.3       5 GLC5        0.0000 
     43 CA         27.1040  -37.0030   -0.4990 C.3      10 GLP5        0.0000 
     44 CA         20.8088  -35.7323   -0.4863 C.3       5 GLC5        0.0000 
     45 CA         22.8000  -36.0590   -0.1130 C.3      15 GLL5        0.0000 
     46 CA         18.8200  -35.8950   -0.3830 C.3      10 GLP5        0.0000 
     47 CA         21.7705  -36.7670   -2.3438 C.3       5 GLC5        0.0000 
     48 CA         22.7950  -35.0800   -1.0660 C.3      15 GLL5        0.0000 
     49 CA         25.1200  -34.7458   -2.4260 C.3       5 GLC5        0.0000 
     50 CA         26.7620  -33.5500   -2.2400 C.3      10 GLP5        0.0000 
     51 CA         22.1190  -37.6962   -2.6547 C.3       5 GLC5        0.0000 
     52 CA         25.2325  -36.7233   -3.6553 C.3       5 GLC5        0.0000 
     53 CA         23.7470  -37.5340   -1.8440 C.3      15 GLL5        0.0000 
     54 CA         26.7420  -36.3930   -4.9660 C.3      10 GLP5        0.0000 
     55 CA         25.4135  -37.0282   -1.4218 C.3       5 GLC5        0.0000 
     56 CA         24.0916  -33.6616   -0.0904 C.3       5 GLC5        0.0000 
     57 CA         25.6120  -32.7020    0.6040 C.3      10 GLP5        0.0000 
     58 CA         25.3172  -38.0033   -0.0742 C.3       5 GLC5        0.0000 
     59 CA         23.4160  -38.3400    0.5610 C.3      15 GLL5        0.0000 
     60 CA         21.9020  -39.6855    2.0865 C.3       5 GLC5        0.0000 
     61 CA         23.6140  -39.1170    2.8010 C.3      15 GLL5        0.0000 
     62 CA         20.1120  -39.5900    1.6060 C.3      10 GLP5        0.0000 
     63 CA         25.5930  -39.8580    2.4350 C.3       5 GLC5        0.0000 
     64 CA         21.8069  -39.1686    0.8448 C.3       5 GLC5        0.0000 
     65 CA         21.1305  -37.8765    4.4882 C.3       5 GLC5        0.0000 
     66 CA         23.1970  -37.4220    4.5770 C.3      15 GLL5        0.0000 
     67 CA         19.3050  -38.3270    3.6550 C.3      10 GLP5        0.0000 
     68 CA         26.2025  -35.3817    5.1107 C.3       5 GLC5        0.0000 
     69 CA         28.1230  -34.9860    5.5460 C.3      10 GLP5        0.0000 
@<TRIPOS>BOND
@<TRIPOS>SUBSTRUCTURE
     1 ALC1       36 GROUP        1 X    ALC  0     ROOT ALC X 1
     2 SEC2       19 GROUP        1 X    SEC  0     **** SEC X 2
     3 ASC3       33 GROUP        1 X    ASC  0     **** ASC X 3
     4 LYC4       16 GROUP        1 X    LYC  0     **** LYC X 4
     5 GLC5        1 GROUP        1 X    GLC  0     **** GLC X 6
     6 ALP1       38 GROUP        1 Y    ALP  0     ROOT ALP Y 8
     7 SEP2       21 GROUP        1 Y    SEP  0     **** SEP Y 9
     8 ASP3       35 GROUP        1 Y    ASP  0     **** ASP Y 10
     9 LYP4       18 GROUP        1 Y    LYP  0     **** LYP Y 11
    10 GLP5        3 GROUP        1 Y    GLP  0     **** GLP Y 13
    11 ALL1       37 GROUP        1 Z    ALL  0     ROOT ALL Z 15
    12 SEL2       20 GROUP        1 Z    SEL  0     **** SEL Z 16
    13 ASL3       34 GROUP        1 Z    ASL  0     **** ASL Z 17
    14 LYL4       17 GROUP        1 Z    LYL  0     **** LYL Z 18
    15 GLL5        2 GROUP        1 Z    GLL  0     **** GLL Z 20
@<TRIPOS>SET

