#    Name: 3r04_UNQ_1_ligand
#    Modification time : Tue Mar 25 10:24:53 2014

@<TRIPOS>MOLECULE
3r04_UNQ_1_ligand
   46    49     1     0     0
SMALL
NO_CHARGES


@<TRIPOS>ATOM
      1 C01        23.3010  -37.3150   -0.5070 C.ar      1 UNQ555      0.0000 
      2 C02        22.7950  -35.0800   -1.0660 C.ar      1 UNQ555      0.0000 
      3 C03        22.8000  -36.0590   -0.1130 C.ar      1 UNQ555      0.0000 
      4 C04        23.2570  -35.3100   -2.3790 C.ar      1 UNQ555      0.0000 
      5 C05        23.7470  -37.5340   -1.8440 C.ar      1 UNQ555      0.0000 
      6 C06        23.6990  -36.5730   -2.8450 C.ar      1 UNQ555      0.0000 
      7 O07        23.1030  -34.1690   -3.1370 O.3       1 UNQ555      0.0000 
      8 C08        22.3450  -33.6730   -0.9800 C.2       1 UNQ555      0.0000 
      9 C09        22.5470  -33.2420   -2.2520 C.2       1 UNQ555      0.0000 
     10 C10        22.3520  -31.8240   -2.7510 C.2       1 UNQ555      0.0000 
     11 O11        21.8430  -30.9210   -2.0610 O.co2     1 UNQ555      0.0000 
     12 O12        23.0210  -31.6630   -3.8860 O.co2     1 UNQ555      0.0000 
     13 C13        23.4160  -38.3400    0.5610 C.ar      1 UNQ555      0.0000 
     14 C14        23.6140  -39.1170    2.8010 C.ar      1 UNQ555      0.0000 
     15 N15        23.4420  -38.0560    1.9100 N.ar      1 UNQ555      0.0000 
     16 C16        23.7700  -40.4450    2.3330 C.ar      1 UNQ555      0.0000 
     17 C17        23.6450  -39.6670    0.1400 C.ar      1 UNQ555      0.0000 
     18 N18        23.7900  -40.7110    1.0140 N.ar      1 UNQ555      0.0000 
     19 N19        23.6030  -38.8180    4.1710 N.pl3     1 UNQ555      0.0000 
     20 C20        23.1970  -37.4220    4.5770 C.3       1 UNQ555      0.0000 
     21 C21        22.7150  -37.4300    6.0660 C.3       1 UNQ555      0.0000 
     22 C22        22.4650  -35.9830    6.5920 C.3       1 UNQ555      0.0000 
     23 C23        23.6900  -35.0520    6.3890 C.3       1 UNQ555      0.0000 
     24 C24        24.1110  -35.0680    4.9040 C.3       1 UNQ555      0.0000 
     25 C25        24.4530  -36.4870    4.4470 C.3       1 UNQ555      0.0000 
     26 N26        23.5430  -33.7360    6.9350 N.4       1 UNQ555      0.0000 
     27 H          22.4686  -35.9114    0.8241 H         1 UNQ555      0.0000 
     28 H          24.1328  -38.4854   -2.0699 H         1 UNQ555      0.0000 
     29 H          23.9412  -36.7356   -3.7761 H         1 UNQ555      0.0000 
     30 H          22.0311  -33.2785   -0.2389 H         1 UNQ555      0.0000 
     31 H          23.8674  -41.1981    3.0390 H         1 UNQ555      0.0000 
     32 H          23.7040  -39.8439   -0.8927 H         1 UNQ555      0.0000 
     33 H          23.8435  -39.4621    4.8827 H         1 UNQ555      0.0000 
     34 H          22.4308  -37.0548    3.9602 H         1 UNQ555      0.0000 
     35 H          23.4755  -37.9018    6.6772 H         1 UNQ555      0.0000 
     36 H          21.7921  -37.9944    6.1318 H         1 UNQ555      0.0000 
     37 H          22.2295  -36.0334    7.6558 H         1 UNQ555      0.0000 
     38 H          21.6079  -35.5624    6.0647 H         1 UNQ555      0.0000 
     39 H          24.5394  -35.5817    6.9285 H         1 UNQ555      0.0000 
     40 H          24.9805  -34.4272    4.7775 H         1 UNQ555      0.0000 
     41 H          23.2925  -34.6808    4.3017 H         1 UNQ555      0.0000 
     42 H          24.7626  -36.4765    3.4102 H         1 UNQ555      0.0000 
     43 H          25.2439  -36.8931    5.0639 H         1 UNQ555      0.0000 
     44 H          24.2412  -33.5394    7.6233 H         1 UNQ555      0.0000 
     45 H          23.6195  -33.0308    6.2301 H         1 UNQ555      0.0000 
     46 H          22.6539  -33.6142    7.3762 H         1 UNQ555      0.0000 
@<TRIPOS>BOND
     1    3    1 ar   
     2    5    1 ar   
     3   13    1 1    
     4    3    2 ar   
     5    4    2 ar   
     6    8    2 1    
     7   27    3 1    
     8    6    4 ar   
     9    7    4 1    
    10    6    5 ar   
    11   28    5 1    
    12   29    6 1    
    13    9    7 1    
    14    9    8 2    
    15   30    8 1    
    16   10    9 1    
    17   11   10 ar   
    18   12   10 ar   
    19   15   13 ar   
    20   17   13 ar   
    21   15   14 ar   
    22   16   14 ar   
    23   19   14 1    
    24   18   16 ar   
    25   31   16 1    
    26   18   17 ar   
    27   32   17 1    
    28   20   19 1    
    29   33   19 1    
    30   21   20 1    
    31   25   20 1    
    32   34   20 1    
    33   22   21 1    
    34   35   21 1    
    35   36   21 1    
    36   23   22 1    
    37   37   22 1    
    38   38   22 1    
    39   24   23 1    
    40   26   23 1    
    41   39   23 1    
    42   25   24 1    
    43   40   24 1    
    44   41   24 1    
    45   42   25 1    
    46   43   25 1    
    47   44   26 1    
    48   45   26 1    
    49   46   26 1    
@<TRIPOS>SUBSTRUCTURE
     1 UNQ555      1 GROUP   
@<TRIPOS>SET

