#    Name: 1dg8_NDP_1_INTS_M
#    Modification time : Mon Mar 24 21:51:49 2014

@<TRIPOS>MOLECULE
1dg8_NDP_1_INTS_M
  114     0    12     0     0
SMALL
NO_CHARGES


@<TRIPOS>ATOM
      1 N          11.1300   16.8280   15.1630 N.am      2 SEC2        0.0000 
      2 N          11.9230   15.9820   16.0370 N.am     10 SEL2        0.0000 
      3 N          10.3370   17.6740   14.2890 N.am      6 SEP2        0.0000 
      4 N          12.1745   14.9555   14.8215 N.am      2 SEC2        0.0000 
      5 N          12.4260   13.9290   13.6060 N.am      6 SEP2        0.0000 
      6 N           9.5895   18.5550   18.0340 N.am      2 SEC2        0.0000 
      7 N          10.5190   17.7100   17.1310 N.am     10 SEL2        0.0000 
      8 N           8.6600   19.4000   18.9370 N.am      6 SEP2        0.0000 
      9 N           9.7630   18.6470   16.5885 N.am      2 SEC2        0.0000 
     10 N           9.0070   19.5840   16.0460 N.am      6 SEP2        0.0000 
     11 N          10.4280   17.6920   15.7100 N.am      2 SEC2        0.0000 
     12 N          10.3230   16.6235   19.6420 N.am      2 SEC2        0.0000 
     13 N          11.3300   15.8080   18.4960 N.am     10 SEL2        0.0000 
     14 N           9.3160   17.4390   20.7880 N.am      6 SEP2        0.0000 
     15 CA         13.4355   14.3080   17.2905 C.3       4 GLC5        0.0000 
     16 CA         12.3040   14.8090   18.8960 C.3      12 GLL5        0.0000 
     17 CA         14.5670   13.8070   15.6850 C.3       8 GLP5        0.0000 
     18 CA          9.7505   14.3735   21.0310 C.3       4 GLC5        0.0000 
     19 CA         11.4760   14.0200   19.9470 C.3      12 GLL5        0.0000 
     20 CA          8.0250   14.7270   22.1150 C.3       8 GLP5        0.0000 
     21 N           9.2645   14.1200   19.4695 N.am      2 SEC2        0.0000 
     22 N          10.5730   13.1590   19.2140 N.am     10 SEL2        0.0000 
     23 N           7.9560   15.0810   19.7250 N.am      6 SEP2        0.0000 
     24 CA          8.2305    8.0125   18.3465 C.3       4 GLC5        0.0000 
     25 CA          9.5780    7.7400   19.3790 C.3      12 GLL5        0.0000 
     26 CA          6.8830    8.2850   17.3140 C.3       8 GLP5        0.0000 
     27 CA          8.4765    9.0050   20.6450 C.3       4 GLC5        0.0000 
     28 CA          7.3750   10.2700   21.9110 C.3       8 GLP5        0.0000 
     29 CA         10.4855    7.3520   20.7780 C.3       4 GLC5        0.0000 
     30 CA         11.3930    6.9640   22.1770 C.3       8 GLP5        0.0000 
     31 CA          8.7720   10.1795   18.1475 C.3       4 GLC5        0.0000 
     32 CA         10.6670    9.6080   18.9570 C.3      12 GLL5        0.0000 
     33 CA          6.8770   10.7510   17.3380 C.3       8 GLP5        0.0000 
     34 CA          9.0210    9.9390   20.4340 C.3       4 GLC5        0.0000 
     35 CA         11.0300    8.2860   20.5670 C.3       4 GLC5        0.0000 
     36 NZ         15.5560   18.1045   19.4350 N.4       3 LYC4        0.0000 
     37 NZ         14.9490   18.7710   18.3610 N.4      11 LYL4        0.0000 
     38 NZ         15.7620   17.3070   21.7680 N.4       7 LYP4        0.0000 
     39 N          15.5560   18.1045   19.4350 N.am      2 SEC2        0.0000 
     40 N          14.9490   18.7710   18.3610 N.am     10 SEL2        0.0000 
     41 N          16.1630   17.4380   20.5090 N.am      6 SEP2        0.0000 
     42 N          14.8005   16.6115   15.1115 N.am      2 SEC2        0.0000 
     43 N          14.8800   17.6120   16.1800 N.am     10 SEL2        0.0000 
     44 N          14.7210   15.6110   14.0430 N.am      6 SEP2        0.0000 
     45 N          13.5780   18.9415   14.9725 N.am      2 SEC2        0.0000 
     46 N          13.3860   19.6030   16.4830 N.am     10 SEL2        0.0000 
     47 N          13.7700   18.2800   13.4620 N.am      6 SEP2        0.0000 
     48 CA         12.0495   19.7420   19.0075 C.3       4 GLC5        0.0000 
     49 CA         12.7780   20.6020   17.3210 C.3      12 GLL5        0.0000 
     50 CA         11.3210   18.8820   20.6940 C.3       8 GLP5        0.0000 
     51 CA         12.0980   19.5900   15.6275 C.3       4 GLC5        0.0000 
     52 CA         11.4180   18.5780   13.9340 C.3       8 GLP5        0.0000 
     53 CA         14.8090   21.6975   15.6880 C.3       4 GLC5        0.0000 
     54 CA         13.2330   21.9150   16.6840 C.3      12 GLL5        0.0000 
     55 CA         16.3850   21.4800   14.6920 C.3       8 GLP5        0.0000 
     56 CA         13.3735   24.2120   19.1235 C.3       4 GLC5        0.0000 
     57 CA         12.7180   23.1450   17.4390 C.3      12 GLL5        0.0000 
     58 CA         14.0290   25.2790   20.8080 C.3       8 GLP5        0.0000 
     59 CA         13.9240   24.3310   14.8540 C.3       4 GLC5        0.0000 
     60 CA         12.1370   23.2820   15.1090 C.3      12 GLL5        0.0000 
     61 CA         15.7110   25.3800   14.5990 C.3       8 GLP5        0.0000 
     62 CA         11.0305   25.7810   13.3910 C.3       4 GLC5        0.0000 
     63 CA         11.3420   23.9210   12.8680 C.3      12 GLL5        0.0000 
     64 CA         10.7190   27.6410   13.9140 C.3       8 GLP5        0.0000 
     65 CA          9.9685   25.6710   12.4225 C.3       4 GLC5        0.0000 
     66 CA         10.4160   23.8240   11.8540 C.3      12 GLL5        0.0000 
     67 CA          9.5210   27.5180   12.9910 C.3       8 GLP5        0.0000 
     68 N          10.2655   24.6890    8.2295 N.am      2 SEC2        0.0000 
     69 N          10.0200   24.4550    9.5760 N.am     10 SEL2        0.0000 
     70 N          10.5110   24.9230    6.8830 N.am      6 SEP2        0.0000 
     71 O          12.2575   25.7045    9.3545 O.2       1 ALC1        0.0000 
     72 O          11.7380   25.5910   10.6260 O.2       9 ALL1        0.0000 
     73 O          12.7770   25.8180    8.0830 O.2       5 ALP1        0.0000 
     74 O          12.8350   25.6260   11.5660 O.2       1 ALC1        0.0000 
     75 O          13.9320   25.6610   12.5060 O.2       5 ALP1        0.0000 
     76 NZ         11.8760   14.1835   24.5600 N.4       3 LYC4        0.0000 
     77 NZ         11.9490   12.8580   24.0150 N.4      11 LYL4        0.0000 
     78 NZ         10.6250   16.0970   24.9390 N.4       7 LYP4        0.0000 
     79 N          11.8760   14.1835   24.5600 N.am      2 SEC2        0.0000 
     80 N          11.9490   12.8580   24.0150 N.am     10 SEL2        0.0000 
     81 N          11.8030   15.5090   25.1050 N.am      6 SEP2        0.0000 
     82 NZ          9.5195   14.0710   24.4570 N.4       3 LYC4        0.0000 
     83 NZ          9.4610   12.7530   24.3990 N.4      11 LYL4        0.0000 
     84 N           8.3855   11.9390   24.2820 N.am      2 SEC2        0.0000 
     85 N           9.4610   12.7530   24.3990 N.am     10 SEL2        0.0000 
     86 N           7.3100   11.1250   24.1650 N.am      6 SEP2        0.0000 
     87 N           9.5195   14.0710   24.4570 N.am      2 SEC2        0.0000 
     88 N           9.5780   15.3890   24.5150 N.am      6 SEP2        0.0000 
     89 N           9.3015   12.8555   25.8160 N.am      2 SEC2        0.0000 
     90 N           9.1420   12.9580   27.2330 N.am      6 SEP2        0.0000 
     91 N           9.8580    9.7200   23.4375 N.am      2 SEC2        0.0000 
     92 N          10.7920   10.6550   23.8170 N.am     10 SEL2        0.0000 
     93 N           8.9240    8.7850   23.0580 N.am      6 SEP2        0.0000 
     94 CA         10.0170   14.6928   18.3687 C.3       4 GLC5        0.0000 
     95 CA          8.1440   14.9710   17.3160 C.3       8 GLP5        0.0000 
     96 CA         12.0425   16.2592   20.5282 C.3       4 GLC5        0.0000 
     97 CA         12.1950   18.1040   21.6350 C.3       8 GLP5        0.0000 
     98 CA          9.4340   13.3500   21.3325 C.3       4 GLC5        0.0000 
     99 CA         11.1860   12.0440   21.2000 C.3      12 GLL5        0.0000 
    100 CA          9.1090   11.1215   21.2305 C.3       4 GLC5        0.0000 
    101 CA          9.6847    8.9480   16.6887 C.3       4 GLC5        0.0000 
    102 CA         11.4380    9.0630   17.9770 C.3      12 GLL5        0.0000 
    103 CA          8.0410    9.5210   15.5520 C.3       8 GLP5        0.0000 
    104 CA         11.2248    8.5390   15.8053 C.3       4 GLC5        0.0000 
    105 CA         11.1210    8.7030   13.7850 C.3       8 GLP5        0.0000 
    106 CA         12.4365   22.6292   11.9060 C.3       4 GLC5        0.0000 
    107 CA         13.9940   21.3860   11.4510 C.3       8 GLP5        0.0000 
    108 CA          8.2108   21.4958   14.7280 C.3       4 GLC5        0.0000 
    109 CA          9.9780   22.3540   14.1820 C.3      12 GLL5        0.0000 
    110 CA          6.8760   20.6570   15.7930 C.3       8 GLP5        0.0000 
    111 CA          9.2248   20.4267   13.0925 C.3       4 GLC5        0.0000 
    112 CA          9.1130   22.3150   13.1440 C.3      12 GLL5        0.0000 
    113 CA          8.9040   18.5190   12.5220 C.3       8 GLP5        0.0000 
    114 CA         10.4817   20.4563   13.7985 C.3       4 GLC5        0.0000 
@<TRIPOS>BOND
@<TRIPOS>SUBSTRUCTURE
     1 ALC1       71 GROUP        1 X    ALC  0     ROOT ALC X 1
     2 SEC2        1 GROUP        1 X    SEC  0     **** SEC X 2
     3 LYC4       36 GROUP        1 X    LYC  0     **** LYC X 4
     4 GLC5       15 GROUP        1 X    GLC  0     **** GLC X 6
     5 ALP1       73 GROUP        1 Y    ALP  0     ROOT ALP Y 8
     6 SEP2        3 GROUP        1 Y    SEP  0     **** SEP Y 9
     7 LYP4       38 GROUP        1 Y    LYP  0     **** LYP Y 11
     8 GLP5       17 GROUP        1 Y    GLP  0     **** GLP Y 13
     9 ALL1       72 GROUP        1 Z    ALL  0     ROOT ALL Z 15
    10 SEL2        2 GROUP        1 Z    SEL  0     **** SEL Z 16
    11 LYL4       37 GROUP        1 Z    LYL  0     **** LYL Z 18
    12 GLL5       16 GROUP        1 Z    GLL  0     **** GLL Z 20
@<TRIPOS>SET

