#    Name: 1dg8_NDP_1_ligand
#    Modification time : Mon Mar 24 21:51:49 2014

@<TRIPOS>MOLECULE
1dg8_NDP_1_ligand
   74    78     1     0     0
SMALL
NO_CHARGES


@<TRIPOS>ATOM
      1 PA         11.6620   16.7620   17.2800 P.3       1 NDP160      0.0000 
      2 O1A        11.9230   15.9820   16.0370 O.co2     1 NDP160      0.0000 
      3 O2A        10.5190   17.7100   17.1310 O.co2     1 NDP160      0.0000 
      4 O5B        11.3300   15.8080   18.4960 O.3       1 NDP160      0.0000 
      5 C5B        12.3040   14.8090   18.8960 C.3       1 NDP160      0.0000 
      6 C4B        11.4760   14.0200   19.9470 C.3       1 NDP160      0.0000 
      7 O4B        10.5730   13.1590   19.2140 O.3       1 NDP160      0.0000 
      8 C3B        12.3170   13.0710   20.8270 C.3       1 NDP160      0.0000 
      9 O3B        12.8710   13.8530   21.8640 O.3       1 NDP160      0.0000 
     10 C2B        11.1860   12.0440   21.2000 C.3       1 NDP160      0.0000 
     11 O2B        10.2830   12.4560   22.1870 O.3       1 NDP160      0.0000 
     12 C1B        10.5000   11.9020   19.9000 C.3       1 NDP160      0.0000 
     13 N9A        11.0720   10.9180   19.0420 N.pl3     1 NDP160      0.0000 
     14 C8A        12.0580   11.0780   18.1080 C.2       1 NDP160      0.0000 
     15 N7A        12.3160    9.9730   17.4420 N.2       1 NDP160      0.0000 
     16 C5A        11.4380    9.0630   17.9770 C.ar      1 NDP160      0.0000 
     17 C6A        11.2190    7.6870   17.6740 C.ar      1 NDP160      0.0000 
     18 N6A        11.9440    7.0860   16.7040 N.pl3     1 NDP160      0.0000 
     19 N1A        10.2610    7.0350   18.4040 N.ar      1 NDP160      0.0000 
     20 C2A         9.5780    7.7400   19.3790 C.ar      1 NDP160      0.0000 
     21 N3A         9.7140    8.9930   19.7220 N.ar      1 NDP160      0.0000 
     22 C4A        10.6670    9.6080   18.9570 C.ar      1 NDP160      0.0000 
     23 O3         12.8940   17.5000   17.7410 O.3       1 NDP160      0.0000 
     24 PN         14.1100   18.3440   17.2210 P.3       1 NDP160      0.0000 
     25 O1N        14.9490   18.7710   18.3610 O.co2     1 NDP160      0.0000 
     26 O2N        14.8800   17.6120   16.1800 O.co2     1 NDP160      0.0000 
     27 O5D        13.3860   19.6030   16.4830 O.3       1 NDP160      0.0000 
     28 C5D        12.7780   20.6020   17.3210 C.3       1 NDP160      0.0000 
     29 C4D        13.2330   21.9150   16.6840 C.3       1 NDP160      0.0000 
     30 O4D        12.7030   21.9960   15.3260 O.3       1 NDP160      0.0000 
     31 C3D        12.7180   23.1450   17.4390 C.3       1 NDP160      0.0000 
     32 O3D        13.8360   24.0190   17.5580 O.3       1 NDP160      0.0000 
     33 C2D        11.5660   23.6080   16.4920 C.3       1 NDP160      0.0000 
     34 O2D        11.2580   24.9960   16.6830 O.3       1 NDP160      0.0000 
     35 C1D        12.1370   23.2820   15.1090 C.3       1 NDP160      0.0000 
     36 N1N        11.0940   23.1620   14.0350 N.pl3     1 NDP160      0.0000 
     37 C2N        11.3420   23.9210   12.8680 C.2       1 NDP160      0.0000 
     38 C3N        10.4160   23.8240   11.8540 C.2       1 NDP160      0.0000 
     39 C7N        10.7130   24.6710   10.5560 C.2       1 NDP160      0.0000 
     40 O7N        10.0200   24.4550    9.5760 O.2       1 NDP160      0.0000 
     41 N7N        11.7380   25.5910   10.6260 N.am      1 NDP160      0.0000 
     42 C4N         9.2300   23.0260   11.8990 C.3       1 NDP160      0.0000 
     43 C5N         9.1130   22.3150   13.1440 C.2       1 NDP160      0.0000 
     44 C6N         9.9780   22.3540   14.1820 C.2       1 NDP160      0.0000 
     45 P2B        10.7080   12.1450   23.7990 P.3       1 NDP160      0.0000 
     46 O1X        11.9490   12.8580   24.0150 O.co2     1 NDP160      0.0000 
     47 O2X         9.4610   12.7530   24.3990 O.co2     1 NDP160      0.0000 
     48 O3X        10.7920   10.6550   23.8170 O.co2     1 NDP160      0.0000 
     49 H          13.1358   15.2332   19.3847 H         1 NDP160      0.0000 
     50 H          12.5492   14.1510   18.1101 H         1 NDP160      0.0000 
     51 H          10.9399   14.6919   20.5594 H         1 NDP160      0.0000 
     52 H          12.9925   12.5934   20.1823 H         1 NDP160      0.0000 
     53 H          11.6846   11.1142   21.4074 H         1 NDP160      0.0000 
     54 H           9.4466   11.6729   20.0836 H         1 NDP160      0.0000 
     55 H          12.5170   11.9526   17.9673 H         1 NDP160      0.0000 
     56 H          11.7468    6.1191   16.5424 H         1 NDP160      0.0000 
     57 H          12.6132    7.6617   16.2342 H         1 NDP160      0.0000 
     58 H           8.8272    7.1414   19.9213 H         1 NDP160      0.0000 
     59 H          13.1477   20.5665   18.3231 H         1 NDP160      0.0000 
     60 H          11.7106   20.5616   17.2864 H         1 NDP160      0.0000 
     61 H          14.3037   21.9483   16.6628 H         1 NDP160      0.0000 
     62 H          12.3079   22.8073   18.3386 H         1 NDP160      0.0000 
     63 H          10.7443   22.9503   16.6726 H         1 NDP160      0.0000 
     64 H          12.8751   23.9872   14.8651 H         1 NDP160      0.0000 
     65 H          12.1614   24.4990   12.7995 H         1 NDP160      0.0000 
     66 H          12.2137   25.6539   11.5034 H         1 NDP160      0.0000 
     67 H          11.9164   26.1152    9.7933 H         1 NDP160      0.0000 
     68 H           9.2242   22.3032   11.0520 H         1 NDP160      0.0000 
     69 H           8.3326   23.6675   11.7474 H         1 NDP160      0.0000 
     70 H           8.2359   21.6978   13.2255 H         1 NDP160      0.0000 
     71 H           9.8320   21.8239   15.0337 H         1 NDP160      0.0000 
     72 H          12.9196   13.2400   22.6526 H         1 NDP160      0.0000 
     73 H          13.9860   24.1146   18.5420 H         1 NDP160      0.0000 
     74 H          12.1224   25.4174   16.9572 H         1 NDP160      0.0000 
@<TRIPOS>BOND
     1    2    1 ar   
     2    3    1 ar   
     3    4    1 1    
     4   23    1 1    
     5    5    4 1    
     6    6    5 1    
     7   49    5 1    
     8   50    5 1    
     9    7    6 1    
    10    8    6 1    
    11   51    6 1    
    12   12    7 1    
    13    9    8 1    
    14   10    8 1    
    15   52    8 1    
    16   72    9 1    
    17   11   10 1    
    18   12   10 1    
    19   53   10 1    
    20   45   11 1    
    21   13   12 1    
    22   54   12 1    
    23   14   13 1    
    24   22   13 1    
    25   15   14 2    
    26   55   14 1    
    27   16   15 1    
    28   17   16 ar   
    29   22   16 ar   
    30   18   17 1    
    31   19   17 ar   
    32   56   18 1    
    33   57   18 1    
    34   20   19 ar   
    35   21   20 ar   
    36   58   20 1    
    37   22   21 ar   
    38   24   23 1    
    39   25   24 ar   
    40   26   24 ar   
    41   27   24 1    
    42   28   27 1    
    43   29   28 1    
    44   59   28 1    
    45   60   28 1    
    46   30   29 1    
    47   31   29 1    
    48   61   29 1    
    49   35   30 1    
    50   32   31 1    
    51   33   31 1    
    52   62   31 1    
    53   73   32 1    
    54   34   33 1    
    55   35   33 1    
    56   63   33 1    
    57   74   34 1    
    58   36   35 1    
    59   64   35 1    
    60   37   36 1    
    61   44   36 1    
    62   38   37 2    
    63   65   37 1    
    64   39   38 1    
    65   42   38 1    
    66   40   39 2    
    67   41   39 am   
    68   66   41 1    
    69   67   41 1    
    70   43   42 1    
    71   68   42 1    
    72   69   42 1    
    73   44   43 2    
    74   70   43 1    
    75   71   44 1    
    76   46   45 ar   
    77   47   45 ar   
    78   48   45 ar   
@<TRIPOS>SUBSTRUCTURE
     1 NDP160      1 GROUP   
@<TRIPOS>SET

