#    Name: 1b15_NAE_1_INTS_M
#    Modification time : Mon Mar 24 19:13:46 2014

@<TRIPOS>MOLECULE
1b15_NAE_1_INTS_M
  123     0     9     0     0
SMALL
NO_CHARGES


@<TRIPOS>ATOM
      1 N           7.5630  -11.4960   -3.1135 N.am      2 SEC2        0.0000 
      2 N           6.8620  -11.7240   -1.9320 N.am      8 SEL2        0.0000 
      3 N           8.2640  -11.2680   -4.2950 N.am      5 SEP2        0.0000 
      4 N          11.2450  -11.0955    3.4280 N.am      2 SEC2        0.0000 
      5 N          11.2450  -12.2100    2.1880 N.am      8 SEL2        0.0000 
      6 N          11.2450   -9.9810    4.6680 N.am      5 SEP2        0.0000 
      7 O          12.8450  -14.7675    0.1440 O.2       1 ALC1        0.0000 
      8 O          11.9670  -13.5490   -0.5380 O.2       7 ALL1        0.0000 
      9 O          13.7230  -15.9860    0.8260 O.2       4 ALP1        0.0000 
     10 O          12.9195  -14.5210   -0.9470 O.2       1 ALC1        0.0000 
     11 O          13.8720  -15.4930   -1.3560 O.2       4 ALP1        0.0000 
     12 O          12.4775  -15.8465    1.0590 O.2       1 ALC1        0.0000 
     13 O          11.2320  -15.7070    1.2920 O.2       7 ALL1        0.0000 
     14 CA         13.0510  -12.6460    1.6150 C.3       3 GLC5        0.0000 
     15 CA         11.6630  -13.4620    2.2980 C.3       9 GLL5        0.0000 
     16 CA         14.4390  -11.8300    0.9320 C.3       6 GLP5        0.0000 
     17 CA         12.5935  -11.8830    3.0870 C.3       3 GLC5        0.0000 
     18 CA         13.5240  -10.3040    3.8760 C.3       6 GLP5        0.0000 
     19 CA         11.9120  -13.1135    6.9495 C.3       3 GLC5        0.0000 
     20 CA         12.2220  -14.8290    5.6370 C.3       9 GLL5        0.0000 
     21 CA         11.6020  -11.3980    8.2620 C.3       6 GLP5        0.0000 
     22 CA         14.8900  -16.7075    6.9975 C.3       3 GLC5        0.0000 
     23 CA         13.1390  -15.4490    6.6590 C.3       9 GLL5        0.0000 
     24 CA         16.6410  -17.9660    7.3360 C.3       6 GLP5        0.0000 
     25 CA         14.3010  -14.1975    7.5505 C.3       3 GLC5        0.0000 
     26 CA         15.4630  -12.9460    8.4420 C.3       6 GLP5        0.0000 
     27 CA         11.7090  -14.6985    8.1325 C.3       3 GLC5        0.0000 
     28 CA         10.2790  -13.9480    9.6060 C.3       6 GLP5        0.0000 
     29 O          13.6920  -16.5270    8.6160 O.2       1 ALC1        0.0000 
     30 O          12.7560  -15.7630    7.8560 O.2       7 ALL1        0.0000 
     31 O          14.6280  -17.2910    9.3760 O.2       4 ALP1        0.0000 
     32 N          15.6190  -15.6220    7.0950 N.am      2 SEC2        0.0000 
     33 N          14.4310  -15.6450    6.1570 N.am      8 SEL2        0.0000 
     34 N          16.8070  -15.5990    8.0330 N.am      5 SEP2        0.0000 
     35 CA         13.9785  -16.9740    4.4455 C.3       3 GLC5        0.0000 
     36 CA         14.8320  -15.2990    4.9380 C.3       9 GLL5        0.0000 
     37 CA         13.1250  -18.6490    3.9530 C.3       6 GLP5        0.0000 
     38 CA         15.7365  -16.6325    6.1370 C.3       3 GLC5        0.0000 
     39 CA         16.0895  -14.1040    5.8510 C.3       3 GLC5        0.0000 
     40 CA         17.3470  -12.9090    6.7640 C.3       6 GLP5        0.0000 
     41 CA         14.4820  -13.2930    4.9030 C.3       3 GLC5        0.0000 
     42 CA         14.1320  -11.2870    4.8680 C.3       6 GLP5        0.0000 
     43 CA         12.9095  -16.5730    4.1595 C.3       3 GLC5        0.0000 
     44 CA         12.6940  -14.4970    4.3660 C.3       9 GLL5        0.0000 
     45 N           5.3015   -7.8610   -1.8400 N.am      2 SEC2        0.0000 
     46 N           6.4260   -7.5150   -1.1300 N.am      8 SEL2        0.0000 
     47 N           4.1770   -8.2070   -2.5500 N.am      5 SEP2        0.0000 
     48 N           8.6905   -8.6615   -3.5090 N.am      2 SEC2        0.0000 
     49 N           8.4230   -8.8900   -2.1370 N.am      8 SEL2        0.0000 
     50 N           8.9580   -8.4330   -4.8810 N.am      5 SEP2        0.0000 
     51 CA          9.9155   -6.9950   -2.0590 C.3       3 GLC5        0.0000 
     52 CA          9.8940   -7.6970    0.0540 C.3       9 GLL5        0.0000 
     53 CA          9.9370   -6.2930   -4.1720 C.3       6 GLP5        0.0000 
     54 CA         11.6270   -5.1875    0.7680 C.3       3 GLC5        0.0000 
     55 CA         10.4910   -6.7120    0.9930 C.3       9 GLL5        0.0000 
     56 CA         12.7630   -3.6630    0.5430 C.3       6 GLP5        0.0000 
     57 N          11.0260   -5.3945    4.2520 N.am      2 SEC2        0.0000 
     58 N          11.0980   -6.3820    3.2570 N.am      8 SEL2        0.0000 
     59 N          10.9540   -4.4070    5.2470 N.am      5 SEP2        0.0000 
     60 O          11.9500   -7.3935    4.1860 O.2       1 ALC1        0.0000 
     61 O          11.0980   -6.3820    3.2570 O.2       7 ALL1        0.0000 
     62 O          12.8020   -8.4050    5.1150 O.2       4 ALP1        0.0000 
     63 CA          6.8290   -6.3580    2.4955 C.3       3 GLC5        0.0000 
     64 CA          8.8420   -6.0150    2.6690 C.3       9 GLL5        0.0000 
     65 CA          4.8160   -6.7010    2.3220 C.3       6 GLP5        0.0000 
     66 N           9.6955   -5.0655    4.5920 N.am      2 SEC2        0.0000 
     67 N           8.4370   -5.7240    3.9370 N.am      8 SEL2        0.0000 
     68 O           7.5265   -4.8830    4.2870 O.2       1 ALC1        0.0000 
     69 O           8.4370   -5.7240    3.9370 O.2       7 ALL1        0.0000 
     70 O           6.6160   -4.0420    4.6370 O.2       4 ALP1        0.0000 
     71 CA         10.9900   -4.2600    1.1745 C.3       3 GLC5        0.0000 
     72 CA          9.2170   -4.8570    1.8060 C.3       9 GLL5        0.0000 
     73 N           3.6750   -2.5020   -2.2305 N.am      2 SEC2        0.0000 
     74 N           4.1780   -3.1600   -1.0880 N.am      8 SEL2        0.0000 
     75 N           3.1720   -1.8440   -3.3730 N.am      5 SEP2        0.0000 
     76 O           3.9625   -4.9515   -2.4360 O.2       1 ALC1        0.0000 
     77 O           5.0060   -5.2590   -1.2370 O.2       7 ALL1        0.0000 
     78 O           2.9190   -4.6440   -3.6350 O.2       4 ALP1        0.0000 
     79 CA          7.6120   -1.1915   -0.9055 C.3       3 GLC5        0.0000 
     80 CA          6.3520   -1.9910    0.3980 C.3       9 GLL5        0.0000 
     81 CA          8.8720   -0.3920   -2.2090 C.3       6 GLP5        0.0000 
     82 CA          8.8385   -1.3560   -0.3245 C.3       3 GLC5        0.0000 
     83 CA          7.6260   -1.6240    0.9940 C.3       9 GLL5        0.0000 
     84 CA         10.0510   -1.0880   -1.6430 C.3       6 GLP5        0.0000 
     85 CA         10.6395   -3.1240    0.9880 C.3       3 GLC5        0.0000 
     86 CA          8.5160   -2.5850    1.4330 C.3       9 GLL5        0.0000 
     87 CA          9.5715   -1.4100    0.4460 C.3       3 GLC5        0.0000 
     88 CA         10.6270   -0.2350   -0.5410 C.3       6 GLP5        0.0000 
     89 CA          3.3940   -0.5665    0.9880 C.3       3 GLC5        0.0000 
     90 CA          5.1400   -1.3610    1.1610 C.3       9 GLL5        0.0000 
     91 CA          1.6480    0.2280    0.8150 C.3       6 GLP5        0.0000 
     92 N           6.4635   -0.9855    3.6980 N.am      2 SEC2        0.0000 
     93 N           5.7140   -1.9890    3.4610 N.am      8 SEL2        0.0000 
     94 N           7.2130    0.0180    3.9350 N.am      5 SEP2        0.0000 
     95 N           6.1650   -3.0155    4.0490 N.am      2 SEC2        0.0000 
     96 N           6.6160   -4.0420    4.6370 N.am      5 SEP2        0.0000 
     97 CA          2.6615   -4.6945    3.6420 C.3       3 GLC5        0.0000 
     98 CA          3.7920   -3.2570    2.5270 C.3       9 GLL5        0.0000 
     99 CA          1.5310   -6.1320    4.7570 C.3       6 GLP5        0.0000 
    100 CA          4.9015   -3.6935    4.1930 C.3       3 GLC5        0.0000 
    101 CA          6.0110   -4.1300    5.8590 C.3       6 GLP5        0.0000 
    102 CA          2.7200   -1.5145    1.6710 C.3       3 GLC5        0.0000 
    103 CA          4.3040   -4.9790    2.4245 C.3       3 GLC5        0.0000 
    104 CA          2.5270   -4.1240    1.5525 C.3       3 GLC5        0.0000 
    105 CA          1.2620   -4.9910    0.5780 C.3       6 GLP5        0.0000 
    106 CA         12.5448  -12.3027    0.7350 C.3       3 GLC5        0.0000 
    107 CA         10.6070  -12.0510    0.8620 C.3       9 GLL5        0.0000 
    108 CA         10.2982  -12.7473   -1.4140 C.3       3 GLC5        0.0000 
    109 CA          9.9460  -12.7190   -3.3660 C.3       6 GLP5        0.0000 
    110 CA         12.2308  -16.9785    6.0965 C.3       3 GLC5        0.0000 
    111 CA         11.7810  -18.8180    6.0450 C.3       6 GLP5        0.0000 
    112 CA         13.2950  -12.9750    4.9347 C.3       3 GLC5        0.0000 
    113 CA          9.8083   -7.7890    3.8840 C.3       3 GLC5        0.0000 
    114 CA         10.0650   -6.9150    2.5350 C.3       9 GLL5        0.0000 
    115 CA         10.1630   -9.1130    5.1660 C.3       6 GLP5        0.0000 
    116 CA          9.4198   -4.6640    4.1553 C.3       3 GLC5        0.0000 
    117 CA          9.8100   -3.8920    6.0730 C.3       6 GLP5        0.0000 
    118 CA          7.5780   -4.2620   -1.2790 C.3       3 GLC5        0.0000 
    119 CA          7.0670   -4.3640    0.5900 C.3       9 GLL5        0.0000 
    120 CA          8.4980   -4.6550   -2.9200 C.3       6 GLP5        0.0000 
    121 CA          5.7370   -5.2850    1.3420 C.3       3 GLC5        0.0000 
    122 CA          8.3240   -1.1768    2.7167 C.3       3 GLC5        0.0000 
    123 CA          8.5770   -0.2490    4.2200 C.3       6 GLP5        0.0000 
@<TRIPOS>BOND
@<TRIPOS>SUBSTRUCTURE
     1 ALC1        7 GROUP        1 X    ALC  0     ROOT ALC X 1
     2 SEC2        1 GROUP        1 X    SEC  0     **** SEC X 2
     3 GLC5       14 GROUP        1 X    GLC  0     **** GLC X 6
     4 ALP1        9 GROUP        1 Y    ALP  0     ROOT ALP Y 8
     5 SEP2        3 GROUP        1 Y    SEP  0     **** SEP Y 9
     6 GLP5       16 GROUP        1 Y    GLP  0     **** GLP Y 13
     7 ALL1        8 GROUP        1 Z    ALL  0     ROOT ALL Z 15
     8 SEL2        2 GROUP        1 Z    SEL  0     **** SEL Z 16
     9 GLL5       15 GROUP        1 Z    GLL  0     **** GLL Z 20
@<TRIPOS>SET

