#    Name: 1b15_NAE_1_ligand
#    Modification time : Mon Mar 24 19:13:46 2014

@<TRIPOS>MOLECULE
1b15_NAE_1_ligand
   78    82     1     0     0
SMALL
NO_CHARGES


@<TRIPOS>ATOM
      1 PA          7.0380  -11.3190   -0.4400 P.3       1 NAE255      0.0000 
      2 O1A         6.2250  -12.0210    0.5710 O.co2     1 NAE255      0.0000 
      3 O2A         6.8620  -11.7240   -1.9320 O.co2     1 NAE255      0.0000 
      4 O5'         8.5940  -11.5370   -0.1600 O.3       1 NAE255      0.0000 
      5 C5'         9.1780  -11.7180    1.2170 C.3       1 NAE255      0.0000 
      6 C4'        10.6070  -12.0510    0.8620 C.3       1 NAE255      0.0000 
      7 O4'        11.2450  -12.2100    2.1880 O.3       1 NAE255      0.0000 
      8 C3'        10.6940  -13.5000    0.2140 C.3       1 NAE255      0.0000 
      9 O3'        11.9670  -13.5490   -0.5380 O.3       1 NAE255      0.0000 
     10 C2'        10.7490  -14.4200    1.4120 C.3       1 NAE255      0.0000 
     11 O2'        11.2320  -15.7070    1.2920 O.3       1 NAE255      0.0000 
     12 C1'        11.6630  -13.4620    2.2980 C.3       1 NAE255      0.0000 
     13 N9A        11.6380  -13.9310    3.6460 N.pl3     1 NAE255      0.0000 
     14 C8A        10.5800  -13.9520    4.5670 C.2       1 NAE255      0.0000 
     15 N7A        10.8940  -14.5050    5.7220 N.2       1 NAE255      0.0000 
     16 C5A        12.2220  -14.8290    5.6370 C.ar      1 NAE255      0.0000 
     17 C6A        13.1390  -15.4490    6.6590 C.ar      1 NAE255      0.0000 
     18 N6A        12.7560  -15.7630    7.8560 N.pl3     1 NAE255      0.0000 
     19 N1A        14.4310  -15.6450    6.1570 N.ar      1 NAE255      0.0000 
     20 C2A        14.8320  -15.2990    4.9380 C.ar      1 NAE255      0.0000 
     21 N3A        14.0210  -14.7090    3.9330 N.ar      1 NAE255      0.0000 
     22 C4A        12.6940  -14.4970    4.3660 C.ar      1 NAE255      0.0000 
     23 OPP         7.0010   -9.7790   -0.2760 O.3       1 NAE255      0.0000 
     24 PN          7.5400   -8.4570   -0.9990 P.3       1 NAE255      0.0000 
     25 O1N         6.4260   -7.5150   -1.1300 O.co2     1 NAE255      0.0000 
     26 O2N         8.4230   -8.8900   -2.1370 O.co2     1 NAE255      0.0000 
     27 O5B         8.4320   -7.7230    0.1150 O.3       1 NAE255      0.0000 
     28 C5B         9.8940   -7.6970    0.0540 C.3       1 NAE255      0.0000 
     29 C4B        10.4910   -6.7120    0.9930 C.3       1 NAE255      0.0000 
     30 O4B         9.8010   -5.4340    0.6630 O.3       1 NAE255      0.0000 
     31 C3B        10.0650   -6.9150    2.5350 C.3       1 NAE255      0.0000 
     32 O3B        11.0980   -6.3820    3.2570 O.3       1 NAE255      0.0000 
     33 C2B         8.8420   -6.0150    2.6690 C.3       1 NAE255      0.0000 
     34 O2B         8.4370   -5.7240    3.9370 O.3       1 NAE255      0.0000 
     35 C1B         9.2170   -4.8570    1.8060 C.3       1 NAE255      0.0000 
     36 N1N         8.1950   -3.8970    1.3290 N.pl3     1 NAE255      0.0000 
     37 C2N         7.0670   -4.3640    0.5900 C.ar      1 NAE255      0.0000 
     38 C3N         6.2490   -3.3740    0.1340 C.ar      1 NAE255      0.0000 
     39 C7N         5.0980   -3.9490   -0.8410 C.2       1 NAE255      0.0000 
     40 O7N         4.1780   -3.1600   -1.0880 O.2       1 NAE255      0.0000 
     41 N7N         5.0060   -5.2590   -1.2370 N.am      1 NAE255      0.0000 
     42 C4N         6.3520   -1.9910    0.3980 C.ar      1 NAE255      0.0000 
     43 C5N         7.6260   -1.6240    0.9940 C.ar      1 NAE255      0.0000 
     44 C6N         8.5160   -2.5850    1.4330 C.ar      1 NAE255      0.0000 
     45 C4P         5.1400   -1.3610    1.1610 C.3       1 NAE255      0.0000 
     46 C3P         4.8680   -2.2080    2.4510 C.2       1 NAE255      0.0000 
     47 OP          5.7140   -1.9890    3.4610 O.2       1 NAE255      0.0000 
     48 C2P         3.7920   -3.2570    2.5270 C.3       1 NAE255      0.0000 
     49 H           8.7252  -12.5350    1.7001 H         1 NAE255      0.0000 
     50 H           9.1391  -10.8128    1.7509 H         1 NAE255      0.0000 
     51 H          11.0564  -11.3650    0.2887 H         1 NAE255      0.0000 
     52 H           9.8596  -13.6517   -0.3540 H         1 NAE255      0.0000 
     53 H           9.7698  -14.3218    1.9050 H         1 NAE255      0.0000 
     54 H          12.6755  -13.6139    1.8830 H         1 NAE255      0.0000 
     55 H           9.6899  -13.5729    4.3284 H         1 NAE255      0.0000 
     56 H          11.8118  -15.5318    8.0907 H         1 NAE255      0.0000 
     57 H          13.4400  -16.2075    8.4344 H         1 NAE255      0.0000 
     58 H          15.8552  -15.4664    4.6535 H         1 NAE255      0.0000 
     59 H          10.2244   -7.4586   -0.9772 H         1 NAE255      0.0000 
     60 H          10.2990   -8.7037    0.2815 H         1 NAE255      0.0000 
     61 H          11.5005   -6.6065    0.9271 H         1 NAE255      0.0000 
     62 H           9.8318   -7.8904    2.6637 H         1 NAE255      0.0000 
     63 H           8.0470   -6.5593    2.0792 H         1 NAE255      0.0000 
     64 H          10.0205   -4.2922    2.3261 H         1 NAE255      0.0000 
     65 H           6.9207   -5.3286    0.4398 H         1 NAE255      0.0000 
     66 H           5.6736   -5.8873   -0.8376 H         1 NAE255      0.0000 
     67 H           4.2794   -5.4712   -1.8904 H         1 NAE255      0.0000 
     68 H           7.8402   -0.6209    1.0767 H         1 NAE255      0.0000 
     69 H           9.4214   -2.2914    1.8379 H         1 NAE255      0.0000 
     70 H           4.2736   -1.3921    0.5324 H         1 NAE255      0.0000 
     71 H           5.3859   -0.3584    1.4457 H         1 NAE255      0.0000 
     72 H           3.9294   -3.9798    1.8497 H         1 NAE255      0.0000 
     73 H           3.7655   -3.6975    3.4244 H         1 NAE255      0.0000 
     74 H           2.8843   -2.8706    2.3632 H         1 NAE255      0.0000 
     75 H          12.2101  -14.5184   -0.5723 H         1 NAE255      0.0000 
     76 H          12.0179  -15.6322    0.6782 H         1 NAE255      0.0000 
     77 H          11.4805   -7.1517    3.7682 H         1 NAE255      0.0000 
     78 H           7.7258   -5.0295    3.8284 H         1 NAE255      0.0000 
@<TRIPOS>BOND
     1    2    1 ar   
     2    3    1 ar   
     3    4    1 1    
     4   23    1 1    
     5    5    4 1    
     6    6    5 1    
     7   49    5 1    
     8   50    5 1    
     9    7    6 1    
    10    8    6 1    
    11   51    6 1    
    12   12    7 1    
    13    9    8 1    
    14   10    8 1    
    15   52    8 1    
    16   75    9 1    
    17   11   10 1    
    18   12   10 1    
    19   53   10 1    
    20   76   11 1    
    21   13   12 1    
    22   54   12 1    
    23   14   13 1    
    24   22   13 1    
    25   15   14 2    
    26   55   14 1    
    27   16   15 1    
    28   17   16 ar   
    29   22   16 ar   
    30   18   17 1    
    31   19   17 ar   
    32   56   18 1    
    33   57   18 1    
    34   20   19 ar   
    35   21   20 ar   
    36   58   20 1    
    37   22   21 ar   
    38   24   23 1    
    39   25   24 ar   
    40   26   24 ar   
    41   27   24 1    
    42   28   27 1    
    43   29   28 1    
    44   59   28 1    
    45   60   28 1    
    46   30   29 1    
    47   31   29 1    
    48   61   29 1    
    49   35   30 1    
    50   32   31 1    
    51   33   31 1    
    52   62   31 1    
    53   77   32 1    
    54   34   33 1    
    55   35   33 1    
    56   63   33 1    
    57   78   34 1    
    58   36   35 1    
    59   64   35 1    
    60   37   36 ar   
    61   44   36 ar   
    62   38   37 ar   
    63   65   37 1    
    64   39   38 1    
    65   42   38 ar   
    66   40   39 2    
    67   41   39 am   
    68   66   41 1    
    69   67   41 1    
    70   43   42 ar   
    71   45   42 1    
    72   44   43 ar   
    73   68   43 1    
    74   69   44 1    
    75   46   45 1    
    76   70   45 1    
    77   71   45 1    
    78   47   46 2    
    79   48   46 1    
    80   72   48 1    
    81   73   48 1    
    82   74   48 1    
@<TRIPOS>SUBSTRUCTURE
     1 NAE255      1 GROUP   
@<TRIPOS>SET

