#    Name: 1QF0_1_CAVITY_N1_6.mol2
#    Modification time : Tue Mar 11 03:27:13 2014

@<TRIPOS>MOLECULE
1QF0_1_CAVITY_N1_6.mol2
  107     0     7     0     0
SMALL
NO_CHARGES


@<TRIPOS>ATOM
      1 CA         40.3772   37.0158   -0.5368 C.3       6 GLY6        0.0000 
      2 CA         41.4364   37.2413   -1.5747 C.3       6 GLY6        0.0000 
      3 CZ         38.2749   36.7346   -0.5754 C.ar      5 PHE5        0.0000 
      4 DU         39.3341   36.9602   -1.6133 H         7 CUB7        0.0000 
      5 DU         40.3933   37.1857   -2.6513 H         7 CUB7        0.0000 
      6 N          37.2319   36.6790   -1.6519 N.2       2 ALA2        0.0000 
      7 O          38.2910   36.9046   -2.6899 O.2       2 ALA2        0.0000 
      8 DU         39.3502   37.1301   -3.7278 H         7 CUB7        0.0000 
      9 O          37.2480   36.8490   -3.7664 O.2       2 ALA2        0.0000 
     10 O          33.0595   36.4566   -5.9580 O.2       2 ALA2        0.0000 
     11 CZ         38.0746   38.2165   -0.4578 C.ar      5 PHE5        0.0000 
     12 CA         39.1338   38.4421   -1.4958 C.3       6 GLY6        0.0000 
     13 CA         40.1929   38.6676   -2.5337 C.3       6 GLY6        0.0000 
     14 N          37.0315   38.1609   -1.5344 N.2       2 ALA2        0.0000 
     15 N          38.0907   38.3865   -2.5723 N.2       2 ALA2        0.0000 
     16 CA         39.1499   38.6120   -3.6102 C.3       6 GLY6        0.0000 
     17 O          37.0476   38.3309   -3.6488 O.2       2 ALA2        0.0000 
     18 N          38.1068   38.5564   -4.6867 N.2       2 ALA2        0.0000 
     19 N          39.1660   38.7820   -5.7246 N.2       2 ALA2        0.0000 
     20 N          37.0637   38.5008   -5.7632 N.2       2 ALA2        0.0000 
     21 O          36.0206   38.4452   -6.8398 O.2       2 ALA2        0.0000 
     22 O          32.8592   37.9385   -5.8405 O.2       2 ALA2        0.0000 
     23 O          33.9184   38.1641   -6.8784 O.2       2 ALA2        0.0000 
     24 DU         34.9776   38.3896   -7.9163 H         7 CUB7        0.0000 
     25 OG         36.0367   38.6152   -8.9542 O.2       1 SER1        0.0000 
     26 CZ         31.8161   37.8829   -6.9170 C.ar      5 PHE5        0.0000 
     27 DU         32.8753   38.1085   -7.9549 H         7 CUB7        0.0000 
     28 DU         33.9345   38.3340   -8.9928 H         7 CUB7        0.0000 
     29 CZ         34.9937   38.5596  -10.0307 C.ar      5 PHE5        0.0000 
     30 CA         37.8742   39.6984   -0.3403 C.3       6 GLY6        0.0000 
     31 CA         35.7720   39.4173   -0.3789 C.3       6 GLY6        0.0000 
     32 N          36.8312   39.6428   -1.4168 N.2       2 ALA2        0.0000 
     33 N          37.8903   39.8684   -2.4547 N.2       2 ALA2        0.0000 
     34 O          38.9495   40.0939   -3.4926 O.2       2 ALA2        0.0000 
     35 N          36.8473   39.8128   -3.5312 N.2       2 ALA2        0.0000 
     36 N          37.9064   40.0383   -4.5691 N.2       2 ALA2        0.0000 
     37 N          34.7611   39.7016   -5.6843 N.2       2 ALA2        0.0000 
     38 N          35.8203   39.9271   -6.7222 N.2       2 ALA2        0.0000 
     39 N          32.6589   39.4204   -5.7229 N.2       2 ALA2        0.0000 
     40 CA         33.7180   39.6460   -6.7608 C.3       6 GLY6        0.0000 
     41 OG         34.7772   39.8715   -7.7987 O.2       1 SER1        0.0000 
     42 CA         32.6750   39.5904   -7.8373 C.3       6 GLY6        0.0000 
     43 DU         33.7341   39.8159   -8.8752 H         7 CUB7        0.0000 
     44 CA         31.6319   39.5348   -8.9138 C.3       6 GLY6        0.0000 
     45 DU         32.6911   39.7603   -9.9518 H         7 CUB7        0.0000 
     46 CZ         33.7502   39.9859  -10.9897 C.ar      5 PHE5        0.0000 
     47 CA         36.6147   40.9548    0.8152 C.3       6 GLY6        0.0000 
     48 CA         37.6739   41.1803   -0.2227 C.3       6 GLY6        0.0000 
     49 CA         35.5716   40.8992   -0.2613 C.3       6 GLY6        0.0000 
     50 N          36.6308   41.1247   -1.2992 N.2       2 ALA2        0.0000 
     51 CA         37.6900   41.3503   -2.3371 C.3       6 GLY6        0.0000 
     52 O          38.7492   41.5758   -3.3750 O.2       2 ALA2        0.0000 
     53 N          36.6469   41.2947   -3.4136 N.2       2 ALA2        0.0000 
     54 N          37.7061   41.5202   -4.4516 N.2       2 ALA2        0.0000 
     55 N          35.6038   41.2391   -4.4902 N.2       2 ALA2        0.0000 
     56 N          36.6630   41.4646   -5.5281 N.2       2 ALA2        0.0000 
     57 N          34.5608   41.1835   -5.5667 N.2       2 ALA2        0.0000 
     58 OD1        35.6199   41.4090   -6.6046 O.3       3 ASP3        0.0000 
     59 CA         33.5177   41.1279   -6.6432 C.3       6 GLY6        0.0000 
     60 OG         34.5769   41.3534   -7.6811 O.2       1 SER1        0.0000 
     61 OG         33.5338   41.2978   -8.7577 O.2       1 SER1        0.0000 
     62 CA         31.4315   41.0167   -8.7963 C.3       6 GLY6        0.0000 
     63 N          32.4907   41.2422   -9.8342 N.2       2 ALA2        0.0000 
     64 CZ         33.5499   41.4678  -10.8721 C.ar      5 PHE5        0.0000 
     65 N          31.4476   41.1866  -10.9107 N.2       2 ALA2        0.0000 
     66 CZ         32.5068   41.4122  -11.9486 C.ar      5 PHE5        0.0000 
     67 CZ         33.5660   41.6377  -12.9865 C.ar      5 PHE5        0.0000 
     68 N          29.3454   40.9055  -10.9493 N.2       2 ALA2        0.0000 
     69 N          30.4046   41.1310  -11.9872 N.2       2 ALA2        0.0000 
     70 CA         38.5166   42.7178    0.9714 C.3       6 GLY6        0.0000 
     71 CA         36.4144   42.4367    0.9328 C.3       6 GLY6        0.0000 
     72 CA         37.4735   42.6622   -0.1051 C.3       6 GLY6        0.0000 
     73 O          38.5327   42.8878   -1.1430 O.2       2 ALA2        0.0000 
     74 CA         35.3713   42.3811   -0.1437 C.3       6 GLY6        0.0000 
     75 NZ         36.4305   42.6066   -1.1816 N.2       4 LYS4        0.0000 
     76 O          37.4896   42.8322   -2.2195 O.2       2 ALA2        0.0000 
     77 NZ         35.3874   42.5510   -2.2581 N.2       4 LYS4        0.0000 
     78 NZ         36.4466   42.7766   -3.2961 N.2       4 LYS4        0.0000 
     79 N          37.5057   43.0021   -4.3340 N.2       2 ALA2        0.0000 
     80 NZ         35.4035   42.7210   -4.3726 N.2       4 LYS4        0.0000 
     81 NZ         34.3604   42.6654   -5.4491 N.2       4 LYS4        0.0000 
     82 NZ         33.3173   42.6098   -6.5256 N.2       4 LYS4        0.0000 
     83 OD1        34.3765   42.8353   -7.5636 O.3       3 ASP3        0.0000 
     84 CA         32.2743   42.5542   -7.6022 C.3       6 GLY6        0.0000 
     85 OD1        33.3334   42.7797   -8.6401 O.3       3 ASP3        0.0000 
     86 OG         34.3926   43.0053   -9.6780 O.2       1 SER1        0.0000 
     87 N          32.2904   42.7241   -9.7166 N.2       2 ALA2        0.0000 
     88 CZ         33.3495   42.9497  -10.7545 C.ar      5 PHE5        0.0000 
     89 N          32.3065   42.8941  -11.8310 N.2       2 ALA2        0.0000 
     90 CZ         33.3656   43.1196  -12.8690 C.ar      5 PHE5        0.0000 
     91 N          30.2042   42.6129  -11.8696 N.2       2 ALA2        0.0000 
     92 N          31.2634   42.8385  -12.9076 N.2       2 ALA2        0.0000 
     93 CA         32.3226   43.0640  -13.9455 C.3       6 GLY6        0.0000 
     94 CA         38.3163   44.1997    1.0890 C.3       6 GLY6        0.0000 
     95 CA         37.2732   44.1441    0.0125 C.3       6 GLY6        0.0000 
     96 O          38.3324   44.3697   -1.0254 O.2       2 ALA2        0.0000 
     97 CA         36.2301   44.0885   -1.0640 C.3       6 GLY6        0.0000 
     98 O          37.2893   44.3141   -2.1020 O.2       2 ALA2        0.0000 
     99 CA         33.1331   44.2616   -8.5225 C.3       6 GLY6        0.0000 
    100 N          34.1923   44.4872   -9.5604 N.2       2 ALA2        0.0000 
    101 N          32.0900   44.2060   -9.5990 N.2       2 ALA2        0.0000 
    102 O          33.1492   44.4316  -10.6369 O.2       2 ALA2        0.0000 
    103 CZ         34.2084   44.6571  -11.6749 C.ar      5 PHE5        0.0000 
    104 N          32.1061   44.3760  -11.7135 N.2       2 ALA2        0.0000 
    105 CZ         33.1653   44.6015  -12.7514 C.ar      5 PHE5        0.0000 
    106 N          31.0630   44.3204  -12.7900 N.2       2 ALA2        0.0000 
    107 CA         31.9058   45.8579  -11.5959 C.3       6 GLY6        0.0000 
@<TRIPOS>BOND
@<TRIPOS>SUBSTRUCTURE
     1 SER1       25 GROUP   
     2 ALA2        6 GROUP   
     3 ASP3       58 GROUP   
     4 LYS4       75 GROUP   
     5 PHE5        3 GROUP   
     6 GLY6        1 GROUP   
     7 CUB7        4 GROUP   
@<TRIPOS>SET

