#    Name: 1qf0_TI2_1_INTS_M
#    Modification time : Mon Mar 24 23:22:31 2014

@<TRIPOS>MOLECULE
1qf0_TI2_1_INTS_M
   75     0    12     0     0
SMALL
NO_CHARGES


@<TRIPOS>ATOM
      1 CA         32.3865   42.7500   -6.1610 C.3       4 GLC5        0.0000 
      2 CA         34.2260   43.1720   -6.9870 C.3      12 GLL5        0.0000 
      3 CA         30.5470   42.3280   -5.3350 C.3       8 GLP5        0.0000 
      4 CA         35.0545   44.7160   -5.7325 C.3       4 GLC5        0.0000 
      5 CA         35.8830   46.2600   -4.4780 C.3       8 GLP5        0.0000 
      6 CA         34.2485   44.8560   -7.3880 C.3       4 GLC5        0.0000 
      7 CA         34.2710   46.5400   -7.7890 C.3       8 GLP5        0.0000 
      8 CA         32.6215   41.3175   -6.2445 C.3       4 GLC5        0.0000 
      9 CA         34.6030   41.5420   -6.2280 C.3      12 GLL5        0.0000 
     10 CA         30.6400   41.0930   -6.2610 C.3       8 GLP5        0.0000 
     11 Zn         36.5260   43.3960   -6.3725 Zn        3 ZIC7        0.0000 
     12 Zn         36.8010   42.3790   -5.7990 Zn       11 ZIL7        0.0000 
     13 Zn         36.2510   44.4130   -6.9460 Zn        7 ZIP7        0.0000 
     14 O          34.0070   41.4750   -3.9160 O.2       1 ALC1        0.0000 
     15 O          35.5420   41.8020   -4.0220 O.2       9 ALL1        0.0000 
     16 O          32.4720   41.1480   -3.8100 O.2       5 ALP1        0.0000 
     17 CA         36.2200   44.2175   -3.7690 C.3       4 GLC5        0.0000 
     18 CA         36.5570   42.1750   -3.0600 C.3      12 GLL5        0.0000 
     19 CA         35.0300   41.2385    0.0705 C.3       4 GLC5        0.0000 
     20 CA         35.9360   42.2750   -1.6710 C.3      12 GLL5        0.0000 
     21 CA         34.1240   40.2020    1.8120 C.3       8 GLP5        0.0000 
     22 CA         35.9990   45.5915    0.1485 C.3       4 GLC5        0.0000 
     23 CA         37.1480   44.3040   -0.8620 C.3      12 GLL5        0.0000 
     24 CA         34.8500   46.8790    1.1590 C.3       8 GLP5        0.0000 
     25 CA         36.8645   45.7125   -2.2765 C.3       4 GLC5        0.0000 
     26 CA         36.5810   47.1210   -3.6910 C.3       8 GLP5        0.0000 
     27 CA         35.7205   41.2395    1.1130 C.3       4 GLC5        0.0000 
     28 CA         37.3170   42.2770    0.4140 C.3      12 GLL5        0.0000 
     29 N          40.2415   41.7825   -2.9710 N.am      2 SEC2        0.0000 
     30 N          38.8880   41.6100   -2.9040 N.am     10 SEL2        0.0000 
     31 N          41.5950   41.9550   -3.0380 N.am      6 SEP2        0.0000 
     32 N          39.7060   42.7990   -2.9590 N.am      2 SEC2        0.0000 
     33 N          40.5240   43.9880   -3.0140 N.am      6 SEP2        0.0000 
     34 O          35.9420   39.4380   -3.0950 O.2       1 ALC1        0.0000 
     35 O          37.3860   39.9280   -3.1110 O.2       9 ALL1        0.0000 
     36 O          34.4980   38.9480   -3.0790 O.2       5 ALP1        0.0000 
     37 CA         39.1435   39.9805   -4.7315 C.3       4 GLC5        0.0000 
     38 CA         38.3190   38.8210   -3.0360 C.3      12 GLL5        0.0000 
     39 CA         39.9680   41.1400   -6.4270 C.3       8 GLP5        0.0000 
     40 CA         37.5590   37.5410    0.0185 C.3       4 GLC5        0.0000 
     41 CA         37.6990   37.8180   -2.0690 C.3      12 GLL5        0.0000 
     42 CA         37.4190   37.2640    2.1060 C.3       8 GLP5        0.0000 
     43 CA         36.3705   34.7255    0.1265 C.3       4 GLC5        0.0000 
     44 CA         37.9620   35.4710   -1.2490 C.3      12 GLL5        0.0000 
     45 CA         34.7790   33.9800    1.5020 C.3       8 GLP5        0.0000 
     46 CA         39.6470   34.3050    1.6870 C.3       4 GLC5        0.0000 
     47 CA         40.0750   34.6300   -0.4140 C.3      12 GLL5        0.0000 
     48 CA         39.2190   33.9800    3.7880 C.3       8 GLP5        0.0000 
     49 N          36.1155   37.5270   -4.6375 N.am      2 SEC2        0.0000 
     50 N          37.4580   38.0600   -5.1470 N.am     10 SEL2        0.0000 
     51 N          34.7730   36.9940   -4.1280 N.am      6 SEP2        0.0000 
     52 CA         32.1755   40.5160   -7.3775 C.3       4 GLC5        0.0000 
     53 CA         33.9310   39.7730   -7.8610 C.3      12 GLL5        0.0000 
     54 CA         31.6775   39.7767   -6.8353 C.3       4 GLC5        0.0000 
     55 CA         33.2620   38.7820   -7.1420 C.3      12 GLL5        0.0000 
     56 CA         31.3483   40.0335   -7.7875 C.3       4 GLC5        0.0000 
     57 CA         31.7230   38.4810   -8.9510 C.3      12 GLL5        0.0000 
     58 CA         34.9915   43.6340   -0.0302 C.3       4 GLC5        0.0000 
     59 CA         33.6110   44.6490    1.1160 C.3       8 GLP5        0.0000 
     60 CA         38.7772   41.5805   -0.1045 C.3       4 GLC5        0.0000 
     61 CA         36.8080   42.9630   -0.6820 C.3      12 GLL5        0.0000 
     62 CA         40.4920   40.5410   -0.0750 C.3       8 GLP5        0.0000 
     63 CA         36.6035   43.8118    1.8170 C.3       4 GLC5        0.0000 
     64 CA         35.4680   45.0240    2.7640 C.3       8 GLP5        0.0000 
     65 CA         36.8563   44.8180    1.6780 C.3       4 GLC5        0.0000 
     66 CA         38.4980   44.2650    1.1400 C.3      12 GLL5        0.0000 
     67 CA         39.7299   44.8280    0.5395 C.3       4 GLC5        0.0000 
     68 CA         41.2570   45.8890    0.1200 C.3       8 GLP5        0.0000 
     69 CA         39.1508   44.0703    2.7030 C.3       4 GLC5        0.0000 
     70 CA         39.9720   44.5470    4.1730 C.3       8 GLP5        0.0000 
     71 CA         39.4107   42.0673    0.5790 C.3       4 GLC5        0.0000 
     72 CA         39.2505   39.4303   -1.3138 C.3       4 GLC5        0.0000 
     73 CA         41.2407   37.6305   -0.1467 C.3       4 GLC5        0.0000 
     74 CA         39.9190   36.9140   -1.2320 C.3      12 GLL5        0.0000 
     75 CA         42.1830   38.8690    0.6640 C.3       8 GLP5        0.0000 
@<TRIPOS>BOND
@<TRIPOS>SUBSTRUCTURE
     1 ALC1       14 GROUP        1 X    ALC  0     ROOT ALC X 1
     2 SEC2       29 GROUP        1 X    SEC  0     **** SEC X 2
     3 ZIC7       11 GROUP        1 X    ZIC  0     **** ZIC X 5
     4 GLC5        1 GROUP        1 X    GLC  0     **** GLC X 6
     5 ALP1       16 GROUP        1 Y    ALP  0     ROOT ALP Y 8
     6 SEP2       31 GROUP        1 Y    SEP  0     **** SEP Y 9
     7 ZIP7       13 GROUP        1 Y    ZIP  0     **** ZIP Y 12
     8 GLP5        3 GROUP        1 Y    GLP  0     **** GLP Y 13
     9 ALL1       15 GROUP        1 Z    ALL  0     ROOT ALL Z 15
    10 SEL2       30 GROUP        1 Z    SEL  0     **** SEL Z 16
    11 ZIL7       12 GROUP        1 Z    ZIL  0     **** ZIL Z 19
    12 GLL5        2 GROUP        1 Z    GLL  0     **** GLL Z 20
@<TRIPOS>SET

