#    Name: 1qf0_TI2_1_ligand
#    Modification time : Mon Mar 24 23:22:31 2014

@<TRIPOS>MOLECULE
1qf0_TI2_1_ligand
   61    63     1     0     0
SMALL
NO_CHARGES


@<TRIPOS>ATOM
      1 SG         34.2260   43.1720   -6.9870 S.3       1 TI2317      0.0000 
      2 CA1        34.6030   41.5420   -6.2280 C.3       1 TI2317      0.0000 
      3 CB1        35.0560   40.5030   -7.2400 C.3       1 TI2317      0.0000 
      4 CG1        33.9310   39.7730   -7.8610 C.ar      1 TI2317      0.0000 
      5 CD1        33.4910   40.1050   -9.1270 C.ar      1 TI2317      0.0000 
      6 CD2        33.2620   38.7820   -7.1420 C.ar      1 TI2317      0.0000 
      7 CE1        32.3900   39.4670   -9.6770 C.ar      1 TI2317      0.0000 
      8 CE2        32.1680   38.1390   -7.6770 C.ar      1 TI2317      0.0000 
      9 CZ1        31.7230   38.4810   -8.9510 C.ar      1 TI2317      0.0000 
     10 C1         35.7580   41.9180   -5.3220 C.2       1 TI2317      0.0000 
     11 O1         36.8010   42.3790   -5.7990 O.2       1 TI2317      0.0000 
     12 N2         35.5420   41.8020   -4.0220 N.am      1 TI2317      0.0000 
     13 CA2        36.5570   42.1750   -3.0600 C.3       1 TI2317      0.0000 
     14 CB2        35.9360   42.2750   -1.6710 C.3       1 TI2317      0.0000 
     15 CG2        36.8080   42.9630   -0.6820 C.ar      1 TI2317      0.0000 
     16 CD3        37.1480   44.3040   -0.8620 C.ar      1 TI2317      0.0000 
     17 CD4        37.3170   42.2770    0.4140 C.ar      1 TI2317      0.0000 
     18 CE3        37.9910   44.9590    0.0440 C.ar      1 TI2317      0.0000 
     19 CE4        38.1610   42.9220    1.3260 C.ar      1 TI2317      0.0000 
     20 CZ2        38.4980   44.2650    1.1400 C.ar      1 TI2317      0.0000 
     21 C2         37.7240   41.2050   -3.0120 C.2       1 TI2317      0.0000 
     22 O2         38.8880   41.6100   -2.9040 O.2       1 TI2317      0.0000 
     23 N3         37.3860   39.9280   -3.1110 N.am      1 TI2317      0.0000 
     24 CA3        38.3190   38.8210   -3.0360 C.3       1 TI2317      0.0000 
     25 CB3        37.6990   37.8180   -2.0690 C.3       1 TI2317      0.0000 
     26 CG3        38.5660   36.7060   -1.5080 C.ar      1 TI2317      0.0000 
     27 CD5        39.9190   36.9140   -1.2320 C.ar      1 TI2317      0.0000 
     28 CE5        40.6780   35.8700   -0.6830 C.ar      1 TI2317      0.0000 
     29 CD6        37.9620   35.4710   -1.2490 C.ar      1 TI2317      0.0000 
     30 CE6        38.7180   34.4310   -0.6980 C.ar      1 TI2317      0.0000 
     31 CZ3        40.0750   34.6300   -0.4140 C.ar      1 TI2317      0.0000 
     32 OH         40.8060   33.6190    0.1270 O.3       1 TI2317      0.0000 
     33 C3         38.4740   38.2180   -4.4360 C.2       1 TI2317      0.0000 
     34 O3         37.4580   38.0600   -5.1470 O.co2     1 TI2317      0.0000 
     35 OXT        39.6150   37.9430   -4.8370 O.co2     1 TI2317      0.0000 
     36 H          33.7551   41.3316   -5.7013 H         1 TI2317      0.0000 
     37 H          35.7339   39.7938   -6.7324 H         1 TI2317      0.0000 
     38 H          35.6537   41.0109   -8.0178 H         1 TI2317      0.0000 
     39 H          33.9839   40.8333   -9.6699 H         1 TI2317      0.0000 
     40 H          33.5984   38.5326   -6.1949 H         1 TI2317      0.0000 
     41 H          32.0629   39.7179  -10.6185 H         1 TI2317      0.0000 
     42 H          31.6780   37.4095   -7.1439 H         1 TI2317      0.0000 
     43 H          30.9064   38.0093   -9.3555 H         1 TI2317      0.0000 
     44 H          34.6485   41.4435   -3.6312 H         1 TI2317      0.0000 
     45 H          36.9565   43.1673   -3.2976 H         1 TI2317      0.0000 
     46 H          35.7019   41.2541   -1.3194 H         1 TI2317      0.0000 
     47 H          34.9724   42.8085   -1.7575 H         1 TI2317      0.0000 
     48 H          36.7745   44.8219   -1.6727 H         1 TI2317      0.0000 
     49 H          37.0743   41.2866    0.5606 H         1 TI2317      0.0000 
     50 H          38.2317   45.9437   -0.1014 H         1 TI2317      0.0000 
     51 H          38.5321   42.4063    2.1321 H         1 TI2317      0.0000 
     52 H          39.1160   44.7359    1.8085 H         1 TI2317      0.0000 
     53 H          36.3718   39.6433   -3.2562 H         1 TI2317      0.0000 
     54 H          39.2569   39.1332   -2.6693 H         1 TI2317      0.0000 
     55 H          36.8046   37.3529   -2.5718 H         1 TI2317      0.0000 
     56 H          37.2531   38.3909   -1.2075 H         1 TI2317      0.0000 
     57 H          40.3544   37.8167   -1.4270 H         1 TI2317      0.0000 
     58 H          41.6711   36.0106   -0.4780 H         1 TI2317      0.0000 
     59 H          36.9709   35.3290   -1.4618 H         1 TI2317      0.0000 
     60 H          38.2809   33.5256   -0.5024 H         1 TI2317      0.0000 
     61 H          41.3834   34.1964    0.7044 H         1 TI2317      0.0000 
@<TRIPOS>BOND
     1    2    1 1    
     2    3    2 1    
     3   10    2 1    
     4   36    2 1    
     5    4    3 1    
     6   37    3 1    
     7   38    3 1    
     8    5    4 ar   
     9    6    4 ar   
    10    7    5 ar   
    11   39    5 1    
    12    8    6 ar   
    13   40    6 1    
    14    9    7 ar   
    15   41    7 1    
    16    9    8 ar   
    17   42    8 1    
    18   43    9 1    
    19   11   10 2    
    20   12   10 am   
    21   13   12 1    
    22   44   12 1    
    23   14   13 1    
    24   21   13 1    
    25   45   13 1    
    26   15   14 1    
    27   46   14 1    
    28   47   14 1    
    29   16   15 ar   
    30   17   15 ar   
    31   18   16 ar   
    32   48   16 1    
    33   19   17 ar   
    34   49   17 1    
    35   20   18 ar   
    36   50   18 1    
    37   20   19 ar   
    38   51   19 1    
    39   52   20 1    
    40   22   21 2    
    41   23   21 am   
    42   24   23 1    
    43   53   23 1    
    44   25   24 1    
    45   33   24 1    
    46   54   24 1    
    47   26   25 1    
    48   55   25 1    
    49   56   25 1    
    50   27   26 ar   
    51   29   26 ar   
    52   28   27 ar   
    53   57   27 1    
    54   31   28 ar   
    55   58   28 1    
    56   30   29 ar   
    57   59   29 1    
    58   31   30 ar   
    59   60   30 1    
    60   32   31 1    
    61   61   32 1    
    62   34   33 ar   
    63   35   33 ar   
@<TRIPOS>SUBSTRUCTURE
     1 TI2317      1 GROUP   
@<TRIPOS>SET

