#    Name: 1yhn_GTP_1_INTS_M
#    Modification time : Mon Apr  7 15:47:22 2014

@<TRIPOS>MOLECULE
1yhn_GTP_1_INTS_M
   84     0    15     0     0
SMALL
NO_CHARGES


@<TRIPOS>ATOM
      1 Zn         16.1490   67.8690   32.7040 Zn        4 ZIC7        0.0000 
      2 Zn         15.9750   66.5950   33.2570 Zn       14 ZIL7        0.0000 
      3 Zn         16.3230   69.1430   32.1510 Zn        9 ZIP7        0.0000 
      4 N          14.6625   66.3450   33.6740 N.am      2 SEC2        0.0000 
      5 N          15.9750   66.5950   33.2570 N.am     12 SEL2        0.0000 
      6 N          13.3500   66.0950   34.0910 N.am      7 SEP2        0.0000 
      7 N          15.2315   67.5840   33.5090 N.am      2 SEC2        0.0000 
      8 N          14.4880   68.5730   33.7610 N.am      7 SEP2        0.0000 
      9 NZ         17.4000   66.4135   30.1560 N.4       3 LYC4        0.0000 
     10 NZ         16.2800   65.8390   30.8430 N.4      13 LYL4        0.0000 
     11 NZ         18.5200   66.9880   29.4690 N.4       8 LYP4        0.0000 
     12 N          17.4000   66.4135   30.1560 N.am      2 SEC2        0.0000 
     13 N          16.2800   65.8390   30.8430 N.am     12 SEL2        0.0000 
     14 N          18.5200   66.9880   29.4690 N.am      7 SEP2        0.0000 
     15 N          15.8975   65.5620   29.6235 N.am      2 SEC2        0.0000 
     16 N          15.5150   65.2850   28.4040 N.am      7 SEP2        0.0000 
     17 N          17.3415   63.1295   32.1800 N.am      2 SEC2        0.0000 
     18 N          17.1070   64.4600   32.7050 N.am     12 SEL2        0.0000 
     19 N          17.5760   61.7990   31.6550 N.am      7 SEP2        0.0000 
     20 N          16.8330   63.5430   33.7245 N.am      2 SEC2        0.0000 
     21 N          16.5590   62.6260   34.7440 N.am      7 SEP2        0.0000 
     22 N          18.3690   66.8485   30.8185 N.am      2 SEC2        0.0000 
     23 N          18.2180   66.7090   32.1680 N.am     12 SEL2        0.0000 
     24 N          21.7940   67.4415   32.9520 N.am      2 SEC2        0.0000 
     25 N          20.5790   67.3330   32.9650 N.am     12 SEL2        0.0000 
     26 N          23.0090   67.5500   32.9390 N.am      7 SEP2        0.0000 
     27 N          21.0435   68.5820   32.5970 N.am      2 SEC2        0.0000 
     28 N          21.5080   69.8310   32.2290 N.am      7 SEP2        0.0000 
     29 N          20.0990   70.3180   35.6360 N.am      2 SEC2        0.0000 
     30 N          19.9530   69.0740   35.4060 N.am     12 SEL2        0.0000 
     31 N          20.2450   71.5620   35.8660 N.am      7 SEP2        0.0000 
     32 N          20.6495   69.5235   36.6715 N.am      2 SEC2        0.0000 
     33 N          21.3460   69.9730   37.9370 N.am      7 SEP2        0.0000 
     34 CA         21.5025   64.7840   34.6225 C.3       5 GLC5        0.0000 
     35 CA         21.4620   66.1590   36.2920 C.3      15 GLL5        0.0000 
     36 CA         21.5430   63.4090   32.9530 C.3      10 GLP5        0.0000 
     37 CA         22.2305   67.4375   35.0500 C.3       5 GLC5        0.0000 
     38 CA         22.9990   68.7160   33.8080 C.3      10 GLP5        0.0000 
     39 N          24.3830   64.6430   36.8020 N.am      2 SEC2        0.0000 
     40 N          23.3770   65.4650   37.7080 N.am     12 SEL2        0.0000 
     41 N          25.3890   63.8210   35.8960 N.am      7 SEP2        0.0000 
     42 CA         19.8025   65.0755   38.2675 C.3       5 GLC5        0.0000 
     43 CA         21.4030   65.9100   38.9250 C.3      15 GLL5        0.0000 
     44 CA         18.2020   64.2410   37.6100 C.3      10 GLP5        0.0000 
     45 O          21.0295   65.0380   41.5090 O.2       1 ALC1        0.0000 
     46 O          21.1730   64.8400   39.8350 O.2      11 ALL1        0.0000 
     47 O          20.8860   65.2360   43.1830 O.2       6 ALP1        0.0000 
     48 O          21.8045   67.8735   41.6550 O.2       1 ALC1        0.0000 
     49 O          22.5490   66.8730   40.8070 O.2      11 ALL1        0.0000 
     50 O          21.0600   68.8740   42.5030 O.2       6 ALP1        0.0000 
     51 CA         24.8535   65.7195   37.1080 C.3       5 GLC5        0.0000 
     52 CA         23.7290   66.3380   38.8010 C.3      15 GLL5        0.0000 
     53 CA         25.9780   65.1010   35.4150 C.3      10 GLP5        0.0000 
     54 N          25.8405   69.0940   35.7310 N.am      2 SEC2        0.0000 
     55 N          25.2810   69.1000   36.9950 N.am     12 SEL2        0.0000 
     56 N          26.4000   69.0880   34.4670 N.am      7 SEP2        0.0000 
     57 CA         27.1815   67.5930   36.5785 C.3       5 GLC5        0.0000 
     58 CA         26.3360   68.6430   37.7670 C.3      15 GLL5        0.0000 
     59 CA         28.0270   66.5430   35.3900 C.3      10 GLP5        0.0000 
     60 CA         25.8675   70.5195   37.3280 C.3       5 GLC5        0.0000 
     61 CA         25.3990   72.3960   36.8890 C.3      10 GLP5        0.0000 
     62 CA         27.2255   69.5990   39.4510 C.3       5 GLC5        0.0000 
     63 CA         28.1150   70.5550   41.1350 C.3      10 GLP5        0.0000 
     64 N          29.0065   69.3790   35.9390 N.am      2 SEC2        0.0000 
     65 N          28.2630   70.0240   37.2920 N.am     12 SEL2        0.0000 
     66 N          29.7500   68.7340   34.5860 N.am      7 SEP2        0.0000 
     67 N          27.8365   71.0875   38.3680 N.am      2 SEC2        0.0000 
     68 N          27.4100   72.1510   39.4440 N.am      7 SEP2        0.0000 
     69 O          29.6015   68.7885   38.9320 O.2       1 ALC1        0.0000 
     70 O          28.4400   68.3290   38.7850 O.2      11 ALL1        0.0000 
     71 O          30.7630   69.2480   39.0790 O.2       6 ALP1        0.0000 
     72 O          29.8105   68.1475   39.7970 O.2       1 ALC1        0.0000 
     73 O          31.1810   67.9660   40.8090 O.2       6 ALP1        0.0000 
     74 O          29.7900   67.9560   39.7000 O.2       1 ALC1        0.0000 
     75 O          28.8170   66.6640   40.3210 O.2      11 ALL1        0.0000 
     76 O          29.9990   67.3150   40.5650 O.2       1 ALC1        0.0000 
     77 CA         26.6825   66.4030   37.1890 C.3       5 GLC5        0.0000 
     78 CA         25.9380   67.5690   38.5350 C.3      15 GLL5        0.0000 
     79 CA         27.4270   65.2370   35.8430 C.3      10 GLP5        0.0000 
     80 CA         19.9510   65.0095   37.2673 C.3       5 GLC5        0.0000 
     81 CA         21.9380   65.3970   37.5570 C.3      15 GLL5        0.0000 
     82 CA         23.8475   68.1450   40.2698 C.3       5 GLC5        0.0000 
     83 CA         22.4610   66.8580   39.3800 C.3      15 GLL5        0.0000 
     84 CA         24.6000   69.6920   41.4490 C.3      10 GLP5        0.0000 
@<TRIPOS>BOND
@<TRIPOS>SUBSTRUCTURE
     1 ALC1       45 GROUP        1 X    ALC  0     ROOT ALC X 1
     2 SEC2        4 GROUP        1 X    SEC  0     **** SEC X 2
     3 LYC4        9 GROUP        1 X    LYC  0     **** LYC X 4
     4 ZIC7        1 GROUP        1 X    ZIC  0     **** ZIC X 5
     5 GLC5       34 GROUP        1 X    GLC  0     **** GLC X 6
     6 ALP1       47 GROUP        1 Y    ALP  0     ROOT ALP Y 8
     7 SEP2        6 GROUP        1 Y    SEP  0     **** SEP Y 9
     8 LYP4       11 GROUP        1 Y    LYP  0     **** LYP Y 11
     9 ZIP7        3 GROUP        1 Y    ZIP  0     **** ZIP Y 12
    10 GLP5       36 GROUP        1 Y    GLP  0     **** GLP Y 13
    11 ALL1       46 GROUP        1 Z    ALL  0     ROOT ALL Z 15
    12 SEL2        5 GROUP        1 Z    SEL  0     **** SEL Z 16
    13 LYL4       10 GROUP        1 Z    LYL  0     **** LYL Z 18
    14 ZIL7        2 GROUP        1 Z    ZIL  0     **** ZIL Z 19
    15 GLL5       35 GROUP        1 Z    GLL  0     **** GLL Z 20
@<TRIPOS>SET

