#    Name: 1yhn_GTP_1_ligand
#    Modification time : Mon Apr  7 15:47:22 2014

@<TRIPOS>MOLECULE
1yhn_GTP_1_ligand
   44    46     1     0     0
SMALL
NO_CHARGES


@<TRIPOS>ATOM
      1 PG         16.8420   65.8860   32.2400 P.3       1 GTP301      0.0000 
      2 O1G        15.9750   66.5950   33.2570 O.co2     1 GTP301      0.0000 
      3 O2G        16.2800   65.8390   30.8430 O.co2     1 GTP301      0.0000 
      4 O3G        17.1070   64.4600   32.7050 O.co2     1 GTP301      0.0000 
      5 O3B        18.2180   66.7090   32.1680 O.3       1 GTP301      0.0000 
      6 PB         19.3730   66.5610   33.2260 P.3       1 GTP301      0.0000 
      7 O1B        20.5790   67.3330   32.9650 O.co2     1 GTP301      0.0000 
      8 O2B        19.6600   65.1610   33.3510 O.co2     1 GTP301      0.0000 
      9 O3A        18.8410   66.9440   34.6210 O.3       1 GTP301      0.0000 
     10 PA         19.3410   67.7990   35.8660 P.3       1 GTP301      0.0000 
     11 O1A        18.1530   67.8490   36.7840 O.co2     1 GTP301      0.0000 
     12 O2A        19.9530   69.0740   35.4060 O.co2     1 GTP301      0.0000 
     13 O5'        20.3160   66.8560   36.6680 O.3       1 GTP301      0.0000 
     14 C5'        21.4620   66.1590   36.2920 C.3       1 GTP301      0.0000 
     15 C4'        21.9380   65.3970   37.5570 C.3       1 GTP301      0.0000 
     16 O4'        23.3770   65.4650   37.7080 O.3       1 GTP301      0.0000 
     17 C3'        21.4030   65.9100   38.9250 C.3       1 GTP301      0.0000 
     18 O3'        21.1730   64.8400   39.8350 O.3       1 GTP301      0.0000 
     19 C2'        22.4610   66.8580   39.3800 C.3       1 GTP301      0.0000 
     20 O2'        22.5490   66.8730   40.8070 O.3       1 GTP301      0.0000 
     21 C1'        23.7290   66.3380   38.8010 C.3       1 GTP301      0.0000 
     22 N9         24.6260   67.3590   38.2370 N.pl3     1 GTP301      0.0000 
     23 C8         24.2960   68.3200   37.3080 C.2       1 GTP301      0.0000 
     24 N7         25.2810   69.1000   36.9950 N.2       1 GTP301      0.0000 
     25 C5         26.3360   68.6430   37.7670 C.2       1 GTP301      0.0000 
     26 C6         27.6940   69.0900   37.8680 C.2       1 GTP301      0.0000 
     27 O6         28.2630   70.0240   37.2920 O.2       1 GTP301      0.0000 
     28 N1         28.4400   68.3290   38.7850 N.am      1 GTP301      0.0000 
     29 C2         27.9420   67.2600   39.5050 C.2       1 GTP301      0.0000 
     30 N2         28.8170   66.6640   40.3210 N.pl3     1 GTP301      0.0000 
     31 N3         26.6880   66.8320   39.4170 N.2       1 GTP301      0.0000 
     32 C4         25.9380   67.5690   38.5350 C.2       1 GTP301      0.0000 
     33 H          22.2779   66.8046   35.9869 H         1 GTP301      0.0000 
     34 H          21.2808   65.4146   35.5248 H         1 GTP301      0.0000 
     35 H          21.6452   64.3503   37.4753 H         1 GTP301      0.0000 
     36 H          20.5117   66.4759   38.7031 H         1 GTP301      0.0000 
     37 H          22.2637   67.8225   38.9731 H         1 GTP301      0.0000 
     38 H          24.2574   65.7594   39.5480 H         1 GTP301      0.0000 
     39 H          23.3648   68.3755   36.9333 H         1 GTP301      0.0000 
     40 H          29.4540   68.6019   38.9271 H         1 GTP301      0.0000 
     41 H          29.7223   67.0848   40.3784 H         1 GTP301      0.0000 
     42 H          28.4878   65.8508   40.8008 H         1 GTP301      0.0000 
     43 H          21.6417   65.1104   40.6760 H         1 GTP301      0.0000 
     44 H          21.9750   67.6401   41.0935 H         1 GTP301      0.0000 
@<TRIPOS>BOND
     1    2    1 ar   
     2    3    1 ar   
     3    4    1 ar   
     4    5    1 1    
     5    6    5 1    
     6    7    6 ar   
     7    8    6 ar   
     8    9    6 1    
     9   10    9 1    
    10   11   10 ar   
    11   12   10 ar   
    12   13   10 1    
    13   14   13 1    
    14   15   14 1    
    15   33   14 1    
    16   34   14 1    
    17   16   15 1    
    18   17   15 1    
    19   35   15 1    
    20   21   16 1    
    21   18   17 1    
    22   19   17 1    
    23   36   17 1    
    24   43   18 1    
    25   20   19 1    
    26   21   19 1    
    27   37   19 1    
    28   44   20 1    
    29   22   21 1    
    30   38   21 1    
    31   23   22 1    
    32   32   22 1    
    33   24   23 2    
    34   39   23 1    
    35   25   24 1    
    36   26   25 1    
    37   32   25 2    
    38   27   26 2    
    39   28   26 am   
    40   29   28 1    
    41   40   28 1    
    42   30   29 1    
    43   31   29 2    
    44   41   30 1    
    45   42   30 1    
    46   32   31 1    
@<TRIPOS>SUBSTRUCTURE
     1 GTP301      1 GROUP   
@<TRIPOS>SET

