#    Name: 1C9U_2_CAVITY_N1_6.mol2
#    Modification time : Mon Mar 10 16:18:48 2014

@<TRIPOS>MOLECULE
1C9U_2_CAVITY_N1_6.mol2
  167     0     6     0     0
SMALL
NO_CHARGES


@<TRIPOS>ATOM
      1 N          -3.6985   72.1056   28.0009 N.2       2 ALA2        0.0000 
      2 O          -4.7867   73.1316   28.1160 O.2       2 ALA2        0.0000 
      3 CA         -3.4569   70.2886   26.9332 C.3       5 GLY6        0.0000 
      4 O          -4.5451   71.3145   27.0483 O.2       2 ALA2        0.0000 
      5 O          -5.6333   72.3405   27.1634 O.2       2 ALA2        0.0000 
      6 O          -6.7215   73.3665   27.2784 O.2       2 ALA2        0.0000 
      7 CA          0.0492   65.3936   25.5203 C.3       5 GLY6        0.0000 
      8 N          -3.2153   68.4715   25.8656 N.2       2 ALA2        0.0000 
      9 O          -4.3035   69.4975   25.9806 O.2       2 ALA2        0.0000 
     10 O          -5.3917   70.5235   26.0957 O.2       2 ALA2        0.0000 
     11 NZ         -6.4799   71.5494   26.2108 N.2       3 LYS4        0.0000 
     12 NZ         -7.5681   72.5754   26.3258 N.2       3 LYS4        0.0000 
     13 O           0.2908   63.5766   24.4527 O.2       2 ALA2        0.0000 
     14 O          -0.7974   64.6025   24.5677 O.2       2 ALA2        0.0000 
     15 N          -1.8856   65.6285   24.6828 N.2       2 ALA2        0.0000 
     16 N          -2.9738   66.6545   24.7979 N.2       2 ALA2        0.0000 
     17 O          -4.0619   67.6804   24.9130 O.2       2 ALA2        0.0000 
     18 O          -5.1501   68.7064   25.0280 O.2       2 ALA2        0.0000 
     19 O          -2.7322   64.8374   23.7302 O.2       2 ALA2        0.0000 
     20 CA         -3.8203   65.8634   23.8453 C.3       5 GLY6        0.0000 
     21 O          -5.1360   70.5585   28.2013 O.2       2 ALA2        0.0000 
     22 CA         -3.8062   67.7155   27.0185 C.3       5 GLY6        0.0000 
     23 O          -4.8944   68.7415   27.1336 O.2       2 ALA2        0.0000 
     24 O          -5.9826   69.7674   27.2487 O.2       2 ALA2        0.0000 
     25 O          -7.0708   70.7934   27.3637 O.2       2 ALA2        0.0000 
     26 O          -8.1590   71.8194   27.4788 O.2       2 ALA2        0.0000 
     27 O          -3.5646   65.8984   25.9508 O.2       2 ALA2        0.0000 
     28 CA         -4.6528   66.9244   26.0659 C.3       5 GLY6        0.0000 
     29 CA         -4.6387   68.7765   29.2391 C.3       5 GLY6        0.0000 
     30 O          -5.7269   69.8025   29.3542 O.2       2 ALA2        0.0000 
     31 O          -4.3971   66.9595   28.1715 O.2       2 ALA2        0.0000 
     32 O          -5.4853   67.9855   28.2865 O.2       2 ALA2        0.0000 
     33 O          -6.5735   69.0114   28.4016 O.2       2 ALA2        0.0000 
     34 O          -7.6616   70.0374   28.5167 O.2       2 ALA2        0.0000 
     35 O          -8.7498   71.0634   28.6318 O.2       2 ALA2        0.0000 
     36 CA          2.9241   68.4878   25.1196 C.3       5 GLY6        0.0000 
     37 N           1.8360   69.5138   25.2347 N.2       2 ALA2        0.0000 
     38 N           0.7478   70.5398   25.3498 N.2       2 ALA2        0.0000 
     39 N          -0.3404   71.5657   25.4648 N.2       2 ALA2        0.0000 
     40 N          -1.4286   72.5917   25.5799 N.2       2 ALA2        0.0000 
     41 N          -2.5168   73.6177   25.6950 N.2       2 ALA2        0.0000 
     42 N           2.0776   67.6967   24.1670 N.2       2 ALA2        0.0000 
     43 N           0.9894   68.7227   24.2821 N.2       2 ALA2        0.0000 
     44 N          -0.0988   69.7487   24.3972 N.2       2 ALA2        0.0000 
     45 N          -1.1870   70.7746   24.5122 N.2       2 ALA2        0.0000 
     46 DU         -2.2752   71.8006   24.6273 H         6 CUB7        0.0000 
     47 DU         -3.3634   72.8266   24.7424 H         6 CUB7        0.0000 
     48 DU         -4.4516   73.8526   24.8575 H         6 CUB7        0.0000 
     49 N           2.3191   65.8797   23.0994 N.2       2 ALA2        0.0000 
     50 DU          1.2310   66.9057   23.2144 H         6 CUB7        0.0000 
     51 N           0.1428   67.9316   23.3295 N.2       2 ALA2        0.0000 
     52 N          -0.9454   68.9576   23.4446 N.2       2 ALA2        0.0000 
     53 DU         -2.0336   69.9836   23.5596 H         6 CUB7        0.0000 
     54 O          -3.1218   71.0095   23.6747 O.2       2 ALA2        0.0000 
     55 O          -4.2100   72.0355   23.7898 O.2       2 ALA2        0.0000 
     56 N          -5.2982   73.0615   23.9049 N.2       2 ALA2        0.0000 
     57 O           2.5607   64.0626   22.0317 O.2       2 ALA2        0.0000 
     58 O           1.4725   65.0886   22.1468 O.2       2 ALA2        0.0000 
     59 DU         -0.7038   67.1405   22.3769 H         6 CUB7        0.0000 
     60 DU         -1.7920   68.1665   22.4920 H         6 CUB7        0.0000 
     61 O          -2.8802   69.1925   22.6070 O.2       2 ALA2        0.0000 
     62 N          -6.1448   72.2704   22.9523 N.2       2 ALA2        0.0000 
     63 N           1.7141   63.2715   21.0791 N.2       2 ALA2        0.0000 
     64 DU          0.6260   64.2975   21.1941 H         6 CUB7        0.0000 
     65 DU         -0.4622   65.3235   21.3092 H         6 CUB7        0.0000 
     66 DU         -1.5504   66.3494   21.4243 H         6 CUB7        0.0000 
     67 O          -2.6386   67.3754   21.5394 O.2       2 ALA2        0.0000 
     68 O          -3.7268   68.4014   21.6544 O.2       2 ALA2        0.0000 
     69 N           0.8675   62.4804   20.1265 N.2       2 ALA2        0.0000 
     70 DU         -0.2206   63.5064   20.2415 H         6 CUB7        0.0000 
     71 CA         -1.3088   64.5324   20.3566 C.3       5 GLY6        0.0000 
     72 CA         -2.3970   65.5583   20.4717 C.3       5 GLY6        0.0000 
     73 O          -3.4852   66.5843   20.5868 O.2       2 ALA2        0.0000 
     74 OG          0.0209   61.6893   19.1739 O.2       1 SER1        0.0000 
     75 OG         -1.0672   62.7153   19.2889 O.2       1 SER1        0.0000 
     76 CA         -2.1554   63.7413   19.4040 C.3       5 GLY6        0.0000 
     77 CA         -3.2436   64.7672   19.5191 C.3       5 GLY6        0.0000 
     78 N          -0.9313   70.8097   26.6178 N.2       2 ALA2        0.0000 
     79 N          -2.0195   71.8357   26.7329 N.2       2 ALA2        0.0000 
     80 N          -3.1077   72.8617   26.8479 N.2       2 ALA2        0.0000 
     81 N          -4.1958   73.8876   26.9630 N.2       2 ALA2        0.0000 
     82 N           1.4867   66.9407   25.3200 N.2       2 ALA2        0.0000 
     83 N          -1.7779   70.0186   25.6652 N.2       2 ALA2        0.0000 
     84 CA         -2.8661   71.0446   25.7803 C.3       5 GLY6        0.0000 
     85 DU         -3.9542   72.0706   25.8953 H         6 CUB7        0.0000 
     86 DU         -5.0424   73.0965   26.0104 H         6 CUB7        0.0000 
     87 N          -6.1306   74.1225   26.1255 N.2       2 ALA2        0.0000 
     88 N           1.7283   65.1237   24.2523 N.2       2 ALA2        0.0000 
     89 N           0.6401   66.1496   24.3674 N.2       2 ALA2        0.0000 
     90 N          -0.4481   67.1756   24.4825 N.2       2 ALA2        0.0000 
     91 N          -1.5363   68.2016   24.5975 N.2       2 ALA2        0.0000 
     92 N          -2.6245   69.2275   24.7126 N.2       2 ALA2        0.0000 
     93 O          -3.7127   70.2535   24.8277 O.2       2 ALA2        0.0000 
     94 O          -4.8008   71.2795   24.9427 O.2       2 ALA2        0.0000 
     95 N          -5.8890   72.3054   25.0578 N.2       2 ALA2        0.0000 
     96 N          -6.9772   73.3314   25.1729 N.2       2 ALA2        0.0000 
     97 O           0.8817   64.3326   23.2997 O.2       2 ALA2        0.0000 
     98 DU         -0.2065   65.3585   23.4148 H         6 CUB7        0.0000 
     99 DU         -1.2947   66.3845   23.5299 H         6 CUB7        0.0000 
    100 N          -2.3829   67.4105   23.6449 N.2       2 ALA2        0.0000 
    101 O          -3.4711   68.4364   23.7600 O.2       2 ALA2        0.0000 
    102 NZ         -6.7356   71.5143   24.1052 N.2       3 LYS4        0.0000 
    103 N           1.1233   62.5155   22.2320 N.2       2 ALA2        0.0000 
    104 O           0.0351   63.5415   22.3471 O.2       2 ALA2        0.0000 
    105 O          -1.0531   64.5674   22.4622 O.2       2 ALA2        0.0000 
    106 O          -2.1413   65.5934   22.5773 O.2       2 ALA2        0.0000 
    107 CA         -3.2295   66.6194   22.6923 C.3       5 GLY6        0.0000 
    108 N           0.2767   61.7244   21.2794 N.2       2 ALA2        0.0000 
    109 O          -0.8115   62.7504   21.3945 O.2       2 ALA2        0.0000 
    110 CA         -2.9879   64.8023   21.6246 C.3       5 GLY6        0.0000 
    111 CA         -4.0761   65.8283   21.7397 C.3       5 GLY6        0.0000 
    112 CZ          5.6773   65.3398   20.5633 C.ar      4 PHE5        0.0000 
    113 CA          4.5891   66.3657   20.6784 C.3       5 GLY6        0.0000 
    114 CA          3.5009   67.3917   20.7934 C.3       5 GLY6        0.0000 
    115 CA          2.4127   68.4177   20.9085 C.3       5 GLY6        0.0000 
    116 DU          1.3245   69.4437   21.0236 H         6 CUB7        0.0000 
    117 CZ          4.8307   64.5487   19.6107 C.ar      4 PHE5        0.0000 
    118 CZ          3.7425   65.5747   19.7258 C.ar      4 PHE5        0.0000 
    119 CZ          2.6543   66.6006   19.8408 C.ar      4 PHE5        0.0000 
    120 CZ          1.5661   67.6266   19.9559 C.ar      4 PHE5        0.0000 
    121 CZ          0.4779   68.6526   20.0710 C.ar      4 PHE5        0.0000 
    122 CZ         -0.6103   69.6785   20.1861 C.ar      4 PHE5        0.0000 
    123 OG         -2.7866   71.7305   20.4162 O.2       1 SER1        0.0000 
    124 O          -3.8748   72.7564   20.5313 O.2       2 ALA2        0.0000 
    125 CZ          1.8077   65.8095   18.8882 C.ar      4 PHE5        0.0000 
    126 CZ          0.9611   65.0184   17.9356 C.ar      4 PHE5        0.0000 
    127 CA          2.6684   68.4528   23.0141 C.3       5 GLY6        0.0000 
    128 CA          1.5802   69.4787   23.1291 C.3       5 GLY6        0.0000 
    129 DU          0.4921   70.5047   23.2442 H         6 CUB7        0.0000 
    130 DU         -1.6843   72.5566   23.4744 H         6 CUB7        0.0000 
    131 DU         -2.7725   73.5826   23.5894 H         6 CUB7        0.0000 
    132 O           6.1746   63.5578   21.6012 O.2       2 ALA2        0.0000 
    133 N           5.0864   64.5838   21.7163 N.2       2 ALA2        0.0000 
    134 N           3.9982   65.6097   21.8313 N.2       2 ALA2        0.0000 
    135 N           2.9100   66.6357   21.9464 N.2       2 ALA2        0.0000 
    136 CA          1.8218   67.6617   22.0615 C.3       5 GLY6        0.0000 
    137 DU          0.7336   68.6876   22.1765 H         6 CUB7        0.0000 
    138 DU         -0.3545   69.7136   22.2916 H         6 CUB7        0.0000 
    139 DU         -1.4427   70.7396   22.4067 H         6 CUB7        0.0000 
    140 DU         -2.5309   71.7655   22.5218 H         6 CUB7        0.0000 
    141 DU         -3.6191   72.7915   22.6368 H         6 CUB7        0.0000 
    142 CA          5.3280   62.7667   20.6486 C.3       5 GLY6        0.0000 
    143 O           4.2398   63.7927   20.7637 O.2       2 ALA2        0.0000 
    144 CZ          3.1516   64.8186   20.8787 C.ar      4 PHE5        0.0000 
    145 DU          2.0634   65.8446   20.9938 H         6 CUB7        0.0000 
    146 DU          0.9752   66.8706   21.1089 H         6 CUB7        0.0000 
    147 CZ         -0.1130   67.8965   21.2239 C.ar      4 PHE5        0.0000 
    148 CZ         -1.2011   68.9225   21.3390 C.ar      4 PHE5        0.0000 
    149 OG         -2.2893   69.9485   21.4541 O.2       1 SER1        0.0000 
    150 O          -3.3775   70.9744   21.5692 O.2       2 ALA2        0.0000 
    151 O          -4.4657   72.0004   21.6842 O.2       2 ALA2        0.0000 
    152 N           3.3932   63.0016   19.8110 N.2       2 ALA2        0.0000 
    153 CZ          2.3050   64.0275   19.9261 C.ar      4 PHE5        0.0000 
    154 CZ          1.2168   65.0535   20.0412 C.ar      4 PHE5        0.0000 
    155 CZ          0.1286   66.0795   20.1563 C.ar      4 PHE5        0.0000 
    156 CZ         -0.9596   67.1055   20.2713 C.ar      4 PHE5        0.0000 
    157 CZ         -2.0477   68.1314   20.3864 C.ar      4 PHE5        0.0000 
    158 OG         -3.1359   69.1574   20.5015 O.2       1 SER1        0.0000 
    159 CZ          1.4584   63.2365   18.9735 C.ar      4 PHE5        0.0000 
    160 CZ          0.3702   64.2624   19.0886 C.ar      4 PHE5        0.0000 
    161 CZ         -0.7180   65.2884   19.2037 C.ar      4 PHE5        0.0000 
    162 CZ         -1.8061   66.3144   19.3187 C.ar      4 PHE5        0.0000 
    163 OG         -0.4764   63.4713   18.1360 O.2       1 SER1        0.0000 
    164 CA         -1.5646   64.4973   18.2511 C.3       5 GLY6        0.0000 
    165 CA         -2.6527   65.5233   18.3661 C.3       5 GLY6        0.0000 
    166 CA          3.2452   67.3566   18.6879 C.3       5 GLY6        0.0000 
    167 CZ          2.1570   68.3826   18.8030 C.ar      4 PHE5        0.0000 
@<TRIPOS>BOND
@<TRIPOS>SUBSTRUCTURE
     1 SER1       74 GROUP   
     2 ALA2        1 GROUP   
     3 LYS4       11 GROUP   
     4 PHE5      112 GROUP   
     5 GLY6        3 GROUP   
     6 CUB7       46 GROUP   
@<TRIPOS>SET

