#    Name: 1c9u_PQQ_2_INTS_M
#    Modification time : Mon Mar 24 20:27:18 2014

@<TRIPOS>MOLECULE
1c9u_PQQ_2_INTS_M
   46     0     9     0     0
SMALL
NO_CHARGES


@<TRIPOS>ATOM
      1 NZ         -6.3460   68.2170   25.9115 N.4       2 LYC4        0.0000 
      2 NZ         -5.0070   68.3690   25.5090 N.4       8 LYL4        0.0000 
      3 NZ         -8.3660   67.4010   27.2380 N.4       5 LYP4        0.0000 
      4 N          -6.3460   68.2170   25.9115 N.am      1 SEC2        0.0000 
      5 N          -5.0070   68.3690   25.5090 N.am      7 SEL2        0.0000 
      6 N          -7.6850   68.0650   26.3140 N.am      4 SEP2        0.0000 
      7 N          -4.4935   65.8795   27.9250 N.am      1 SEC2        0.0000 
      8 N          -4.3640   67.4220   27.2980 N.am      7 SEL2        0.0000 
      9 N          -4.6230   64.3370   28.5520 N.am      4 SEP2        0.0000 
     10 CA         -4.4910   65.6850   23.6940 C.3       3 GLC5        0.0000 
     11 CA         -2.5030   65.9470   23.5460 C.3       9 GLL5        0.0000 
     12 CA         -6.4790   65.4230   23.8420 C.3       6 GLP5        0.0000 
     13 N           0.9030   62.6065   25.2185 N.am      1 SEC2        0.0000 
     14 N          -0.1150   63.8920   25.4900 N.am      7 SEL2        0.0000 
     15 N           1.9210   61.3210   24.9470 N.am      4 SEP2        0.0000 
     16 N          -0.7480   63.6225   26.8755 N.am      1 SEC2        0.0000 
     17 N          -1.3810   63.3530   28.2610 N.am      4 SEP2        0.0000 
     18 N           1.2795   62.3000   23.9945 N.am      1 SEC2        0.0000 
     19 N           0.6380   63.2790   23.0420 N.am      7 SEL2        0.0000 
     20 N           2.0785   62.9045   23.4375 N.am      1 SEC2        0.0000 
     21 N           3.5190   62.5300   23.8330 N.am      4 SEP2        0.0000 
     22 N          -0.3015   62.0205   17.7410 N.am      1 SEC2        0.0000 
     23 N           0.2530   63.1800   18.6650 N.am      7 SEL2        0.0000 
     24 N          -0.8560   60.8610   16.8170 N.am      4 SEP2        0.0000 
     25 NZ         -1.4410   63.7920   16.3835 N.4       2 LYC4        0.0000 
     26 NZ         -0.9690   64.5090   17.4760 N.4       8 LYL4        0.0000 
     27 NZ         -1.9130   63.0750   15.2910 N.4       5 LYP4        0.0000 
     28 CA         -3.0305   64.9450   17.9840 C.3       3 GLC5        0.0000 
     29 CA         -2.1690   65.5710   19.8350 C.3       9 GLL5        0.0000 
     30 CA         -3.8920   64.3190   16.1330 C.3       6 GLP5        0.0000 
     31 NZ         -5.2115   68.3225   21.1200 N.4       2 LYC4        0.0000 
     32 NZ         -4.4500   67.1250   19.9810 N.4       8 LYL4        0.0000 
     33 NZ         -6.6570   69.5110   21.4400 N.4       5 LYP4        0.0000 
     34 N          -5.3665   68.0785   20.1225 N.am      1 SEC2        0.0000 
     35 N          -4.4500   67.1250   19.9810 N.am      7 SEL2        0.0000 
     36 N          -6.2830   69.0320   20.2640 N.am      4 SEP2        0.0000 
     37 NZ         -4.1400   67.6130   21.9760 N.4       8 LYL4        0.0000 
     38 N          -5.2115   68.3225   21.1200 N.am      1 SEC2        0.0000 
     39 N          -4.1400   67.6130   21.9760 N.am      7 SEL2        0.0000 
     40 N          -5.0480   68.4145   22.2520 N.am      1 SEC2        0.0000 
     41 N          -5.9560   69.2160   22.5280 N.am      4 SEP2        0.0000 
     42 CA         -4.7037   65.8667   24.6935 C.3       3 GLC5        0.0000 
     43 CA         -3.4280   66.7470   25.3500 C.3       9 GLL5        0.0000 
     44 CA         -3.3893   64.2194   20.8437 C.3       3 GLC5        0.0000 
     45 CA         -2.6850   66.0550   21.0440 C.3       9 GLL5        0.0000 
     46 CA         -4.8880   63.0720   20.9860 C.3       6 GLP5        0.0000 
@<TRIPOS>BOND
@<TRIPOS>SUBSTRUCTURE
     1 SEC2        4 GROUP        1 X    SEC  0     ROOT SEC X 2
     2 LYC4        1 GROUP        1 X    LYC  0     **** LYC X 4
     3 GLC5       10 GROUP        1 X    GLC  0     **** GLC X 6
     4 SEP2        6 GROUP        1 Y    SEP  0     ROOT SEP Y 9
     5 LYP4        3 GROUP        1 Y    LYP  0     **** LYP Y 11
     6 GLP5       12 GROUP        1 Y    GLP  0     **** GLP Y 13
     7 SEL2        5 GROUP        1 Z    SEL  0     ROOT SEL Z 16
     8 LYL4        2 GROUP        1 Z    LYL  0     **** LYL Z 18
     9 GLL5       11 GROUP        1 Z    GLL  0     **** GLL Z 20
@<TRIPOS>SET

