#    Name: 1c9u_PQQ_2_ligand
#    Modification time : Mon Mar 24 20:27:19 2014

@<TRIPOS>MOLECULE
1c9u_PQQ_2_ligand
   27    29     1     0     0
SMALL
NO_CHARGES


@<TRIPOS>ATOM
      1 N1         -3.4890   66.7940   23.9930 N.pl3     1 PQQ1004     0.0000 
      2 C2         -3.4280   66.7470   25.3500 C.2       1 PQQ1004     0.0000 
      3 C2X        -4.2920   67.5320   26.0880 C.2       1 PQQ1004     0.0000 
      4 O2A        -5.0070   68.3690   25.5090 O.co2     1 PQQ1004     0.0000 
      5 O2B        -4.3640   67.4220   27.2980 O.co2     1 PQQ1004     0.0000 
      6 C3         -2.4290   65.8740   25.7400 C.2       1 PQQ1004     0.0000 
      7 C3A        -1.8530   65.3830   24.6170 C.2       1 PQQ1004     0.0000 
      8 C1A        -2.5030   65.9470   23.5460 C.2       1 PQQ1004     0.0000 
      9 C4         -0.8000   64.4870   24.4430 C.2       1 PQQ1004     0.0000 
     10 O4         -0.1150   63.8920   25.4900 O.2       1 PQQ1004     0.0000 
     11 C5         -0.3920   64.1580   23.1760 C.2       1 PQQ1004     0.0000 
     12 O5          0.6380   63.2790   23.0420 O.2       1 PQQ1004     0.0000 
     13 C6A        -1.0470   64.7120   22.0480 C.ar      1 PQQ1004     0.0000 
     14 N6         -0.5280   64.2360   20.8910 N.ar      1 PQQ1004     0.0000 
     15 C7         -1.1260   64.6750   19.7900 C.ar      1 PQQ1004     0.0000 
     16 C7X        -0.5950   64.1050   18.6160 C.2       1 PQQ1004     0.0000 
     17 O7A         0.2530   63.1800   18.6650 O.co2     1 PQQ1004     0.0000 
     18 O7B        -0.9690   64.5090   17.4760 O.co2     1 PQQ1004     0.0000 
     19 C8         -2.1690   65.5710   19.8350 C.ar      1 PQQ1004     0.0000 
     20 C9         -2.6850   66.0550   21.0440 C.ar      1 PQQ1004     0.0000 
     21 C9X        -3.7830   66.9570   21.0150 C.2       1 PQQ1004     0.0000 
     22 O9A        -4.4500   67.1250   19.9810 O.co2     1 PQQ1004     0.0000 
     23 O9B        -4.1400   67.6130   21.9760 O.co2     1 PQQ1004     0.0000 
     24 C9A        -2.1180   65.6200   22.2250 C.ar      1 PQQ1004     0.0000 
     25 H          -4.0800   67.2986   23.4611 H         1 PQQ1004     0.0000 
     26 H          -2.2000   65.6665   26.6415 H         1 PQQ1004     0.0000 
     27 H          -2.5975   65.9079   18.9441 H         1 PQQ1004     0.0000 
@<TRIPOS>BOND
     1    2    1 1    
     2    8    1 1    
     3   25    1 1    
     4    3    2 1    
     5    6    2 2    
     6    4    3 ar   
     7    5    3 ar   
     8    7    6 1    
     9   26    6 1    
    10    8    7 2    
    11    9    7 1    
    12   24    8 1    
    13   10    9 2    
    14   11    9 1    
    15   12   11 2    
    16   13   11 1    
    17   14   13 ar   
    18   24   13 ar   
    19   15   14 ar   
    20   16   15 1    
    21   19   15 ar   
    22   17   16 ar   
    23   18   16 ar   
    24   20   19 ar   
    25   27   19 1    
    26   21   20 1    
    27   24   20 ar   
    28   22   21 ar   
    29   23   21 ar   
@<TRIPOS>SUBSTRUCTURE
     1 PQQ1004     1 GROUP   
@<TRIPOS>SET

