#    Name: 2xaa_NAD_3_INTS_M
#    Modification time : Tue Mar 25 05:39:23 2014

@<TRIPOS>MOLECULE
2xaa_NAD_3_INTS_M
   96     0    12     0     0
SMALL
NO_CHARGES


@<TRIPOS>ATOM
      1 N          37.0035   20.9495   26.5765 N.am      2 SEC2        0.0000 
      2 N          36.7960   22.4470   26.4310 N.am     10 SEL2        0.0000 
      3 N          37.2110   19.4520   26.7220 N.am      6 SEP2        0.0000 
      4 O          39.4060   19.7855   20.3930 O.2       1 ALC1        0.0000 
      5 O          39.4690   20.6740   21.4770 O.2       9 ALL1        0.0000 
      6 O          39.3430   18.8970   19.3090 O.2       5 ALP1        0.0000 
      7 O          39.4755   20.4080   19.2375 O.2       1 ALC1        0.0000 
      8 O          39.6080   21.9190   19.1660 O.2       9 ALL1        0.0000 
      9 CA         36.2795   19.8025   19.5360 C.3       4 GLC5        0.0000 
     10 CA         37.2630   21.5830   19.5450 C.3      12 GLL5        0.0000 
     11 CA         35.2960   18.0220   19.5270 C.3       8 GLP5        0.0000 
     12 CA         35.2555   21.2965   18.9555 C.3       4 GLC5        0.0000 
     13 CA         33.2480   21.0100   18.3660 C.3       8 GLP5        0.0000 
     14 CA         36.9430   23.4185   15.1960 C.3       4 GLC5        0.0000 
     15 CA         35.8500   22.4890   16.3370 C.3      12 GLL5        0.0000 
     16 CA         38.0360   24.3480   14.0550 C.3       8 GLP5        0.0000 
     17 CA         37.0610   22.4770   14.4345 C.3       4 GLC5        0.0000 
     18 CA         35.4850   22.0310   15.0770 C.3      12 GLL5        0.0000 
     19 CA         38.6370   22.9230   13.7920 C.3       8 GLP5        0.0000 
     20 CA         36.3775   20.6605   13.7645 C.3       4 GLC5        0.0000 
     21 CA         37.2700   19.2900   12.4520 C.3       8 GLP5        0.0000 
     22 CA         33.6575   21.4170   14.5615 C.3       4 GLC5        0.0000 
     23 CA         31.8300   20.8030   14.0460 C.3       8 GLP5        0.0000 
     24 N          35.7685   20.0265   13.6510 N.am      2 SEC2        0.0000 
     25 N          35.6700   20.7150   14.7550 N.am     10 SEL2        0.0000 
     26 N          35.8670   19.3380   12.5470 N.am      6 SEP2        0.0000 
     27 CA         34.7835   18.7135   15.6565 C.3       4 GLC5        0.0000 
     28 CA         36.2090   19.8320   15.6580 C.3      12 GLL5        0.0000 
     29 CA         33.3580   17.5950   15.6550 C.3       8 GLP5        0.0000 
     30 CA         35.7525   18.9270   17.5925 C.3       4 GLC5        0.0000 
     31 CA         36.1395   17.9225   14.5025 C.3       4 GLC5        0.0000 
     32 CA         36.0700   16.0130   13.3470 C.3       8 GLP5        0.0000 
     33 CA         37.6175   18.9405   15.7970 C.3       4 GLC5        0.0000 
     34 CA         39.0260   18.0490   15.9360 C.3       8 GLP5        0.0000 
     35 CA         37.4230   21.3775   14.7250 C.3       4 GLC5        0.0000 
     36 CA         36.7395   19.5610   14.0550 C.3       4 GLC5        0.0000 
     37 CA         34.7285   20.4210   17.0120 C.3       4 GLC5        0.0000 
     38 CA         35.8450   19.8075   18.3765 C.3       4 GLC5        0.0000 
     39 CA         36.3940   21.5930   17.2260 C.3      12 GLL5        0.0000 
     40 CA         37.5155   22.2580   15.5090 C.3       4 GLC5        0.0000 
     41 NZ         34.2920   22.4310   28.9205 N.4       3 LYC4        0.0000 
     42 NZ         33.7740   22.8050   27.5680 N.4      11 LYL4        0.0000 
     43 NZ         34.2800   21.2920   31.2060 N.4       7 LYP4        0.0000 
     44 N          33.4150   24.1800   28.3480 N.am      2 SEC2        0.0000 
     45 N          33.7740   22.8050   27.5680 N.am     10 SEL2        0.0000 
     46 N          33.0560   25.5550   29.1280 N.am      6 SEP2        0.0000 
     47 N          34.2920   22.4310   28.9205 N.am      2 SEC2        0.0000 
     48 N          34.8100   22.0570   30.2730 N.am      6 SEP2        0.0000 
     49 N          34.2485   19.3610   26.8060 N.am      2 SEC2        0.0000 
     50 N          34.0050   20.6550   26.1410 N.am     10 SEL2        0.0000 
     51 N          34.4920   18.0670   27.4710 N.am      6 SEP2        0.0000 
     52 CA         31.6815   19.8465   23.3600 C.3       4 GLC5        0.0000 
     53 CA         31.9020   21.8060   24.3950 C.3      12 GLL5        0.0000 
     54 CA         31.4610   17.8870   22.3250 C.3       8 GLP5        0.0000 
     55 N          28.4770   24.3170   22.5690 N.am      2 SEC2        0.0000 
     56 N          29.6910   24.4230   23.3160 N.am     10 SEL2        0.0000 
     57 N          27.2630   24.2110   21.8220 N.am      6 SEP2        0.0000 
     58 CA         29.5280   25.5530   27.2100 C.3       4 GLC5        0.0000 
     59 CA         29.7260   23.9540   25.6740 C.3      12 GLL5        0.0000 
     60 CA         29.3300   27.1520   28.7460 C.3       8 GLP5        0.0000 
     61 N          28.6120   25.1255   27.3000 N.am      2 SEC2        0.0000 
     62 N          29.0940   25.2160   25.8000 N.am     10 SEL2        0.0000 
     63 N          28.1300   25.0350   28.8000 N.am      6 SEP2        0.0000 
     64 CA         28.3570   22.3165   23.6440 C.3       4 GLC5        0.0000 
     65 CA         28.7740   22.7760   25.4940 C.3      12 GLL5        0.0000 
     66 CA         27.9400   21.8570   21.7940 C.3       8 GLP5        0.0000 
     67 N          23.2365   19.4600   29.0995 N.am      2 SEC2        0.0000 
     68 N          23.9180   20.4570   28.1930 N.am     10 SEL2        0.0000 
     69 N          22.5550   18.4630   30.0060 N.am      6 SEP2        0.0000 
     70 O          25.2475   20.5015   24.7235 O.2       1 ALC1        0.0000 
     71 O          24.5920   20.0580   25.9810 O.2       9 ALL1        0.0000 
     72 O          25.9030   20.9450   23.4660 O.2       5 ALP1        0.0000 
     73 O          23.1270   19.4475   25.8765 O.2       1 ALC1        0.0000 
     74 O          21.6620   18.8370   25.7720 O.2       5 ALP1        0.0000 
     75 CA         38.0010   20.5326   23.1779 C.3       4 GLC5        0.0000 
     76 CA         36.7190   22.6910   22.7040 C.3      12 GLL5        0.0000 
     77 CA         38.1880   19.0860   24.5240 C.3       8 GLP5        0.0000 
     78 CA         34.6394   21.4682   17.4162 C.3       4 GLC5        0.0000 
     79 CA         29.2220   22.4973   22.9855 C.3       4 GLC5        0.0000 
     80 CA         30.5480   22.4000   24.0070 C.3      12 GLL5        0.0000 
     81 CA         31.6965   24.9312   25.8358 C.3       4 GLC5        0.0000 
     82 CA         30.4600   23.8750   24.3470 C.3      12 GLL5        0.0000 
     83 CA         33.3000   25.9480   26.6610 C.3       8 GLP5        0.0000 
     84 CA         28.2655   19.8100   27.0300 C.3       4 GLC5        0.0000 
     85 CA         26.9630   21.5860   26.5130 C.3      12 GLL5        0.0000 
     86 CA         29.8960   18.3820   27.0430 C.3       8 GLP5        0.0000 
     87 CA         26.7980   19.7270   25.7625 C.3       4 GLC5        0.0000 
     88 CA         26.9610   18.2160   24.5080 C.3       8 GLP5        0.0000 
     89 CA         26.5085   18.9337   28.1218 C.3       4 GLC5        0.0000 
     90 CA         26.3070   20.8900   27.5210 C.3      12 GLL5        0.0000 
     91 CA         26.3990   17.0700   28.1050 C.3       8 GLP5        0.0000 
     92 CA         29.7093   22.5415   29.5050 C.3       4 GLC5        0.0000 
     93 CA         28.2150   21.2200   28.9530 C.3      12 GLL5        0.0000 
     94 CA         30.8900   23.5170   30.5810 C.3       8 GLP5        0.0000 
     95 CA         29.0515   19.9096   27.7114 C.3       4 GLC5        0.0000 
     96 CA         28.8420   21.9120   27.9050 C.3      12 GLL5        0.0000 
@<TRIPOS>BOND
@<TRIPOS>SUBSTRUCTURE
     1 ALC1        4 GROUP        1 X    ALC  0     ROOT ALC X 1
     2 SEC2        1 GROUP        1 X    SEC  0     **** SEC X 2
     3 LYC4       41 GROUP        1 X    LYC  0     **** LYC X 4
     4 GLC5        9 GROUP        1 X    GLC  0     **** GLC X 6
     5 ALP1        6 GROUP        1 Y    ALP  0     ROOT ALP Y 8
     6 SEP2        3 GROUP        1 Y    SEP  0     **** SEP Y 9
     7 LYP4       43 GROUP        1 Y    LYP  0     **** LYP Y 11
     8 GLP5       11 GROUP        1 Y    GLP  0     **** GLP Y 13
     9 ALL1        5 GROUP        1 Z    ALL  0     ROOT ALL Z 15
    10 SEL2        2 GROUP        1 Z    SEL  0     **** SEL Z 16
    11 LYL4       42 GROUP        1 Z    LYL  0     **** LYL Z 18
    12 GLL5       10 GROUP        1 Z    GLL  0     **** GLL Z 20
@<TRIPOS>SET

