#    Name: 2xaa_NAD_3_ligand
#    Modification time : Tue Mar 25 05:39:23 2014

@<TRIPOS>MOLECULE
2xaa_NAD_3_ligand
   70    74     1     0     0
SMALL
NO_CHARGES


@<TRIPOS>ATOM
      1 PA         36.2030   23.0500   25.2310 P.3       1 NAD503      0.0000 
      2 O1A        36.6520   24.4370   25.0310 O.co2     1 NAD503      0.0000 
      3 O2A        36.7960   22.4470   26.4310 O.co2     1 NAD503      0.0000 
      4 O5B        36.5780   22.1380   23.9790 O.3       1 NAD503      0.0000 
      5 C5B        36.7190   22.6910   22.7040 C.3       1 NAD503      0.0000 
      6 C4B        37.2150   21.5600   21.8270 C.3       1 NAD503      0.0000 
      7 O4B        36.4040   21.5410   20.6780 O.3       1 NAD503      0.0000 
      8 C3B        38.6610   21.8330   21.3980 C.3       1 NAD503      0.0000 
      9 O3B        39.4690   20.6740   21.4770 O.3       1 NAD503      0.0000 
     10 C2B        38.5270   22.3000   19.9650 C.3       1 NAD503      0.0000 
     11 O2B        39.6080   21.9190   19.1660 O.3       1 NAD503      0.0000 
     12 C1B        37.2630   21.5830   19.5450 C.3       1 NAD503      0.0000 
     13 N9A        36.6670   22.2700   18.3890 N.pl3     1 NAD503      0.0000 
     14 C8A        36.3010   23.5980   18.2450 C.2       1 NAD503      0.0000 
     15 N7A        35.7910   23.6960   16.9820 N.2       1 NAD503      0.0000 
     16 C5A        35.8500   22.4890   16.3370 C.ar      1 NAD503      0.0000 
     17 C6A        35.4850   22.0310   15.0770 C.ar      1 NAD503      0.0000 
     18 N6A        35.0220   22.8380   14.1230 N.pl3     1 NAD503      0.0000 
     19 N1A        35.6700   20.7150   14.7550 N.ar      1 NAD503      0.0000 
     20 C2A        36.2090   19.8320   15.6580 C.ar      1 NAD503      0.0000 
     21 N3A        36.5750   20.2900   16.9050 N.ar      1 NAD503      0.0000 
     22 C4A        36.3940   21.5930   17.2260 C.ar      1 NAD503      0.0000 
     23 O3         34.5960   22.9480   25.2130 O.3       1 NAD503      0.0000 
     24 PN         33.7220   22.1040   26.2580 P.3       1 NAD503      0.0000 
     25 O1N        33.7740   22.8050   27.5680 O.co2     1 NAD503      0.0000 
     26 O2N        34.0050   20.6550   26.1410 O.co2     1 NAD503      0.0000 
     27 O5D        32.3240   22.4600   25.5740 O.3       1 NAD503      0.0000 
     28 C5D        31.9020   21.8060   24.3950 C.3       1 NAD503      0.0000 
     29 C4D        30.5480   22.4000   24.0070 C.3       1 NAD503      0.0000 
     30 O4D        29.4960   21.8060   24.7290 O.3       1 NAD503      0.0000 
     31 C3D        30.4600   23.8750   24.3470 C.3       1 NAD503      0.0000 
     32 O3D        29.6910   24.4230   23.3160 O.3       1 NAD503      0.0000 
     33 C2D        29.7260   23.9540   25.6740 C.3       1 NAD503      0.0000 
     34 O2D        29.0940   25.2160   25.8000 O.3       1 NAD503      0.0000 
     35 C1D        28.7740   22.7760   25.4940 C.3       1 NAD503      0.0000 
     36 N1N        28.2020   22.1050   26.6910 N.pl3     1 NAD503      0.0000 
     37 C2N        26.9630   21.5860   26.5130 C.ar      1 NAD503      0.0000 
     38 C3N        26.3070   20.8900   27.5210 C.ar      1 NAD503      0.0000 
     39 C7N        24.9060   20.4490   27.2170 C.2       1 NAD503      0.0000 
     40 O7N        23.9180   20.4570   28.1930 O.2       1 NAD503      0.0000 
     41 N7N        24.5920   20.0580   25.9810 N.am      1 NAD503      0.0000 
     42 C4N        26.9290   20.7050   28.7560 C.ar      1 NAD503      0.0000 
     43 C5N        28.2150   21.2200   28.9530 C.ar      1 NAD503      0.0000 
     44 C6N        28.8420   21.9120   27.9050 C.ar      1 NAD503      0.0000 
     45 H          37.4542   23.4873   22.6703 H         1 NAD503      0.0000 
     46 H          35.7800   23.0453   22.2935 H         1 NAD503      0.0000 
     47 H          37.1782   20.6522   22.3690 H         1 NAD503      0.0000 
     48 H          39.0235   22.6516   21.9794 H         1 NAD503      0.0000 
     49 H          38.3184   23.3411   19.9754 H         1 NAD503      0.0000 
     50 H          37.5584   20.5735   19.2547 H         1 NAD503      0.0000 
     51 H          36.3893   24.2751   18.8845 H         1 NAD503      0.0000 
     52 H          34.7780   22.4011   13.2572 H         1 NAD503      0.0000 
     53 H          34.9602   23.8078   14.3588 H         1 NAD503      0.0000 
     54 H          36.3384   18.8442   15.4097 H         1 NAD503      0.0000 
     55 H          31.7651   20.7364   24.5397 H         1 NAD503      0.0000 
     56 H          32.5848   21.9673   23.5635 H         1 NAD503      0.0000 
     57 H          30.4032   22.2953   22.9477 H         1 NAD503      0.0000 
     58 H          31.4186   24.2638   24.4304 H         1 NAD503      0.0000 
     59 H          30.4169   23.7123   26.4319 H         1 NAD503      0.0000 
     60 H          27.9380   23.1336   24.8516 H         1 NAD503      0.0000 
     61 H          26.4732   21.7049   25.5946 H         1 NAD503      0.0000 
     62 H          23.6353   19.8109   25.8274 H         1 NAD503      0.0000 
     63 H          25.3416   20.0472   25.3192 H         1 NAD503      0.0000 
     64 H          26.4550   20.2021   29.5054 H         1 NAD503      0.0000 
     65 H          28.6917   21.0955   29.8445 H         1 NAD503      0.0000 
     66 H          29.7978   22.2811   28.0489 H         1 NAD503      0.0000 
     67 H          39.3202   20.1955   20.6116 H         1 NAD503      0.0000 
     68 H          39.5935   20.9191   19.1708 H         1 NAD503      0.0000 
     69 H          30.3297   24.5525   22.5576 H         1 NAD503      0.0000 
     70 H          28.7727   25.4375   24.8793 H         1 NAD503      0.0000 
@<TRIPOS>BOND
     1    2    1 ar   
     2    3    1 ar   
     3    4    1 1    
     4   23    1 1    
     5    5    4 1    
     6    6    5 1    
     7   45    5 1    
     8   46    5 1    
     9    7    6 1    
    10    8    6 1    
    11   47    6 1    
    12   12    7 1    
    13    9    8 1    
    14   10    8 1    
    15   48    8 1    
    16   67    9 1    
    17   11   10 1    
    18   12   10 1    
    19   49   10 1    
    20   68   11 1    
    21   13   12 1    
    22   50   12 1    
    23   14   13 1    
    24   22   13 1    
    25   15   14 2    
    26   51   14 1    
    27   16   15 1    
    28   17   16 ar   
    29   22   16 ar   
    30   18   17 1    
    31   19   17 ar   
    32   52   18 1    
    33   53   18 1    
    34   20   19 ar   
    35   21   20 ar   
    36   54   20 1    
    37   22   21 ar   
    38   24   23 1    
    39   25   24 ar   
    40   26   24 ar   
    41   27   24 1    
    42   28   27 1    
    43   29   28 1    
    44   55   28 1    
    45   56   28 1    
    46   30   29 1    
    47   31   29 1    
    48   57   29 1    
    49   35   30 1    
    50   32   31 1    
    51   33   31 1    
    52   58   31 1    
    53   69   32 1    
    54   34   33 1    
    55   35   33 1    
    56   59   33 1    
    57   70   34 1    
    58   36   35 1    
    59   60   35 1    
    60   37   36 ar   
    61   44   36 ar   
    62   38   37 ar   
    63   61   37 1    
    64   39   38 1    
    65   42   38 ar   
    66   40   39 2    
    67   41   39 am   
    68   62   41 1    
    69   63   41 1    
    70   43   42 ar   
    71   64   42 1    
    72   44   43 ar   
    73   65   43 1    
    74   66   44 1    
@<TRIPOS>SUBSTRUCTURE
     1 NAD503      1 GROUP   
@<TRIPOS>SET

