#    Name: 3q9z_TXQ_1_INTS_M
#    Modification time : Tue Mar 25 09:14:07 2014

@<TRIPOS>MOLECULE
3q9z_TXQ_1_INTS_M
   54     0     9     0     0
SMALL
NO_CHARGES


@<TRIPOS>ATOM
      1 CA         -7.8085   46.7360   25.2600 C.3       3 GLC5        0.0000 
      2 CA         -5.9750   46.2990   26.4750 C.3       9 GLL5        0.0000 
      3 CA         -9.6420   47.1730   24.0450 C.3       6 GLP5        0.0000 
      4 CA         -5.8980   44.6675   28.6645 C.3       3 GLC5        0.0000 
      5 CA         -6.4190   46.4950   28.8710 C.3       9 GLL5        0.0000 
      6 CA         -5.3770   42.8400   28.4580 C.3       6 GLP5        0.0000 
      7 CA         -5.5745   49.4530   29.9285 C.3       3 GLC5        0.0000 
      8 CA         -5.3990   47.4530   28.9760 C.3       9 GLL5        0.0000 
      9 CA         -5.7500   51.4530   30.8810 C.3       6 GLP5        0.0000 
     10 N          -2.1655   48.2890   28.2050 N.am      1 SEC2        0.0000 
     11 N          -3.6670   48.7310   27.8920 N.am      7 SEL2        0.0000 
     12 N          -0.6640   47.8470   28.5180 N.am      4 SEP2        0.0000 
     13 CA         -5.1650   44.4570   25.3240 C.3       3 GLC5        0.0000 
     14 CA         -5.5090   46.1260   23.9250 C.3       9 GLL5        0.0000 
     15 CA         -4.8210   42.7880   26.7230 C.3       6 GLP5        0.0000 
     16 CA         -5.2480   49.0210   24.6685 C.3       3 GLC5        0.0000 
     17 CA         -4.5100   47.0990   24.0890 C.3       9 GLL5        0.0000 
     18 CA         -5.9860   50.9430   25.2480 C.3       6 GLP5        0.0000 
     19 CA         -7.4905   45.2925   21.2870 C.3       3 GLC5        0.0000 
     20 CA         -5.8160   45.5900   22.6460 C.3       9 GLL5        0.0000 
     21 CA         -9.1650   44.9950   19.9280 C.3       6 GLP5        0.0000 
     22 CA         -4.4140   48.7960   21.2690 C.3       3 GLC5        0.0000 
     23 CA         -4.0240   46.9740   21.7670 C.3       9 GLL5        0.0000 
     24 CA         -4.8040   50.6180   20.7710 C.3       6 GLP5        0.0000 
     25 CA         -3.0760   45.3955   22.3355 C.3       3 GLC5        0.0000 
     26 CA         -2.1280   43.8170   22.9040 C.3       6 GLP5        0.0000 
     27 CA         -2.0355   46.9660   21.3710 C.3       3 GLC5        0.0000 
     28 CA         -0.0470   46.9580   20.9750 C.3       6 GLP5        0.0000 
     29 N          -2.8585   48.6585   20.4940 N.am      1 SEC2        0.0000 
     30 N          -3.2320   47.4430   20.7790 N.am      7 SEL2        0.0000 
     31 N          -2.4850   49.8740   20.2090 N.am      4 SEP2        0.0000 
     32 N          -1.9940   46.5615   21.0050 N.am      1 SEC2        0.0000 
     33 N          -0.7560   45.6800   21.2310 N.am      4 SEP2        0.0000 
     34 NZ         -2.6180   49.1625   21.7010 N.4       2 LYC4        0.0000 
     35 NZ         -2.7510   48.4510   23.1930 N.4       8 LYL4        0.0000 
     36 NZ         -2.4850   49.8740   20.2090 N.4       5 LYP4        0.0000 
     37 N          -2.6180   49.1625   21.7010 N.am      1 SEC2        0.0000 
     38 N          -2.7510   48.4510   23.1930 N.am      7 SEL2        0.0000 
     39 CA         -6.6565   48.1628   26.2928 C.3       3 GLC5        0.0000 
     40 CA         -4.9730   47.2380   26.6080 C.3       9 GLL5        0.0000 
     41 CA         -7.8390   49.5570   26.0440 C.3       6 GLP5        0.0000 
     42 CA         -5.1475   44.7782   26.6322 C.3       3 GLC5        0.0000 
     43 CA         -3.8260   45.8207   25.9093 C.3       3 GLC5        0.0000 
     44 CA         -2.1780   44.8730   25.2770 C.3       6 GLP5        0.0000 
     45 CA         -7.6230   47.9665   29.4757 C.3       3 GLC5        0.0000 
     46 CA         -9.3370   48.9590   30.0280 C.3       6 GLP5        0.0000 
     47 CA         -6.8740   48.2655   27.4838 C.3       3 GLC5        0.0000 
     48 CA         -7.6522   46.5155   23.6653 C.3       3 GLC5        0.0000 
     49 CA         -3.5938   45.7428   24.6420 C.3       3 GLC5        0.0000 
     50 CA         -5.7045   44.0695   21.2165 C.3       3 GLC5        0.0000 
     51 CA         -5.9850   42.3450   20.3390 C.3       6 GLP5        0.0000 
     52 CA         -4.3935   44.3430   22.5870 C.3       3 GLC5        0.0000 
     53 CA         -5.0320   45.9980   21.5420 C.3       9 GLL5        0.0000 
     54 CA         -3.3630   42.8920   23.0800 C.3       6 GLP5        0.0000 
@<TRIPOS>BOND
@<TRIPOS>SUBSTRUCTURE
     1 SEC2       10 GROUP        1 X    SEC  0     ROOT SEC X 2
     2 LYC4       34 GROUP        1 X    LYC  0     **** LYC X 4
     3 GLC5        1 GROUP        1 X    GLC  0     **** GLC X 6
     4 SEP2       12 GROUP        1 Y    SEP  0     ROOT SEP Y 9
     5 LYP4       36 GROUP        1 Y    LYP  0     **** LYP Y 11
     6 GLP5        3 GROUP        1 Y    GLP  0     **** GLP Y 13
     7 SEL2       11 GROUP        1 Z    SEL  0     ROOT SEL Z 16
     8 LYL4       35 GROUP        1 Z    LYL  0     **** LYL Z 18
     9 GLL5        2 GROUP        1 Z    GLL  0     **** GLL Z 20
@<TRIPOS>SET

