#    Name: 3q9z_TXQ_1_ligand
#    Modification time : Tue Mar 25 09:14:07 2014

@<TRIPOS>MOLECULE
3q9z_TXQ_1_ligand
   25    27     1     0     0
SMALL
NO_CHARGES


@<TRIPOS>ATOM
      1 O18        -7.2230   44.8370   24.9900 O.2       1 TXQ340      0.0000 
      2 C9         -6.2830   45.6910   25.1320 C.2       1 TXQ340      0.0000 
      3 C8         -5.9750   46.2990   26.4750 C.ar      1 TXQ340      0.0000 
      4 C13        -6.6920   45.9390   27.6270 C.ar      1 TXQ340      0.0000 
      5 O17        -7.6990   45.0380   27.4930 O.co2     1 TXQ340      0.0000 
      6 C12        -6.4190   46.4950   28.8710 C.ar      1 TXQ340      0.0000 
      7 C11        -5.3990   47.4530   28.9760 C.ar      1 TXQ340      0.0000 
      8 C14        -4.6790   47.8070   27.8460 C.ar      1 TXQ340      0.0000 
      9 O16        -3.6670   48.7310   27.8920 O.co2     1 TXQ340      0.0000 
     10 C7         -4.9730   47.2380   26.6080 C.ar      1 TXQ340      0.0000 
     11 C10        -4.2030   47.6880   25.4350 C.2       1 TXQ340      0.0000 
     12 O19        -3.3130   48.5760   25.6030 O.2       1 TXQ340      0.0000 
     13 C2         -5.5090   46.1260   23.9250 C.ar      1 TXQ340      0.0000 
     14 C1         -4.5100   47.0990   24.0890 C.ar      1 TXQ340      0.0000 
     15 C3         -5.8160   45.5900   22.6460 C.ar      1 TXQ340      0.0000 
     16 C4         -5.0320   45.9980   21.5420 C.ar      1 TXQ340      0.0000 
     17 C5         -4.0240   46.9740   21.7670 C.ar      1 TXQ340      0.0000 
     18 O20        -3.2320   47.4430   20.7790 O.3       1 TXQ340      0.0000 
     19 C6         -3.7730   47.5320   23.0170 C.ar      1 TXQ340      0.0000 
     20 O15        -2.7510   48.4510   23.1930 O.co2     1 TXQ340      0.0000 
     21 H          -6.9467   46.2161   29.6962 H         1 TXQ340      0.0000 
     22 H          -5.1948   47.8816   29.8819 H         1 TXQ340      0.0000 
     23 H          -6.5735   44.9360   22.5311 H         1 TXQ340      0.0000 
     24 H          -5.1804   45.6121   20.6268 H         1 TXQ340      0.0000 
     25 H          -2.5221   46.7480   20.6646 H         1 TXQ340      0.0000 
@<TRIPOS>BOND
     1    2    1 2    
     2    3    2 1    
     3   13    2 1    
     4    4    3 ar   
     5   10    3 ar   
     6    5    4 ar   
     7    6    4 ar   
     8    7    6 ar   
     9   21    6 1    
    10    8    7 ar   
    11   22    7 1    
    12    9    8 ar   
    13   10    8 ar   
    14   11   10 1    
    15   12   11 2    
    16   14   11 1    
    17   14   13 ar   
    18   15   13 ar   
    19   19   14 ar   
    20   16   15 ar   
    21   23   15 1    
    22   17   16 ar   
    23   24   16 1    
    24   18   17 1    
    25   19   17 ar   
    26   25   18 1    
    27   20   19 ar   
@<TRIPOS>SUBSTRUCTURE
     1 TXQ340      1 GROUP   
@<TRIPOS>SET

