#    Name: 2E8U_1_CAVITY_N1_6.mol2
#    Modification time : Tue Mar 11 10:15:35 2014

@<TRIPOS>MOLECULE
2E8U_1_CAVITY_N1_6.mol2
  125     0     7     0     0
SMALL
NO_CHARGES


@<TRIPOS>ATOM
      1 CA        -24.9292   35.4954   65.6104 C.3       6 GLY6        0.0000 
      2 DU        -25.9619   35.3201   66.6841 H         7 CUB7        0.0000 
      3 CZ        -26.9946   35.1449   67.7578 C.ar      5 PHE5        0.0000 
      4 N         -25.6681   34.5219   64.7408 N.2       2 ALA2        0.0000 
      5 CZ        -26.7009   34.3467   65.8144 C.ar      5 PHE5        0.0000 
      6 N         -25.3744   33.7237   62.7974 N.2       2 ALA2        0.0000 
      7 CZ        -26.4071   33.5485   63.8711 C.ar      5 PHE5        0.0000 
      8 CZ        -27.4398   33.3732   64.9448 C.ar      5 PHE5        0.0000 
      9 CA        -24.0479   33.1008   59.7804 C.3       6 GLY6        0.0000 
     10 N         -25.0806   32.9255   60.8541 N.2       2 ALA2        0.0000 
     11 CZ        -26.1133   32.7503   61.9278 C.ar      5 PHE5        0.0000 
     12 O         -24.7868   32.1273   58.9107 O.2       2 ALA2        0.0000 
     13 DU        -25.8195   31.9521   59.9844 H         7 CUB7        0.0000 
     14 CZ        -26.8523   31.7768   61.0581 C.ar      5 PHE5        0.0000 
     15 O         -25.5258   31.1539   58.0411 O.2       2 ALA2        0.0000 
     16 NZ        -26.5585   30.9786   59.1147 N.2       4 LYS4        0.0000 
     17 CZ        -27.5912   30.8033   60.1884 C.ar      5 PHE5        0.0000 
     18 NZ        -26.2647   30.1804   57.1714 N.2       4 LYS4        0.0000 
     19 CA        -24.1308   34.3677   66.1943 C.3       6 GLY6        0.0000 
     20 CA        -25.1635   34.1925   67.2680 C.3       6 GLY6        0.0000 
     21 O         -26.1962   34.0172   68.3416 O.2       2 ALA2        0.0000 
     22 CA        -24.8697   33.3943   65.3246 C.3       6 GLY6        0.0000 
     23 CZ        -25.9025   33.2190   66.3983 C.ar      5 PHE5        0.0000 
     24 N         -24.5760   32.5961   63.3813 N.2       2 ALA2        0.0000 
     25 DU        -25.6087   32.4208   64.4550 H         7 CUB7        0.0000 
     26 CZ        -26.6414   32.2455   65.5286 C.ar      5 PHE5        0.0000 
     27 CA        -24.2822   31.7979   61.4380 C.3       6 GLY6        0.0000 
     28 DU        -25.3149   31.6226   62.5116 H         7 CUB7        0.0000 
     29 CZ        -26.3476   31.4473   63.5853 C.ar      5 PHE5        0.0000 
     30 CZ        -27.3804   31.2721   64.6590 C.ar      5 PHE5        0.0000 
     31 CA        -23.9884   30.9997   59.4946 C.3       6 GLY6        0.0000 
     32 DU        -25.0211   30.8244   60.5683 H         7 CUB7        0.0000 
     33 DU        -26.0539   30.6491   61.6420 H         7 CUB7        0.0000 
     34 CZ        -27.0866   30.4739   62.7156 C.ar      5 PHE5        0.0000 
     35 O         -24.7274   30.0262   58.6249 O.2       2 ALA2        0.0000 
     36 NZ        -25.7601   29.8509   59.6986 N.2       4 LYS4        0.0000 
     37 N         -26.7928   29.6757   60.7723 N.2       2 ALA2        0.0000 
     38 N         -27.8255   29.5004   61.8460 N.2       2 ALA2        0.0000 
     39 O         -24.4336   29.2280   56.6816 O.2       2 ALA2        0.0000 
     40 NZ        -25.4663   29.0527   57.7553 N.2       4 LYS4        0.0000 
     41 CA        -23.0386   32.4419   64.8348 C.3       6 GLY6        0.0000 
     42 CA        -24.0713   32.2666   65.9085 C.3       6 GLY6        0.0000 
     43 CA        -25.1041   32.0913   66.9822 C.3       6 GLY6        0.0000 
     44 CA        -22.7448   31.6437   62.8915 C.3       6 GLY6        0.0000 
     45 CA        -23.7776   31.4684   63.9652 C.3       6 GLY6        0.0000 
     46 DU        -24.8103   31.2931   65.0388 H         7 CUB7        0.0000 
     47 N         -25.8430   31.1179   66.1125 N.2       2 ALA2        0.0000 
     48 CA        -23.4838   30.6702   62.0218 C.3       6 GLY6        0.0000 
     49 DU        -24.5165   30.4949   63.0955 H         7 CUB7        0.0000 
     50 CA        -25.5492   30.3197   64.1692 C.3       6 GLY6        0.0000 
     51 O         -22.1573   30.0473   59.0048 O.2       2 ALA2        0.0000 
     52 CA        -23.1900   29.8720   60.0785 C.3       6 GLY6        0.0000 
     53 DU        -24.2227   29.6967   61.1522 H         7 CUB7        0.0000 
     54 N         -25.2555   29.5215   62.2258 N.2       2 ALA2        0.0000 
     55 CA        -26.2882   29.3462   63.2995 C.3       6 GLY6        0.0000 
     56 O         -22.8962   29.0738   58.1351 O.2       2 ALA2        0.0000 
     57 NZ        -23.9290   28.8985   59.2088 N.2       4 LYS4        0.0000 
     58 N         -24.9617   28.7233   60.2825 N.2       2 ALA2        0.0000 
     59 N         -25.9944   28.5480   61.3562 N.2       2 ALA2        0.0000 
     60 NZ        -24.6679   27.9251   58.3392 N.2       4 LYS4        0.0000 
     61 NZ        -25.7006   27.7498   59.4128 N.2       4 LYS4        0.0000 
     62 CA        -22.2402   31.3142   65.4187 C.3       6 GLY6        0.0000 
     63 CA        -23.2729   31.1389   66.4924 C.3       6 GLY6        0.0000 
     64 OG        -20.9137   30.6913   62.4017 O.2       1 SER1        0.0000 
     65 OG        -21.9464   30.5160   63.4754 O.2       1 SER1        0.0000 
     66 DU        -22.9792   30.3407   64.5490 H         7 CUB7        0.0000 
     67 N         -24.0119   30.1655   65.6227 N.2       2 ALA2        0.0000 
     68 CA        -21.6527   29.7178   61.5320 C.3       6 GLY6        0.0000 
     69 DU        -22.6854   29.5425   62.6057 H         7 CUB7        0.0000 
     70 DU        -23.7181   29.3673   63.6794 H         7 CUB7        0.0000 
     71 CA        -24.7508   29.1920   64.7530 C.3       6 GLY6        0.0000 
     72 NZ        -22.3916   28.7443   60.6624 N.2       4 LYS4        0.0000 
     73 DU        -23.4243   28.5691   61.7360 H         7 CUB7        0.0000 
     74 N         -24.4571   28.3938   62.8097 N.2       2 ALA2        0.0000 
     75 OG        -25.4898   28.2185   63.8834 O.2       1 SER1        0.0000 
     76 NZ        -23.1306   27.7709   59.7927 N.2       4 LYS4        0.0000 
     77 N         -24.1633   27.5956   60.8664 N.2       2 ALA2        0.0000 
     78 OD1       -23.8695   26.7974   58.9230 O.3       3 ASP3        0.0000 
     79 N         -24.9022   26.6221   59.9967 N.2       2 ALA2        0.0000 
     80 OG        -20.1153   29.5636   62.9856 O.2       1 SER1        0.0000 
     81 OG        -21.1480   29.3883   64.0592 O.2       1 SER1        0.0000 
     82 CA        -22.1808   29.2131   65.1329 C.3       6 GLY6        0.0000 
     83 O         -20.8543   28.5901   62.1159 O.2       2 ALA2        0.0000 
     84 CA        -21.8870   28.4149   63.1896 C.3       6 GLY6        0.0000 
     85 N         -22.9197   28.2396   64.2632 N.2       2 ALA2        0.0000 
     86 N         -22.6259   27.4414   62.3199 N.2       2 ALA2        0.0000 
     87 O         -22.9827   40.0482   64.0347 O.2       2 ALA2        0.0000 
     88 OD1       -24.0154   39.8730   65.1084 O.3       3 ASP3        0.0000 
     89 O         -23.7216   39.0748   63.1650 O.2       2 ALA2        0.0000 
     90 O         -24.7543   38.8995   64.2387 O.2       2 ALA2        0.0000 
     91 OD1       -25.7871   38.7242   65.3124 O.3       3 ASP3        0.0000 
     92 O         -25.4933   37.9260   63.3690 O.2       2 ALA2        0.0000 
     93 DU        -26.5260   37.7508   64.4427 H         7 CUB7        0.0000 
     94 DU        -27.5587   37.5755   65.5164 H         7 CUB7        0.0000 
     95 CA        -28.5915   37.4002   66.5900 C.3       6 GLY6        0.0000 
     96 OG        -27.2650   36.7773   63.5730 O.2       1 SER1        0.0000 
     97 OG        -28.2977   36.6020   64.6467 O.2       1 SER1        0.0000 
     98 CZ        -29.3304   36.4268   65.7204 C.ar      5 PHE5        0.0000 
     99 O         -26.3836   34.3827   57.7430 O.2       2 ALA2        0.0000 
    100 DU        -23.7811   41.1759   63.4508 H         7 CUB7        0.0000 
    101 OD1       -24.8138   41.0006   64.5245 O.3       3 ASP3        0.0000 
    102 O         -24.5200   40.2024   62.5811 O.2       2 ALA2        0.0000 
    103 OD1       -25.5527   40.0272   63.6548 O.3       3 ASP3        0.0000 
    104 OD1       -26.5855   39.8519   64.7285 O.3       3 ASP3        0.0000 
    105 OD1       -28.3571   38.7032   64.9325 O.3       3 ASP3        0.0000 
    106 DU        -30.1288   37.5544   65.1365 H         7 CUB7        0.0000 
    107 CA        -23.3649   26.4679   61.4502 C.3       6 GLY6        0.0000 
    108 O         -22.1843   38.9205   64.6186 O.2       2 ALA2        0.0000 
    109 CA        -23.2170   38.7453   65.6922 C.3       6 GLY6        0.0000 
    110 O         -23.9559   37.7718   64.8226 O.2       2 ALA2        0.0000 
    111 DU        -24.9887   37.5965   65.8962 H         7 CUB7        0.0000 
    112 N         -25.7276   36.6231   65.0266 N.2       2 ALA2        0.0000 
    113 DU        -26.7603   36.4478   66.1002 H         7 CUB7        0.0000 
    114 N         -26.4666   35.6496   64.1569 N.2       2 ALA2        0.0000 
    115 CZ        -27.4993   35.4743   65.2306 C.ar      5 PHE5        0.0000 
    116 N         -26.1728   34.8514   62.2136 N.2       2 ALA2        0.0000 
    117 OG        -27.2055   34.6761   63.2872 O.2       1 SER1        0.0000 
    118 N         -24.8463   34.2285   59.1965 N.2       2 ALA2        0.0000 
    119 N         -25.8790   34.0532   60.2702 N.2       2 ALA2        0.0000 
    120 O         -25.5852   33.2550   58.3269 O.2       2 ALA2        0.0000 
    121 DU        -26.6179   33.0797   59.4005 H         7 CUB7        0.0000 
    122 CZ        -27.6507   32.9045   60.4742 C.ar      5 PHE5        0.0000 
    123 O         -26.3242   32.2815   57.4572 O.2       2 ALA2        0.0000 
    124 NZ        -27.3569   32.1063   58.5309 N.2       4 LYS4        0.0000 
    125 NZ        -27.0631   31.3081   56.5875 N.2       4 LYS4        0.0000 
@<TRIPOS>BOND
@<TRIPOS>SUBSTRUCTURE
     1 SER1       64 GROUP   
     2 ALA2        4 GROUP   
     3 ASP3       78 GROUP   
     4 LYS4       16 GROUP   
     5 PHE5        3 GROUP   
     6 GLY6        1 GROUP   
     7 CUB7        2 GROUP   
@<TRIPOS>SET

