#    Name: 2e8u_IPE_1_INTS_M
#    Modification time : Tue Mar 25 10:41:19 2014

@<TRIPOS>MOLECULE
2e8u_IPE_1_INTS_M
   33     0     9     0     0
SMALL
NO_CHARGES


@<TRIPOS>ATOM
      1 CA        -26.8080   30.0075   64.4145 C.3       3 GLC5        0.0000 
      2 CA        -25.7450   31.5610   63.1910 C.3       9 GLL5        0.0000 
      3 CA        -27.8710   28.4540   65.6380 C.3       6 GLP5        0.0000 
      4 CA        -27.2340   28.9980   63.7805 C.3       3 GLC5        0.0000 
      5 CA        -26.5970   29.5420   61.9230 C.3       9 GLL5        0.0000 
      6 CA        -28.3785   30.5910   62.4705 C.3       3 GLC5        0.0000 
      7 CA        -30.1600   31.6400   63.0180 C.3       6 GLP5        0.0000 
      8 N         -28.6685   34.7555   60.1885 N.am      1 SEC2        0.0000 
      9 N         -27.7740   34.5880   58.8720 N.am      7 SEL2        0.0000 
     10 N         -29.5630   34.9230   61.5050 N.am      4 SEP2        0.0000 
     11 N         -28.3780   35.1495   61.3830 N.am      1 SEC2        0.0000 
     12 N         -27.1930   35.3760   61.2610 N.am      7 SEL2        0.0000 
     13 NZ        -23.4550   37.7300   57.9400 N.4       2 LYC4        0.0000 
     14 NZ        -24.5530   36.7350   57.5300 N.4       8 LYL4        0.0000 
     15 NZ        -22.3570   38.7250   58.3500 N.4       5 LYP4        0.0000 
     16 NZ        -25.5130   37.1865   56.6205 N.4       2 LYC4        0.0000 
     17 NZ        -26.4730   37.6380   55.7110 N.4       5 LYP4        0.0000 
     18 NZ        -26.9590   37.3380   57.8140 N.4       2 LYC4        0.0000 
     19 NZ        -26.6300   37.3720   58.9300 N.4       8 LYL4        0.0000 
     20 N         -26.9590   37.3380   57.8140 N.am      1 SEC2        0.0000 
     21 N         -26.6300   37.3720   58.9300 N.am      7 SEL2        0.0000 
     22 N         -27.2880   37.3040   56.6980 N.am      4 SEP2        0.0000 
     23 NZ        -23.3245   38.1120   59.1570 N.4       2 LYC4        0.0000 
     24 NZ        -24.2920   37.4990   59.9640 N.4       8 LYL4        0.0000 
     25 N         -23.3245   38.1120   59.1570 N.am      1 SEC2        0.0000 
     26 N         -24.2920   37.4990   59.9640 N.am      7 SEL2        0.0000 
     27 N         -22.3570   38.7250   58.3500 N.am      4 SEP2        0.0000 
     28 CA        -23.1620   32.1402   60.3070 C.3       3 GLC5        0.0000 
     29 CA        -25.0480   32.6220   60.5110 C.3       9 GLL5        0.0000 
     30 CA        -21.2720   32.4190   60.0230 C.3       6 GLP5        0.0000 
     31 CA        -27.6560   31.8910   62.4525 C.3       3 GLC5        0.0000 
     32 CA        -25.8210   30.6970   61.9310 C.3       9 GLL5        0.0000 
     33 CA        -29.5290   32.6530   62.3440 C.3       6 GLP5        0.0000 
@<TRIPOS>BOND
@<TRIPOS>SUBSTRUCTURE
     1 SEC2        8 GROUP        1 X    SEC  0     ROOT SEC X 2
     2 LYC4       13 GROUP        1 X    LYC  0     **** LYC X 4
     3 GLC5        1 GROUP        1 X    GLC  0     **** GLC X 6
     4 SEP2       10 GROUP        1 Y    SEP  0     ROOT SEP Y 9
     5 LYP4       15 GROUP        1 Y    LYP  0     **** LYP Y 11
     6 GLP5        3 GROUP        1 Y    GLP  0     **** GLP Y 13
     7 SEL2        9 GROUP        1 Z    SEL  0     ROOT SEL Z 16
     8 LYL4       14 GROUP        1 Z    LYL  0     **** LYL Z 18
     9 GLL5        2 GROUP        1 Z    GLL  0     **** GLL Z 20
@<TRIPOS>SET

