#    Name: 2e8u_IPE_1_ligand
#    Modification time : Tue Mar 25 10:41:19 2014

@<TRIPOS>MOLECULE
2e8u_IPE_1_ligand
   21    20     1     0     0
SMALL
NO_CHARGES


@<TRIPOS>ATOM
      1 C1        -25.0480   32.6220   60.5110 C.3       1 IPE1101     0.0000 
      2 O1        -26.3990   33.0820   60.4310 O.3       1 IPE1101     0.0000 
      3 C2        -25.0560   31.1010   60.6710 C.3       1 IPE1101     0.0000 
      4 C3        -25.8210   30.6970   61.9310 C.2       1 IPE1101     0.0000 
      5 C4        -25.7450   31.5610   63.1910 C.3       1 IPE1101     0.0000 
      6 C5        -26.5970   29.5420   61.9230 C.2       1 IPE1101     0.0000 
      7 PA        -26.7100   34.6230   60.0830 P.3       1 IPE1101     0.0000 
      8 O1A       -27.7740   34.5880   58.8720 O.co2     1 IPE1101     0.0000 
      9 O2A       -27.1930   35.3760   61.2610 O.co2     1 IPE1101     0.0000 
     10 O3A       -25.3380   35.2020   59.4590 O.3       1 IPE1101     0.0000 
     11 PB        -25.1500   36.7450   59.0260 P.3       1 IPE1101     0.0000 
     12 O1B       -24.5530   36.7350   57.5300 O.co2     1 IPE1101     0.0000 
     13 O2B       -26.6300   37.3720   58.9300 O.co2     1 IPE1101     0.0000 
     14 O3B       -24.2920   37.4990   59.9640 O.co2     1 IPE1101     0.0000 
     15 H         -24.5240   33.0458   61.3697 H         1 IPE1101     0.0000 
     16 H         -24.4829   32.8603   59.6080 H         1 IPE1101     0.0000 
     17 H         -24.0318   30.7424   60.7420 H         1 IPE1101     0.0000 
     18 H         -25.5314   30.6515   59.8023 H         1 IPE1101     0.0000 
     19 H         -24.8071   31.6450   63.5277 H         1 IPE1101     0.0000 
     20 H         -26.0815   32.4882   63.0264 H         1 IPE1101     0.0000 
     21 H         -26.2910   31.1791   63.9367 H         1 IPE1101     0.0000 
@<TRIPOS>BOND
     1    2    1 1    
     2    3    1 1    
     3   15    1 1    
     4   16    1 1    
     5    7    2 1    
     6    4    3 1    
     7   17    3 1    
     8   18    3 1    
     9    5    4 1    
    10    6    4 2    
    11   19    5 1    
    12   20    5 1    
    13   21    5 1    
    14    8    7 ar   
    15    9    7 ar   
    16   10    7 1    
    17   11   10 1    
    18   12   11 ar   
    19   13   11 ar   
    20   14   11 ar   
@<TRIPOS>SUBSTRUCTURE
     1 IPE1101     1 GROUP   
@<TRIPOS>SET

