#    Name: 2YKV_2_CAVITY_N1_6.mol2
#    Modification time : Tue Mar 11 03:58:55 2014

@<TRIPOS>MOLECULE
2YKV_2_CAVITY_N1_6.mol2
   62     0     6     0     0
SMALL
NO_CHARGES


@<TRIPOS>ATOM
      1 CZ         39.2191   88.1440   24.9757 C.ar      5 PHE5        0.0000 
      2 CA         38.5898   89.3184   24.2866 C.3       6 GLY6        0.0000 
      3 CZ         38.8435   87.2647   23.8200 C.ar      5 PHE5        0.0000 
      4 CA         38.2143   88.4391   23.1309 C.3       6 GLY6        0.0000 
      5 CZ         38.4680   86.3853   22.6642 C.ar      5 PHE5        0.0000 
      6 CZ         38.7217   84.3316   22.1976 C.ar      5 PHE5        0.0000 
      7 CA         38.0925   85.5060   21.5085 C.3       6 GLY6        0.0000 
      8 N          40.2340   79.9290   23.1091 N.2       2 ALA2        0.0000 
      9 CZ         39.6047   81.1034   22.4200 C.ar      5 PHE5        0.0000 
     10 CZ         38.9754   82.2778   21.7309 C.ar      5 PHE5        0.0000 
     11 OD1        38.3462   83.4522   21.0419 O.3       3 ASP3        0.0000 
     12 OD1        37.7169   84.6266   20.3528 O.3       3 ASP3        0.0000 
     13 CA         37.0877   85.8010   19.6637 C.3       6 GLY6        0.0000 
     14 O          39.8584   79.0497   21.9534 O.2       2 ALA2        0.0000 
     15 CA         39.2292   80.2241   21.2643 C.3       6 GLY6        0.0000 
     16 CA         38.5999   81.3985   20.5752 C.3       6 GLY6        0.0000 
     17 CZ         36.1041   83.7069   23.5234 C.ar      5 PHE5        0.0000 
     18 O          35.4748   84.8813   22.8343 O.2       2 ALA2        0.0000 
     19 O          34.8456   86.0557   22.1452 O.2       2 ALA2        0.0000 
     20 CA         37.6163   79.3044   24.4349 C.3       6 GLY6        0.0000 
     21 CA         36.9871   80.4788   23.7458 C.3       6 GLY6        0.0000 
     22 CZ         36.3578   81.6532   23.0568 C.ar      5 PHE5        0.0000 
     23 OG         35.7286   82.8276   22.3677 O.2       1 SER1        0.0000 
     24 OG         35.0993   84.0020   21.6786 O.2       1 SER1        0.0000 
     25 CA         35.9823   80.7738   21.9010 C.3       6 GLY6        0.0000 
     26 CZ         40.7816   86.4026   23.8461 C.ar      5 PHE5        0.0000 
     27 CA         40.1524   87.5770   23.1570 C.3       6 GLY6        0.0000 
     28 O          39.5231   88.7514   22.4680 O.2       2 ALA2        0.0000 
     29 CA         39.7768   86.6976   22.0013 C.3       6 GLY6        0.0000 
     30 CA         39.4013   85.8183   20.8456 C.3       6 GLY6        0.0000 
     31 NZ         41.5428   80.2414   22.4462 N.2       4 LYS4        0.0000 
     32 CA         40.9135   81.4157   21.7571 C.3       6 GLY6        0.0000 
     33 CA         40.2843   82.5901   21.0680 C.3       6 GLY6        0.0000 
     34 CA         39.6550   83.7645   20.3789 C.3       6 GLY6        0.0000 
     35 CA         41.1672   79.3620   21.2905 C.3       6 GLY6        0.0000 
     36 CA         35.4245   82.2202   24.8754 C.3       6 GLY6        0.0000 
     37 CA         34.7953   83.3946   24.1863 C.3       6 GLY6        0.0000 
     38 CA         35.6782   80.1665   24.4088 C.3       6 GLY6        0.0000 
     39 OG         35.0490   81.3409   23.7197 O.2       1 SER1        0.0000 
     40 OG         34.4197   82.5153   23.0306 O.2       1 SER1        0.0000 
     41 CA         35.3027   79.2871   23.2530 C.3       6 GLY6        0.0000 
     42 OG         34.6735   80.4615   22.5639 O.2       1 SER1        0.0000 
     43 CA         32.1776   82.7700   25.5121 C.3       6 GLY6        0.0000 
     44 CA         32.4314   80.7162   25.0455 C.3       6 GLY6        0.0000 
     45 O          31.8021   81.8906   24.3564 O.2       2 ALA2        0.0000 
     46 O          32.0558   79.8369   23.8898 O.2       2 ALA2        0.0000 
     47 O          31.4266   81.0113   23.2007 O.2       2 ALA2        0.0000 
     48 CA         33.4865   83.0823   24.8492 C.3       6 GLY6        0.0000 
     49 O          33.7402   81.0286   24.3826 O.2       2 ALA2        0.0000 
     50 O          33.1109   82.2029   23.6935 O.2       2 ALA2        0.0000 
     51 OG         33.3646   80.1492   23.2269 O.2       1 SER1        0.0000 
     52 OG         32.9891   79.2698   22.0711 O.2       1 SER1        0.0000 
     53 OG         37.1592   86.0730   23.3271 O.2       1 SER1        0.0000 
     54 CZ         36.7836   85.1936   22.1714 C.ar      5 PHE5        0.0000 
     55 CA         36.1544   86.3680   21.4823 C.3       6 GLY6        0.0000 
     56 N          38.9251   79.6167   23.7720 N.2       2 ALA2        0.0000 
     57 CZ         38.2959   80.7911   23.0829 C.ar      5 PHE5        0.0000 
     58 CZ         37.6666   81.9655   22.3939 C.ar      5 PHE5        0.0000 
     59 OD1        37.0374   83.1399   21.7048 O.3       3 ASP3        0.0000 
     60 OD1        36.4081   84.3143   21.0157 O.3       3 ASP3        0.0000 
     61 CA         35.7789   85.4887   20.3266 C.3       6 GLY6        0.0000 
     62 CA         37.9203   79.9118   21.9272 C.3       6 GLY6        0.0000 
@<TRIPOS>BOND
@<TRIPOS>SUBSTRUCTURE
     1 SER1       23 GROUP   
     2 ALA2        8 GROUP   
     3 ASP3       11 GROUP   
     4 LYS4       31 GROUP   
     5 PHE5        1 GROUP   
     6 GLY6        2 GROUP   
@<TRIPOS>SET

