#    Name: 2ykv_IK2_2_INTS_M
#    Modification time : Tue Mar 25 09:25:40 2014

@<TRIPOS>MOLECULE
2ykv_IK2_2_INTS_M
   71     0     9     0     0
SMALL
NO_CHARGES


@<TRIPOS>ATOM
      1 N          39.9745   78.0705   25.3395 N.am      1 SEC2        0.0000 
      2 N          39.1380   78.8900   24.5800 N.am      7 SEL2        0.0000 
      3 N          40.8110   77.2510   26.0990 N.am      4 SEP2        0.0000 
      4 CA         42.8440   78.4240   23.6105 C.3       3 GLC5        0.0000 
      5 CA         41.1280   78.7860   23.0060 C.3       9 GLL5        0.0000 
      6 CA         44.5600   78.0620   24.2150 C.3       6 GLP5        0.0000 
      7 CA         37.8640   83.0010   23.6165 C.3       3 GLC5        0.0000 
      8 CA         37.3520   81.9090   22.1660 C.3       9 GLL5        0.0000 
      9 CA         38.3760   84.0930   25.0670 C.3       6 GLP5        0.0000 
     10 N          35.8810   82.8820   20.4100 N.am      1 SEC2        0.0000 
     11 N          36.1240   83.7860   21.5940 N.am      7 SEL2        0.0000 
     12 N          35.6380   81.9780   19.2260 N.am      4 SEP2        0.0000 
     13 CA         35.2905   86.5305   23.0970 C.3       3 GLC5        0.0000 
     14 CA         35.4580   84.9600   22.0600 C.3       9 GLL5        0.0000 
     15 CA         35.1230   88.1010   24.1340 C.3       6 GLP5        0.0000 
     16 CA         33.6760   85.0810   23.0870 C.3       3 GLC5        0.0000 
     17 CA         31.8940   85.2020   24.1140 C.3       6 GLP5        0.0000 
     18 CA         33.4955   84.2565   21.3870 C.3       3 GLC5        0.0000 
     19 CA         31.5330   83.5530   20.7140 C.3       6 GLP5        0.0000 
     20 CA         36.9170   84.5265   23.5635 C.3       3 GLC5        0.0000 
     21 NZ         32.7935   86.8835   20.5055 N.4       2 LYC4        0.0000 
     22 NZ         33.7780   86.4280   21.3960 N.4       8 LYL4        0.0000 
     23 NZ         31.6660   86.8070   18.4080 N.4       5 LYP4        0.0000 
     24 N          33.2610   86.4100   22.7115 N.am      1 SEC2        0.0000 
     25 N          33.7780   86.4280   21.3960 N.am      7 SEL2        0.0000 
     26 N          32.7440   86.3920   24.0270 N.am      4 SEP2        0.0000 
     27 N          32.7935   86.8835   20.5055 N.am      1 SEC2        0.0000 
     28 N          31.8090   87.3390   19.6150 N.am      4 SEP2        0.0000 
     29 NZ         33.6345   85.5430   18.8780 N.4       2 LYC4        0.0000 
     30 NZ         34.6760   85.1200   19.8260 N.4       8 LYL4        0.0000 
     31 NZ         35.1570   83.5490   19.5260 N.4       2 LYC4        0.0000 
     32 NZ         35.6380   81.9780   19.2260 N.4       5 LYP4        0.0000 
     33 N          33.6345   85.5430   18.8780 N.am      1 SEC2        0.0000 
     34 N          34.6760   85.1200   19.8260 N.am      7 SEL2        0.0000 
     35 N          32.5930   85.9660   17.9300 N.am      4 SEP2        0.0000 
     36 CA         35.9840   78.3115   25.2310 C.3       3 GLC5        0.0000 
     37 CA         37.9470   79.3210   24.9960 C.3       9 GLL5        0.0000 
     38 CA         34.0210   77.3020   25.4660 C.3       6 GLP5        0.0000 
     39 CA         39.0225   79.8405   26.4330 C.3       3 GLC5        0.0000 
     40 CA         40.0980   80.3600   27.8700 C.3       6 GLP5        0.0000 
     41 CA         34.9635   79.0000   25.1995 C.3       3 GLC5        0.0000 
     42 CA         35.9060   80.6980   24.9330 C.3       9 GLL5        0.0000 
     43 CA         34.9510   80.0970   26.7710 C.3       3 GLC5        0.0000 
     44 CA         33.9960   79.4960   28.6090 C.3       6 GLP5        0.0000 
     45 CA         37.1410   82.3955   25.0000 C.3       3 GLC5        0.0000 
     46 N          33.3910   80.0220   26.4270 N.am      1 SEC2        0.0000 
     47 N          32.9720   81.1130   25.5970 N.am      7 SEL2        0.0000 
     48 N          33.8100   78.9310   27.2570 N.am      4 SEP2        0.0000 
     49 N          33.4285   81.4645   26.7510 N.am      1 SEC2        0.0000 
     50 N          33.8850   81.8160   27.9050 N.am      4 SEP2        0.0000 
     51 N          32.7255   83.1010   22.8435 N.am      1 SEC2        0.0000 
     52 N          33.6740   82.3510   23.5640 N.am      7 SEL2        0.0000 
     53 N          31.7770   83.8510   22.1230 N.am      4 SEP2        0.0000 
     54 N          33.5245   82.1550   22.1365 N.am      1 SEC2        0.0000 
     55 N          33.3750   81.9590   20.7090 N.am      4 SEP2        0.0000 
     56 N          32.5350   78.8960   24.1580 N.am      1 SEC2        0.0000 
     57 N          32.4200   80.1170   23.2810 N.am      7 SEL2        0.0000 
     58 N          32.6500   77.6750   25.0350 N.am      4 SEP2        0.0000 
     59 CA         39.1300   77.6855   22.9000 C.3       3 GLC5        0.0000 
     60 CA         39.7360   79.3440   23.4720 C.3       9 GLL5        0.0000 
     61 CA         37.8280   76.3060   22.5610 C.3       6 GLP5        0.0000 
     62 CA         37.6615   78.9690   22.4543 C.3       3 GLC5        0.0000 
     63 CA         39.0910   80.3440   22.7550 C.3       9 GLL5        0.0000 
     64 CA         36.8450   77.3390   21.9570 C.3       6 GLP5        0.0000 
     65 CA         36.8657   80.9707   20.9850 C.3       3 GLC5        0.0000 
     66 CA         37.8650   80.8540   23.1480 C.3       9 GLL5        0.0000 
     67 CA         36.1230   80.5600   19.3130 C.3       6 GLP5        0.0000 
     68 CA         37.2250   78.5790   23.3050 C.3       3 GLC5        0.0000 
     69 CA         37.2630   80.3170   24.3100 C.3       9 GLL5        0.0000 
     70 CA         36.8263   81.3323   26.3410 C.3       3 GLC5        0.0000 
     71 CA         36.8970   82.4060   27.8890 C.3       6 GLP5        0.0000 
@<TRIPOS>BOND
@<TRIPOS>SUBSTRUCTURE
     1 SEC2        1 GROUP        1 X    SEC  0     ROOT SEC X 2
     2 LYC4       21 GROUP        1 X    LYC  0     **** LYC X 4
     3 GLC5        4 GROUP        1 X    GLC  0     **** GLC X 6
     4 SEP2        3 GROUP        1 Y    SEP  0     ROOT SEP Y 9
     5 LYP4       23 GROUP        1 Y    LYP  0     **** LYP Y 11
     6 GLP5        6 GROUP        1 Y    GLP  0     **** GLP Y 13
     7 SEL2        2 GROUP        1 Z    SEL  0     ROOT SEL Z 16
     8 LYL4       22 GROUP        1 Z    LYL  0     **** LYL Z 18
     9 GLL5        5 GROUP        1 Z    GLL  0     **** GLL Z 20
@<TRIPOS>SET

