#    Name: 2ykv_IK2_2_ligand
#    Modification time : Tue Mar 25 09:25:40 2014

@<TRIPOS>MOLECULE
2ykv_IK2_2_ligand
   32    32     1     0     0
SMALL
NO_CHARGES


@<TRIPOS>ATOM
      1 N1         39.1380   78.8900   24.5800 N.ar      1 IK21447     0.0000 
      2 C2         39.7360   79.3440   23.4720 C.ar      1 IK21447     0.0000 
      3 C2A        41.1280   78.7860   23.0060 C.3       1 IK21447     0.0000 
      4 C3         39.0910   80.3440   22.7550 C.ar      1 IK21447     0.0000 
      5 O3         39.6340   80.8630   21.6400 O.3       1 IK21447     0.0000 
      6 C4         37.8650   80.8540   23.1480 C.ar      1 IK21447     0.0000 
      7 C4A        37.3520   81.9090   22.1660 C.3       1 IK21447     0.0000 
      8 N4A        36.5160   82.9110   22.7060 N.4       1 IK21447     0.0000 
      9 OX         36.1240   83.7860   21.5940 O.3       1 IK21447     0.0000 
     10 C1'        35.4580   84.9600   22.0600 C.3       1 IK21447     0.0000 
     11 C2'        34.5520   85.5480   20.9980 C.2       1 IK21447     0.0000 
     12 O1'        33.7780   86.4280   21.3960 O.co2     1 IK21447     0.0000 
     13 O2'        34.6760   85.1200   19.8260 O.co2     1 IK21447     0.0000 
     14 C5         37.2630   80.3170   24.3100 C.ar      1 IK21447     0.0000 
     15 C6         37.9470   79.3210   24.9960 C.ar      1 IK21447     0.0000 
     16 C5A        35.9060   80.6980   24.9330 C.3       1 IK21447     0.0000 
     17 O4P        34.8680   80.1620   24.0860 O.3       1 IK21447     0.0000 
     18 P          33.4160   80.8950   24.0780 P.3       1 IK21447     0.0000 
     19 O1P        32.9720   81.1130   25.5970 O.co2     1 IK21447     0.0000 
     20 O2P        33.6740   82.3510   23.5640 O.co2     1 IK21447     0.0000 
     21 O3P        32.4200   80.1170   23.2810 O.co2     1 IK21447     0.0000 
     22 H          36.8375   81.3525   21.3334 H         1 IK21447     0.0000 
     23 H          38.2582   82.3565   21.6699 H         1 IK21447     0.0000 
     24 H          36.1812   85.7408   22.3589 H         1 IK21447     0.0000 
     25 H          34.8405   84.7451   22.9514 H         1 IK21447     0.0000 
     26 H          37.4987   78.9179   25.8512 H         1 IK21447     0.0000 
     27 H          35.8594   81.7800   24.9928 H         1 IK21447     0.0000 
     28 H          35.8688   80.2775   25.9321 H         1 IK21447     0.0000 
     29 H          41.8366   78.9320   23.6963 H         1 IK21447     0.0000 
     30 H          41.0926   77.8030   22.8256 H         1 IK21447     0.0000 
     31 H          41.4424   79.2271   22.1654 H         1 IK21447     0.0000 
     32 H          40.5260   81.2134   21.9256 H         1 IK21447     0.0000 
@<TRIPOS>BOND
     1    2    1 ar   
     2   15    1 ar   
     3    3    2 1    
     4    4    2 ar   
     5   29    3 1    
     6   30    3 1    
     7   31    3 1    
     8    5    4 1    
     9    6    4 ar   
    10   32    5 1    
    11    7    6 1    
    12   14    6 ar   
    13    8    7 1    
    14   22    7 1    
    15   23    7 1    
    16    9    8 1    
    17   10    9 1    
    18   11   10 1    
    19   24   10 1    
    20   25   10 1    
    21   12   11 ar   
    22   13   11 ar   
    23   15   14 ar   
    24   16   14 1    
    25   26   15 1    
    26   17   16 1    
    27   27   16 1    
    28   28   16 1    
    29   18   17 1    
    30   19   18 ar   
    31   20   18 ar   
    32   21   18 ar   
@<TRIPOS>SUBSTRUCTURE
     1 IK21447     1 GROUP   
@<TRIPOS>SET

