#    Name: 2bu8_ADP_1_INTS_M
#    Modification time : Mon Mar 24 21:42:17 2014

@<TRIPOS>MOLECULE
2bu8_ADP_1_INTS_M
   39     0    12     0     0
SMALL
NO_CHARGES


@<TRIPOS>ATOM
      1 Zn         41.1285   34.4630   65.1670 Zn        3 ZIC7        0.0000 
      2 Zn         40.3220   33.4470   65.4570 Zn       11 ZIL7        0.0000 
      3 Zn         41.9350   35.4790   64.8770 Zn        7 ZIP7        0.0000 
      4 N          42.7665   31.2535   66.8145 N.am      2 SEC2        0.0000 
      5 N          42.1200   32.5140   66.9550 N.am     10 SEL2        0.0000 
      6 N          43.4130   29.9930   66.6740 N.am      6 SEP2        0.0000 
      7 Zn         41.0015   35.8920   65.8330 Zn        3 ZIC7        0.0000 
      8 Zn         40.0680   36.3050   66.7890 Zn       11 ZIL7        0.0000 
      9 N          39.5025   37.0195   65.4685 N.am      2 SEC2        0.0000 
     10 N          40.0680   36.3050   66.7890 N.am     10 SEL2        0.0000 
     11 N          38.9370   37.7340   64.1480 N.am      6 SEP2        0.0000 
     12 N          40.2865   37.6115   69.2040 N.am      2 SEC2        0.0000 
     13 N          39.8020   36.1890   69.3140 N.am     10 SEL2        0.0000 
     14 N          40.7710   39.0340   69.0940 N.am      6 SEP2        0.0000 
     15 CA         37.0065   36.6095   67.3525 C.3       4 GLC5        0.0000 
     16 CA         37.5310   34.5740   67.0010 C.3      12 GLL5        0.0000 
     17 CA         36.4820   38.6450   67.7040 C.3       8 GLP5        0.0000 
     18 CA         34.5375   34.3465   67.8165 C.3       4 GLC5        0.0000 
     19 CA         36.1950   33.9670   67.0190 C.3      12 GLL5        0.0000 
     20 CA         32.8800   34.7260   68.6140 C.3       8 GLP5        0.0000 
     21 CA         33.6915   34.4725   67.0035 C.3       4 GLC5        0.0000 
     22 CA         34.5030   34.2190   65.3930 C.3      12 GLL5        0.0000 
     23 CA         36.3620   36.7115   62.2670 C.3       4 GLC5        0.0000 
     24 CA         34.4530   36.5610   62.5520 C.3      12 GLL5        0.0000 
     25 CA         38.2710   36.8620   61.9820 C.3       8 GLP5        0.0000 
     26 CA         34.0260   35.3440   59.8505 C.3       4 GLC5        0.0000 
     27 CA         33.8250   36.8550   61.2680 C.3      12 GLL5        0.0000 
     28 CA         34.2270   33.8330   58.4330 C.3       8 GLP5        0.0000 
     29 CA         32.3730   38.2970   60.8270 C.3       4 GLC5        0.0000 
     30 CA         30.9210   39.7390   60.3860 C.3       8 GLP5        0.0000 
     31 O          34.0100   38.4895   59.2940 O.2       1 ALC1        0.0000 
     32 O          34.2120   37.9040   60.5440 O.2       9 ALL1        0.0000 
     33 O          33.8080   39.0750   58.0440 O.2       5 ALP1        0.0000 
     34 CA         33.3180   34.3760   59.9690 C.3       4 GLC5        0.0000 
     35 CA         32.4090   34.9190   61.5050 C.3      12 GLL5        0.0000 
     36 CA         31.1130   34.8870   62.7145 C.3       4 GLC5        0.0000 
     37 CA         29.8170   34.8550   63.9240 C.3       8 GLP5        0.0000 
     38 CA         31.8790   35.1325   63.5555 C.3       4 GLC5        0.0000 
     39 CA         33.9410   35.4100   63.1870 C.3      12 GLL5        0.0000 
@<TRIPOS>BOND
@<TRIPOS>SUBSTRUCTURE
     1 ALC1       31 GROUP        1 X    ALC  0     ROOT ALC X 1
     2 SEC2        4 GROUP        1 X    SEC  0     **** SEC X 2
     3 ZIC7        1 GROUP        1 X    ZIC  0     **** ZIC X 5
     4 GLC5       15 GROUP        1 X    GLC  0     **** GLC X 6
     5 ALP1       33 GROUP        1 Y    ALP  0     ROOT ALP Y 8
     6 SEP2        6 GROUP        1 Y    SEP  0     **** SEP Y 9
     7 ZIP7        3 GROUP        1 Y    ZIP  0     **** ZIP Y 12
     8 GLP5       17 GROUP        1 Y    GLP  0     **** GLP Y 13
     9 ALL1       32 GROUP        1 Z    ALL  0     ROOT ALL Z 15
    10 SEL2        5 GROUP        1 Z    SEL  0     **** SEL Z 16
    11 ZIL7        2 GROUP        1 Z    ZIL  0     **** ZIL Z 19
    12 GLL5       16 GROUP        1 Z    GLL  0     **** GLL Z 20
@<TRIPOS>SET

