#    Name: 2bu8_ADP_1_ligand
#    Modification time : Mon Mar 24 21:42:17 2014

@<TRIPOS>MOLECULE
2bu8_ADP_1_ligand
   39    41     1     0     0
SMALL
NO_CHARGES


@<TRIPOS>ATOM
      1 PB         40.5640   32.9160   66.8210 P.3       1 ADP1377     0.0000 
      2 O1B        39.7270   31.7220   67.1160 O.co2     1 ADP1377     0.0000 
      3 O2B        40.3220   33.4470   65.4570 O.co2     1 ADP1377     0.0000 
      4 O3B        42.1200   32.5140   66.9550 O.co2     1 ADP1377     0.0000 
      5 PA         39.6490   35.5670   67.9710 P.3       1 ADP1377     0.0000 
      6 O1A        40.0680   36.3050   66.7890 O.co2     1 ADP1377     0.0000 
      7 O2A        39.8020   36.1890   69.3140 O.co2     1 ADP1377     0.0000 
      8 O3A        40.2990   34.0720   67.9140 O.3       1 ADP1377     0.0000 
      9 O5'        38.0580   35.4320   67.9850 O.3       1 ADP1377     0.0000 
     10 C5'        37.5310   34.5740   67.0010 C.3       1 ADP1377     0.0000 
     11 C4'        36.1950   33.9670   67.0190 C.3       1 ADP1377     0.0000 
     12 O4'        35.0720   34.7710   66.5700 O.3       1 ADP1377     0.0000 
     13 C3'        36.4250   32.8910   65.9450 C.3       1 ADP1377     0.0000 
     14 O3'        36.8730   31.6730   66.5780 O.3       1 ADP1377     0.0000 
     15 C2'        35.1470   32.8220   65.1090 C.3       1 ADP1377     0.0000 
     16 O2'        34.3610   31.7480   65.5870 O.3       1 ADP1377     0.0000 
     17 C1'        34.5030   34.2190   65.3930 C.3       1 ADP1377     0.0000 
     18 N9         34.6650   35.3110   64.3670 N.pl3     1 ADP1377     0.0000 
     19 C8         35.5210   36.4010   64.3350 C.2       1 ADP1377     0.0000 
     20 N7         35.4290   37.1670   63.3050 N.2       1 ADP1377     0.0000 
     21 C5         34.4530   36.5610   62.5520 C.ar      1 ADP1377     0.0000 
     22 C6         33.8250   36.8550   61.2680 C.ar      1 ADP1377     0.0000 
     23 N6         34.2120   37.9040   60.5440 N.pl3     1 ADP1377     0.0000 
     24 N1         32.8170   36.0140   60.7740 N.ar      1 ADP1377     0.0000 
     25 C2         32.4090   34.9190   61.5050 C.ar      1 ADP1377     0.0000 
     26 N3         32.9420   34.5660   62.7190 N.ar      1 ADP1377     0.0000 
     27 C4         33.9410   35.4100   63.1870 C.ar      1 ADP1377     0.0000 
     28 H          38.2922   33.6942   66.8247 H         1 ADP1377     0.0000 
     29 H          37.6447   35.0935   65.9514 H         1 ADP1377     0.0000 
     30 H          36.0255   33.4481   67.9184 H         1 ADP1377     0.0000 
     31 H          37.2184   33.3042   65.2940 H         1 ADP1377     0.0000 
     32 H          35.4134   32.7791   64.1015 H         1 ADP1377     0.0000 
     33 H          33.4311   34.0671   65.5655 H         1 ADP1377     0.0000 
     34 H          36.1713   36.5455   65.1105 H         1 ADP1377     0.0000 
     35 H          33.7542   38.0237   59.6631 H         1 ADP1377     0.0000 
     36 H          34.9256   38.4773   60.9466 H         1 ADP1377     0.0000 
     37 H          31.6358   34.3140   61.1023 H         1 ADP1377     0.0000 
     38 H          37.8320   31.5801   66.3105 H         1 ADP1377     0.0000 
     39 H          34.9924   31.1806   66.1155 H         1 ADP1377     0.0000 
@<TRIPOS>BOND
     1    2    1 ar   
     2    3    1 ar   
     3    4    1 ar   
     4    8    1 1    
     5    6    5 ar   
     6    7    5 ar   
     7    8    5 1    
     8    9    5 1    
     9   10    9 1    
    10   11   10 1    
    11   28   10 1    
    12   29   10 1    
    13   12   11 1    
    14   13   11 1    
    15   30   11 1    
    16   17   12 1    
    17   14   13 1    
    18   15   13 1    
    19   31   13 1    
    20   38   14 1    
    21   16   15 1    
    22   17   15 1    
    23   32   15 1    
    24   39   16 1    
    25   18   17 1    
    26   33   17 1    
    27   19   18 1    
    28   27   18 1    
    29   20   19 2    
    30   34   19 1    
    31   21   20 1    
    32   22   21 ar   
    33   27   21 ar   
    34   23   22 1    
    35   24   22 ar   
    36   35   23 1    
    37   36   23 1    
    38   25   24 ar   
    39   26   25 ar   
    40   37   25 1    
    41   27   26 ar   
@<TRIPOS>SUBSTRUCTURE
     1 ADP1377     1 GROUP   
@<TRIPOS>SET

