#    Name: 3n1s_5GP_1_INTS_M
#    Modification time : Tue Mar 25 00:31:26 2014

@<TRIPOS>MOLECULE
3n1s_5GP_1_INTS_M
   42     0     9     0     0
SMALL
NO_CHARGES


@<TRIPOS>ATOM
      1 N         -24.3965    6.7850   17.5970 N.am      2 SEC2        0.0000 
      2 N         -23.5720    7.9200   17.6150 N.am      8 SEL2        0.0000 
      3 N         -25.2210    5.6500   17.5790 N.am      5 SEP2        0.0000 
      4 N         -23.3175    6.6910   16.7170 N.am      2 SEC2        0.0000 
      5 N         -23.0630    5.4620   15.8190 N.am      5 SEP2        0.0000 
      6 N         -24.6220   10.2390   20.3760 N.am      2 SEC2        0.0000 
      7 N         -23.8700    9.7920   19.2480 N.am      8 SEL2        0.0000 
      8 N         -25.3740   10.6860   21.5040 N.am      5 SEP2        0.0000 
      9 N         -23.4745   11.1630   19.2955 N.am      2 SEC2        0.0000 
     10 N         -23.0790   12.5340   19.3430 N.am      5 SEP2        0.0000 
     11 CA        -22.6935    8.5145   14.5100 C.3       3 GLC5        0.0000 
     12 CA        -23.3660   10.0560   15.5850 C.3       9 GLL5        0.0000 
     13 CA        -22.0210    6.9730   13.4350 C.3       6 GLP5        0.0000 
     14 CA        -21.7470   10.2850   16.9760 C.3       3 GLC5        0.0000 
     15 CA        -20.1280   10.5140   18.3670 C.3       6 GLP5        0.0000 
     16 CA        -21.1915   10.6120   14.3665 C.3       3 GLC5        0.0000 
     17 CA        -23.2250   11.4040   14.9100 C.3       9 GLL5        0.0000 
     18 CA        -19.1580    9.8200   13.8230 C.3       6 GLP5        0.0000 
     19 CA        -21.4815   12.3855   14.7205 C.3       3 GLC5        0.0000 
     20 CA        -19.7380   13.3670   14.5310 C.3       6 GLP5        0.0000 
     21 N         -23.8750   14.0420   14.7525 N.am      2 SEC2        0.0000 
     22 N         -24.8100   13.1970   14.9820 N.am      8 SEL2        0.0000 
     23 N         -22.9400   14.8870   14.5230 N.am      5 SEP2        0.0000 
     24 O         -25.8940   14.0660   14.7885 O.2       1 ALC1        0.0000 
     25 O         -24.8100   13.1970   14.9820 O.2       7 ALL1        0.0000 
     26 O         -26.9780   14.9350   14.5950 O.2       4 ALP1        0.0000 
     27 O         -24.5680   14.3080   12.5365 O.2       1 ALC1        0.0000 
     28 O         -25.0340   13.1370   12.3250 O.2       7 ALL1        0.0000 
     29 O         -24.1020   15.4790   12.7480 O.2       4 ALP1        0.0000 
     30 CA        -21.0345   10.9230   13.2690 C.3       3 GLC5        0.0000 
     31 CA        -22.9110   12.0260   12.7150 C.3       9 GLL5        0.0000 
     32 CA        -21.3245   12.6965   13.6230 C.3       3 GLC5        0.0000 
     33 O         -19.3300   15.9060   10.1725 O.2       1 ALC1        0.0000 
     34 O         -19.5350   14.6210    9.4940 O.2       7 ALL1        0.0000 
     35 O         -19.1250   17.1910   10.8510 O.2       4 ALP1        0.0000 
     36 N         -21.7285   14.6295   10.4245 N.am      2 SEC2        0.0000 
     37 N         -20.9850   13.1320   10.5660 N.am      8 SEL2        0.0000 
     38 N         -22.4720   16.1270   10.2830 N.am      5 SEP2        0.0000 
     39 CA        -23.9335   12.9383   10.8460 C.3       3 GLC5        0.0000 
     40 CA        -24.2020   13.8750    8.8870 C.3       6 GLP5        0.0000 
     41 CA        -22.8610   12.6795    9.4797 C.3       3 GLC5        0.0000 
     42 CA        -21.6140   11.9390   10.5890 C.3       9 GLL5        0.0000 
@<TRIPOS>BOND
@<TRIPOS>SUBSTRUCTURE
     1 ALC1       24 GROUP        1 X    ALC  0     ROOT ALC X 1
     2 SEC2        1 GROUP        1 X    SEC  0     **** SEC X 2
     3 GLC5       11 GROUP        1 X    GLC  0     **** GLC X 6
     4 ALP1       26 GROUP        1 Y    ALP  0     ROOT ALP Y 8
     5 SEP2        3 GROUP        1 Y    SEP  0     **** SEP Y 9
     6 GLP5       13 GROUP        1 Y    GLP  0     **** GLP Y 13
     7 ALL1       25 GROUP        1 Z    ALL  0     ROOT ALL Z 15
     8 SEL2        2 GROUP        1 Z    SEL  0     **** SEL Z 16
     9 GLL5       12 GROUP        1 Z    GLL  0     **** GLL Z 20
@<TRIPOS>SET

