#    Name: 3n1s_5GP_1_ligand
#    Modification time : Tue Mar 25 00:31:26 2014

@<TRIPOS>MOLECULE
3n1s_5GP_1_ligand
   36    38     1     0     0
SMALL
NO_CHARGES


@<TRIPOS>ATOM
      1 P         -24.2620    9.2120   17.9120 P.3       1 5GP201      0.0000 
      2 O1P       -25.7500    9.1680   17.6820 O.co2     1 5GP201      0.0000 
      3 O2P       -23.5720    7.9200   17.6150 O.co2     1 5GP201      0.0000 
      4 O3P       -23.8700    9.7920   19.2480 O.co2     1 5GP201      0.0000 
      5 O5'       -23.6420   10.3400   16.9550 O.3       1 5GP201      0.0000 
      6 C5'       -23.3660   10.0560   15.5850 C.3       1 5GP201      0.0000 
      7 C4'       -23.2250   11.4040   14.9100 C.3       1 5GP201      0.0000 
      8 O4'       -22.3780   11.2380   13.7740 O.3       1 5GP201      0.0000 
      9 C3'       -24.5720   11.9020   14.4090 C.3       1 5GP201      0.0000 
     10 O3'       -24.8100   13.1970   14.9820 O.3       1 5GP201      0.0000 
     11 C2'       -24.4190   11.9770   12.8950 C.3       1 5GP201      0.0000 
     12 O2'       -25.0340   13.1370   12.3250 O.3       1 5GP201      0.0000 
     13 C1'       -22.9110   12.0260   12.7150 C.3       1 5GP201      0.0000 
     14 N9        -22.4570   11.3830   11.4600 N.pl3     1 5GP201      0.0000 
     15 C8        -22.8100   10.1640   11.0240 C.2       1 5GP201      0.0000 
     16 N7        -22.1800    9.9440    9.8520 N.2       1 5GP201      0.0000 
     17 C5        -21.4260   11.0290    9.5560 C.2       1 5GP201      0.0000 
     18 C6        -20.5860   11.3670    8.4930 C.2       1 5GP201      0.0000 
     19 O6        -20.3920   10.5690    7.5300 O.2       1 5GP201      0.0000 
     20 N1        -19.9780   12.5560    8.5210 N.am      1 5GP201      0.0000 
     21 C2        -20.1660   13.4270    9.5290 C.2       1 5GP201      0.0000 
     22 N2        -19.5350   14.6210    9.4940 N.pl3     1 5GP201      0.0000 
     23 N3        -20.9850   13.1320   10.5660 N.2       1 5GP201      0.0000 
     24 C4        -21.6140   11.9390   10.5890 C.2       1 5GP201      0.0000 
     25 H         -24.1759    9.5193   15.1108 H         1 5GP201      0.0000 
     26 H         -22.4390    9.5134   15.4619 H         1 5GP201      0.0000 
     27 H         -22.8241   12.1070   15.5975 H         1 5GP201      0.0000 
     28 H         -25.3067   11.1909   14.6539 H         1 5GP201      0.0000 
     29 H         -24.7655   11.0598   12.4795 H         1 5GP201      0.0000 
     30 H         -22.5753   13.0237   12.7777 H         1 5GP201      0.0000 
     31 H         -23.4078    9.5510   11.4671 H         1 5GP201      0.0000 
     32 H         -19.3292   12.8244    7.7298 H         1 5GP201      0.0000 
     33 H         -19.7331   15.2457   10.2494 H         1 5GP201      0.0000 
     34 H         -18.9259   14.7741    8.7158 H         1 5GP201      0.0000 
     35 H         -25.6805   13.4966   14.5916 H         1 5GP201      0.0000 
     36 H         -24.4619   13.9032   12.6175 H         1 5GP201      0.0000 
@<TRIPOS>BOND
     1    2    1 ar   
     2    3    1 ar   
     3    4    1 ar   
     4    5    1 1    
     5    6    5 1    
     6    7    6 1    
     7   25    6 1    
     8   26    6 1    
     9    8    7 1    
    10    9    7 1    
    11   27    7 1    
    12   13    8 1    
    13   10    9 1    
    14   11    9 1    
    15   28    9 1    
    16   35   10 1    
    17   12   11 1    
    18   13   11 1    
    19   29   11 1    
    20   36   12 1    
    21   14   13 1    
    22   30   13 1    
    23   15   14 1    
    24   24   14 1    
    25   16   15 2    
    26   31   15 1    
    27   17   16 1    
    28   18   17 1    
    29   24   17 2    
    30   19   18 2    
    31   20   18 am   
    32   21   20 1    
    33   32   20 1    
    34   22   21 1    
    35   23   21 2    
    36   33   22 1    
    37   34   22 1    
    38   24   23 1    
@<TRIPOS>SUBSTRUCTURE
     1 5GP201      1 GROUP   
@<TRIPOS>SET

