#    Name: 3plr_NAI_2_INTS_M
#    Modification time : Tue Mar 25 08:09:48 2014

@<TRIPOS>MOLECULE
3plr_NAI_2_INTS_M
   86     0     9     0     0
SMALL
NO_CHARGES


@<TRIPOS>ATOM
      1 CA         36.9250   19.1200   67.9740 C.3       3 GLC5        0.0000 
      2 CA         36.5720   17.3320   68.0590 C.3       9 GLL5        0.0000 
      3 CA         37.2780   20.9080   67.8890 C.3       6 GLP5        0.0000 
      4 CA         38.4890   15.8375   69.8075 C.3       3 GLC5        0.0000 
      5 CA         36.8670   16.8120   69.4860 C.3       9 GLL5        0.0000 
      6 CA         40.1110   14.8630   70.1290 C.3       6 GLP5        0.0000 
      7 CA         37.7935   18.6305   68.8785 C.3       3 GLC5        0.0000 
      8 CA         38.7200   20.4490   68.2710 C.3       6 GLP5        0.0000 
      9 CA         34.0390   16.4760   71.6620 C.3       3 GLC5        0.0000 
     10 CA         35.6820   17.0920   70.4390 C.3       9 GLL5        0.0000 
     11 CA         32.3960   15.8600   72.8850 C.3       6 GLP5        0.0000 
     12 O          35.8645   15.9455   72.6925 O.2       1 ALC1        0.0000 
     13 O          35.2400   15.8830   71.0810 O.2       7 ALL1        0.0000 
     14 O          36.4890   16.0080   74.3040 O.2       4 ALP1        0.0000 
     15 O          36.2115   15.3635   71.8155 O.2       1 ALC1        0.0000 
     16 O          37.1830   14.8440   72.5500 O.2       4 ALP1        0.0000 
     17 O          36.0765   17.0565   73.5130 O.2       1 ALC1        0.0000 
     18 O          35.6640   18.1050   72.7220 O.2       7 ALL1        0.0000 
     19 CA         38.9120   16.3070   70.7725 C.3       3 GLC5        0.0000 
     20 CA         37.7130   17.7510   71.4160 C.3       9 GLL5        0.0000 
     21 CA         37.7030   18.5065   73.5150 C.3       3 GLC5        0.0000 
     22 CA         37.6930   19.2620   75.6140 C.3       6 GLP5        0.0000 
     23 CA         38.2165   19.1000   69.8435 C.3       3 GLC5        0.0000 
     24 CA         43.8095   19.2580   72.3025 C.3       3 GLC5        0.0000 
     25 CA         41.7870   19.5640   73.1620 C.3       9 GLL5        0.0000 
     26 CA         45.8320   18.9520   71.4430 C.3       6 GLP5        0.0000 
     27 CA         40.8530   16.0270   71.7005 C.3       3 GLC5        0.0000 
     28 CA         41.5950   17.1910   73.2720 C.3       9 GLL5        0.0000 
     29 CA         40.3815   15.8175   74.1700 C.3       3 GLC5        0.0000 
     30 CA         39.1680   14.4440   75.0680 C.3       6 GLP5        0.0000 
     31 CA         40.8395   18.2020   74.8200 C.3       3 GLC5        0.0000 
     32 CA         40.0840   19.2130   76.3680 C.3       6 GLP5        0.0000 
     33 CA         41.9425   17.7795   71.4880 C.3       3 GLC5        0.0000 
     34 CA         42.2900   18.3680   69.7040 C.3       6 GLP5        0.0000 
     35 CA         39.9635   16.6500   71.2535 C.3       3 GLC5        0.0000 
     36 CA         39.8160   18.4370   72.3780 C.3       9 GLL5        0.0000 
     37 CA         38.7545   18.8495   73.9960 C.3       3 GLC5        0.0000 
     38 N          36.8020   13.9840   63.6815 N.am      2 SEC2        0.0000 
     39 N          36.5800   15.3830   64.1470 N.am      8 SEL2        0.0000 
     40 N          37.0240   12.5850   63.2160 N.am      5 SEP2        0.0000 
     41 CA         38.5980   19.5620   64.9530 C.3       3 GLC5        0.0000 
     42 CA         38.4870   17.6770   63.8410 C.3       9 GLL5        0.0000 
     43 CA         38.7090   21.4470   66.0650 C.3       6 GLP5        0.0000 
     44 CA         38.9640   20.5605   64.1960 C.3       3 GLC5        0.0000 
     45 CA         39.2190   19.6740   62.3270 C.3       9 GLL5        0.0000 
     46 N          41.4880   20.2060   61.0450 N.am      2 SEC2        0.0000 
     47 N          40.4530   20.3810   62.0450 N.am      8 SEL2        0.0000 
     48 N          42.5230   20.0310   60.0450 N.am      5 SEP2        0.0000 
     49 O          40.6910   21.7310   61.9755 O.2       1 ALC1        0.0000 
     50 O          40.4530   20.3810   62.0450 O.2       7 ALL1        0.0000 
     51 O          40.9290   23.0810   61.9060 O.2       4 ALP1        0.0000 
     52 N          39.5715   21.2140   59.6600 N.am      2 SEC2        0.0000 
     53 N          38.4850   20.4590   60.1420 N.am      8 SEL2        0.0000 
     54 N          40.6580   21.9690   59.1780 N.am      5 SEP2        0.0000 
     55 CA         38.8325   16.2365   60.8275 C.3       3 GLC5        0.0000 
     56 CA         39.2870   18.2050   60.4800 C.3       9 GLL5        0.0000 
     57 CA         38.3780   14.2680   61.1750 C.3       6 GLP5        0.0000 
     58 CA         41.1800   18.3030   61.1280 C.3       3 GLC5        0.0000 
     59 CA         43.0730   18.4010   61.7760 C.3       6 GLP5        0.0000 
     60 O          33.0865   16.6175   60.2270 O.2       1 ALC1        0.0000 
     61 O          34.4750   16.3450   60.0350 O.2       7 ALL1        0.0000 
     62 O          31.6980   16.8900   60.4190 O.2       4 ALP1        0.0000 
     63 CA         40.0970   18.5375   57.9435 C.3       3 GLC5        0.0000 
     64 CA         39.3110   16.7750   58.4340 C.3       9 GLL5        0.0000 
     65 CA         40.8830   20.3000   57.4530 C.3       6 GLP5        0.0000 
     66 CA         40.5265   15.2640   58.0770 C.3       3 GLC5        0.0000 
     67 CA         41.7420   13.7530   57.7200 C.3       6 GLP5        0.0000 
     68 CA         35.9817   15.2945   67.9808 C.3       3 GLC5        0.0000 
     69 CA         35.2440   13.5170   67.1890 C.3       6 GLP5        0.0000 
     70 CA         40.6123   19.4090   74.6200 C.3       3 GLC5        0.0000 
     71 CA         40.4940   19.6460   72.5820 C.3       9 GLL5        0.0000 
     72 CA         41.3841   18.6945   71.1645 C.3       3 GLC5        0.0000 
     73 CA         38.7013   16.1172   62.2637 C.3       3 GLC5        0.0000 
     74 CA         41.2317   18.6830   62.1857 C.3       3 GLC5        0.0000 
     75 CA         39.5620   18.2560   62.8640 C.3       9 GLL5        0.0000 
     76 CA         39.8775   19.5415   59.1022 C.3       3 GLC5        0.0000 
     77 CA         37.6153   15.5452   60.1550 C.3       3 GLC5        0.0000 
     78 CA         37.1880   17.1950   59.5840 C.3       9 GLL5        0.0000 
     79 CA         36.3590   14.2218   58.1325 C.3       3 GLC5        0.0000 
     80 CA         36.5170   16.4500   58.6860 C.3       9 GLL5        0.0000 
     81 CA         35.8460   12.3310   58.1640 C.3       6 GLP5        0.0000 
     82 CA         39.2272   14.4360   57.7523 C.3       3 GLC5        0.0000 
     83 CA         38.7340   16.0310   57.5110 C.3       9 GLL5        0.0000 
     84 CA         40.4740   12.9690   57.9910 C.3       6 GLP5        0.0000 
     85 CA         38.5119   15.3035   59.5744 C.3       3 GLC5        0.0000 
     86 CA         37.2270   15.7750   57.5160 C.3       9 GLL5        0.0000 
@<TRIPOS>BOND
@<TRIPOS>SUBSTRUCTURE
     1 ALC1       12 GROUP        1 X    ALC  0     ROOT ALC X 1
     2 SEC2       38 GROUP        1 X    SEC  0     **** SEC X 2
     3 GLC5        1 GROUP        1 X    GLC  0     **** GLC X 6
     4 ALP1       14 GROUP        1 Y    ALP  0     ROOT ALP Y 8
     5 SEP2       40 GROUP        1 Y    SEP  0     **** SEP Y 9
     6 GLP5        3 GROUP        1 Y    GLP  0     **** GLP Y 13
     7 ALL1       13 GROUP        1 Z    ALL  0     ROOT ALL Z 15
     8 SEL2       39 GROUP        1 Z    SEL  0     **** SEL Z 16
     9 GLL5        2 GROUP        1 Z    GLL  0     **** GLL Z 20
@<TRIPOS>SET

