#    Name: 3plr_NAI_2_ligand
#    Modification time : Tue Mar 25 08:09:48 2014

@<TRIPOS>MOLECULE
3plr_NAI_2_ligand
   71    75     1     0     0
SMALL
NO_CHARGES


@<TRIPOS>ATOM
      1 PA         34.7890   17.2340   66.2990 P.3       1 NAI900      0.0000 
      2 O1A        34.2980   18.5530   66.7060 O.co2     1 NAI900      0.0000 
      3 O2A        33.6790   16.2110   65.7330 O.co2     1 NAI900      0.0000 
      4 O5B        35.5580   16.4930   67.5330 O.3       1 NAI900      0.0000 
      5 C5B        36.5720   17.3320   68.0590 C.3       1 NAI900      0.0000 
      6 C4B        36.8670   16.8120   69.4860 C.3       1 NAI900      0.0000 
      7 O4B        38.0000   17.5000   70.0130 O.3       1 NAI900      0.0000 
      8 C3B        35.6820   17.0920   70.4390 C.3       1 NAI900      0.0000 
      9 O3B        35.2400   15.8830   71.0810 O.3       1 NAI900      0.0000 
     10 C2B        36.2560   18.1410   71.4090 C.3       1 NAI900      0.0000 
     11 O2B        35.6640   18.1050   72.7220 O.3       1 NAI900      0.0000 
     12 C1B        37.7130   17.7510   71.4160 C.3       1 NAI900      0.0000 
     13 N9A        38.6500   18.7620   71.8160 N.pl3     1 NAI900      0.0000 
     14 C8A        38.5890   20.1240   71.6870 C.2       1 NAI900      0.0000 
     15 N7A        39.6870   20.6500   72.1420 N.2       1 NAI900      0.0000 
     16 C5A        40.4940   19.6460   72.5820 C.ar      1 NAI900      0.0000 
     17 C6A        41.7870   19.5640   73.1620 C.ar      1 NAI900      0.0000 
     18 N6A        42.5350   20.6990   73.4000 N.pl3     1 NAI900      0.0000 
     19 N1A        42.2880   18.3450   73.4840 N.ar      1 NAI900      0.0000 
     20 C2A        41.5950   17.1910   73.2720 C.ar      1 NAI900      0.0000 
     21 N3A        40.3760   17.2320   72.7240 N.ar      1 NAI900      0.0000 
     22 C4A        39.8160   18.4370   72.3780 C.ar      1 NAI900      0.0000 
     23 O3         35.9140   17.6200   65.2120 O.3       1 NAI900      0.0000 
     24 PN         36.1340   16.7690   63.8650 P.3       1 NAI900      0.0000 
     25 O1N        34.8980   16.7600   62.9160 O.co2     1 NAI900      0.0000 
     26 O2N        36.5800   15.3830   64.1470 O.co2     1 NAI900      0.0000 
     27 O5D        37.2670   17.6450   63.1030 O.3       1 NAI900      0.0000 
     28 C5D        38.4870   17.6770   63.8410 C.3       1 NAI900      0.0000 
     29 C4D        39.5620   18.2560   62.8640 C.3       1 NAI900      0.0000 
     30 O4D        39.6000   17.4050   61.6470 O.3       1 NAI900      0.0000 
     31 C3D        39.2190   19.6740   62.3270 C.3       1 NAI900      0.0000 
     32 O3D        40.4530   20.3810   62.0450 O.3       1 NAI900      0.0000 
     33 C2D        38.4570   19.3610   61.0230 C.3       1 NAI900      0.0000 
     34 O2D        38.4850   20.4590   60.1420 O.3       1 NAI900      0.0000 
     35 C1D        39.2870   18.2050   60.4800 C.3       1 NAI900      0.0000 
     36 N1N        38.5580   17.3790   59.4770 N.pl3     1 NAI900      0.0000 
     37 C2N        37.1880   17.1950   59.5840 C.2       1 NAI900      0.0000 
     38 C3N        36.5170   16.4500   58.6860 C.2       1 NAI900      0.0000 
     39 C7N        35.1000   16.2840   58.8260 C.2       1 NAI900      0.0000 
     40 O7N        34.4540   16.0570   57.8430 O.2       1 NAI900      0.0000 
     41 N7N        34.4750   16.3450   60.0350 N.am      1 NAI900      0.0000 
     42 C4N        37.2270   15.7750   57.5160 C.3       1 NAI900      0.0000 
     43 C5N        38.7340   16.0310   57.5110 C.2       1 NAI900      0.0000 
     44 C6N        39.3110   16.7750   58.4340 C.2       1 NAI900      0.0000 
     45 H          36.2564   18.3627   68.1489 H         1 NAI900      0.0000 
     46 H          37.4943   17.2754   67.4967 H         1 NAI900      0.0000 
     47 H          37.0261   15.7597   69.4459 H         1 NAI900      0.0000 
     48 H          34.9214   17.5687   69.8554 H         1 NAI900      0.0000 
     49 H          36.1763   19.0921   70.9248 H         1 NAI900      0.0000 
     50 H          37.8369   16.8400   71.9525 H         1 NAI900      0.0000 
     51 H          37.8190   20.5914   71.3056 H         1 NAI900      0.0000 
     52 H          42.0981   21.5695   73.1732 H         1 NAI900      0.0000 
     53 H          43.4489   20.5523   73.7785 H         1 NAI900      0.0000 
     54 H          42.0258   16.2807   73.5414 H         1 NAI900      0.0000 
     55 H          38.8214   16.6966   64.1370 H         1 NAI900      0.0000 
     56 H          38.4426   18.3362   64.6920 H         1 NAI900      0.0000 
     57 H          40.5062   18.2739   63.3251 H         1 NAI900      0.0000 
     58 H          38.5875   20.1419   62.9977 H         1 NAI900      0.0000 
     59 H          37.5087   19.0015   61.2787 H         1 NAI900      0.0000 
     60 H          40.1885   18.6053   60.0629 H         1 NAI900      0.0000 
     61 H          36.6860   17.6480   60.3785 H         1 NAI900      0.0000 
     62 H          35.0583   16.5450   60.8223 H         1 NAI900      0.0000 
     63 H          33.4880   16.1844   60.0287 H         1 NAI900      0.0000 
     64 H          36.7989   16.1432   56.5752 H         1 NAI900      0.0000 
     65 H          37.0484   14.6934   57.5631 H         1 NAI900      0.0000 
     66 H          39.2320   15.5721   56.7312 H         1 NAI900      0.0000 
     67 H          40.3423   16.9513   58.4376 H         1 NAI900      0.0000 
     68 H          36.0304   15.5640   71.6040 H         1 NAI900      0.0000 
     69 H          35.9474   17.2278   73.1096 H         1 NAI900      0.0000 
     70 H          40.2037   21.3494   62.0518 H         1 NAI900      0.0000 
     71 H          37.7438   21.0560   60.4490 H         1 NAI900      0.0000 
@<TRIPOS>BOND
     1    2    1 ar   
     2    3    1 ar   
     3    4    1 1    
     4   23    1 1    
     5    5    4 1    
     6    6    5 1    
     7   45    5 1    
     8   46    5 1    
     9    7    6 1    
    10    8    6 1    
    11   47    6 1    
    12   12    7 1    
    13    9    8 1    
    14   10    8 1    
    15   48    8 1    
    16   68    9 1    
    17   11   10 1    
    18   12   10 1    
    19   49   10 1    
    20   69   11 1    
    21   13   12 1    
    22   50   12 1    
    23   14   13 1    
    24   22   13 1    
    25   15   14 2    
    26   51   14 1    
    27   16   15 1    
    28   17   16 ar   
    29   22   16 ar   
    30   18   17 1    
    31   19   17 ar   
    32   52   18 1    
    33   53   18 1    
    34   20   19 ar   
    35   21   20 ar   
    36   54   20 1    
    37   22   21 ar   
    38   24   23 1    
    39   25   24 ar   
    40   26   24 ar   
    41   27   24 1    
    42   28   27 1    
    43   29   28 1    
    44   55   28 1    
    45   56   28 1    
    46   30   29 1    
    47   31   29 1    
    48   57   29 1    
    49   35   30 1    
    50   32   31 1    
    51   33   31 1    
    52   58   31 1    
    53   70   32 1    
    54   34   33 1    
    55   35   33 1    
    56   59   33 1    
    57   71   34 1    
    58   36   35 1    
    59   60   35 1    
    60   37   36 1    
    61   44   36 1    
    62   38   37 2    
    63   61   37 1    
    64   39   38 1    
    65   42   38 1    
    66   40   39 2    
    67   41   39 am   
    68   62   41 1    
    69   63   41 1    
    70   43   42 1    
    71   64   42 1    
    72   65   42 1    
    73   44   43 2    
    74   66   43 1    
    75   67   44 1    
@<TRIPOS>SUBSTRUCTURE
     1 NAI900      1 GROUP   
@<TRIPOS>SET

