#    Name: 3geq_PP2_2_INTS_M
#    Modification time : Tue Mar 25 07:41:58 2014

@<TRIPOS>MOLECULE
3geq_PP2_2_INTS_M
   57     0     9     0     0
SMALL
NO_CHARGES


@<TRIPOS>ATOM
      1 CA         18.1685   19.6240  -43.5705 C.3       3 GLC5        0.0000 
      2 CA         19.3860   20.8130  -43.8390 C.3       9 GLL5        0.0000 
      3 CA         16.9510   18.4350  -43.3020 C.3       6 GLP5        0.0000 
      4 CA         20.6620   21.9730  -46.4005 C.3       3 GLC5        0.0000 
      5 CA         19.7720   20.0550  -46.0340 C.3       9 GLL5        0.0000 
      6 CA         21.5520   23.8910  -46.7670 C.3       6 GLP5        0.0000 
      7 CA         19.1380   18.4035  -46.5295 C.3       3 GLC5        0.0000 
      8 CA         18.5040   16.7520  -47.0250 C.3       6 GLP5        0.0000 
      9 CA         18.3615   19.2450  -44.6680 C.3       3 GLC5        0.0000 
     10 N          20.6830   18.2310  -46.8075 N.am      2 SEC2        0.0000 
     11 N          20.6800   19.1540  -45.6200 N.am      8 SEL2        0.0000 
     12 N          20.6860   17.3080  -47.9950 N.am      5 SEP2        0.0000 
     13 CA         19.7550   17.8870  -45.6680 C.3       3 GLC5        0.0000 
     14 CA         21.0060   19.0220  -44.3110 C.3       9 GLL5        0.0000 
     15 CA         23.5540   19.7050  -43.0145 C.3       3 GLC5        0.0000 
     16 CA         22.7000   19.6130  -41.0010 C.3       9 GLL5        0.0000 
     17 CA         24.4080   19.7970  -45.0280 C.3       6 GLP5        0.0000 
     18 CA         15.7870   21.5810  -45.2005 C.3       3 GLC5        0.0000 
     19 CA         16.5500   22.0880  -43.3720 C.3       9 GLL5        0.0000 
     20 CA         15.0240   21.0740  -47.0290 C.3       6 GLP5        0.0000 
     21 CA         14.5990   21.7435  -43.0895 C.3       3 GLC5        0.0000 
     22 CA         12.6480   21.3990  -42.8070 C.3       6 GLP5        0.0000 
     23 CA         19.4465   24.7590  -44.4850 C.3       3 GLC5        0.0000 
     24 CA         18.3760   23.7810  -43.5440 C.3       9 GLL5        0.0000 
     25 CA         20.5170   25.7370  -45.4260 C.3       6 GLP5        0.0000 
     26 O          22.7575   17.0760  -44.8380 O.2       1 ALC1        0.0000 
     27 O          21.9360   18.0790  -43.9180 O.2       7 ALL1        0.0000 
     28 O          23.5790   16.0730  -45.7580 O.2       4 ALP1        0.0000 
     29 CA         24.3730   15.7565  -37.4645 C.3       3 GLC5        0.0000 
     30 CA         24.2000   17.4170  -37.9840 C.3       9 GLL5        0.0000 
     31 CA         24.5460   14.0960  -36.9450 C.3       6 GLP5        0.0000 
     32 CA         26.1055   17.3335  -37.7200 C.3       3 GLC5        0.0000 
     33 CA         28.0110   17.2500  -37.4560 C.3       6 GLP5        0.0000 
     34 CA         25.0090   16.6375  -39.4875 C.3       3 GLC5        0.0000 
     35 CA         25.8180   15.8580  -40.9910 C.3       6 GLP5        0.0000 
     36 CA         21.2882   21.7255  -42.8635 C.3       3 GLC5        0.0000 
     37 CA         20.3550   19.8730  -43.3490 C.3       9 GLL5        0.0000 
     38 CA         22.7060   23.1080  -42.1330 C.3       6 GLP5        0.0000 
     39 CA         22.5443   19.6223  -44.4290 C.3       3 GLC5        0.0000 
     40 CA         19.6663   18.0558  -43.3800 C.3       3 GLC5        0.0000 
     41 CA         18.6520   16.6640  -42.9300 C.3       6 GLP5        0.0000 
     42 CA         22.2416   21.3875  -41.6689 C.3       3 GLC5        0.0000 
     43 CA         20.4180   20.0690  -41.8950 C.3       9 GLL5        0.0000 
     44 CA         24.1810   20.4488  -39.3295 C.3       3 GLC5        0.0000 
     45 CA         25.2180   21.5870  -38.1090 C.3       6 GLP5        0.0000 
     46 CA         24.5795   17.2203  -40.2950 C.3       3 GLC5        0.0000 
     47 CA         23.5880   19.0080  -40.0990 C.3       9 GLL5        0.0000 
     48 CA         23.5215   19.4940  -37.4753 C.3       3 GLC5        0.0000 
     49 CA         23.0940   18.1570  -39.0990 C.3       9 GLL5        0.0000 
     50 CA         23.3960   21.2010  -36.4090 C.3       6 GLP5        0.0000 
     51 CA         19.6470   16.9420  -39.4982 C.3       3 GLC5        0.0000 
     52 CA         21.6940   17.9040  -39.0040 C.3       9 GLL5        0.0000 
     53 CA         18.0540   15.6750  -39.5370 C.3       6 GLP5        0.0000 
     54 CA         19.7361   17.8908  -41.7959 C.3       3 GLC5        0.0000 
     55 CA         20.7860   18.5140  -39.9150 C.3       9 GLL5        0.0000 
     56 CA         17.0793   20.3840  -43.1827 C.3       3 GLC5        0.0000 
     57 CA         17.8650   22.5780  -42.7550 C.3       9 GLL5        0.0000 
@<TRIPOS>BOND
@<TRIPOS>SUBSTRUCTURE
     1 ALC1       26 GROUP        1 X    ALC  0     ROOT ALC X 1
     2 SEC2       10 GROUP        1 X    SEC  0     **** SEC X 2
     3 GLC5        1 GROUP        1 X    GLC  0     **** GLC X 6
     4 ALP1       28 GROUP        1 Y    ALP  0     ROOT ALP Y 8
     5 SEP2       12 GROUP        1 Y    SEP  0     **** SEP Y 9
     6 GLP5        3 GROUP        1 Y    GLP  0     **** GLP Y 13
     7 ALL1       27 GROUP        1 Z    ALL  0     ROOT ALL Z 15
     8 SEL2       11 GROUP        1 Z    SEL  0     **** SEL Z 16
     9 GLL5        2 GROUP        1 Z    GLL  0     **** GLL Z 20
@<TRIPOS>SET

