#    Name: 3geq_PP2_2_ligand
#    Modification time : Tue Mar 25 07:41:58 2014

@<TRIPOS>MOLECULE
3geq_PP2_2_ligand
   38    40     1     0     0
SMALL
NO_CHARGES


@<TRIPOS>ATOM
      1 C1         19.3860   20.8130  -43.8390 C.ar      1 PP22        0.0000 
      2 N2         19.1350   20.8680  -45.1740 N.ar      1 PP22        0.0000 
      3 C3         19.7720   20.0550  -46.0340 C.ar      1 PP22        0.0000 
      4 N4         20.6800   19.1540  -45.6200 N.ar      1 PP22        0.0000 
      5 C5         21.0060   19.0220  -44.3110 C.ar      1 PP22        0.0000 
      6 C6         20.3550   19.8730  -43.3490 C.ar      1 PP22        0.0000 
      7 C8         20.4180   20.0690  -41.8950 C.2       1 PP22        0.0000 
      8 N9         19.5540   21.0120  -41.5930 N.pl3     1 PP22        0.0000 
      9 N10        18.9040   21.4980  -42.7460 N.pl3     1 PP22        0.0000 
     10 C11        21.2910   19.3730  -40.9220 C.ar      1 PP22        0.0000 
     11 C12        22.7000   19.6130  -41.0010 C.ar      1 PP22        0.0000 
     12 C13        23.5880   19.0080  -40.0990 C.ar      1 PP22        0.0000 
     13 C14        23.0940   18.1570  -39.0990 C.ar      1 PP22        0.0000 
     14 C15        21.6940   17.9040  -39.0040 C.ar      1 PP22        0.0000 
     15 C16        20.7860   18.5140  -39.9150 C.ar      1 PP22        0.0000 
     16 C22        17.8650   22.5780  -42.7550 C.3       1 PP22        0.0000 
     17 C23        17.5920   23.0610  -41.3290 C.3       1 PP22        0.0000 
     18 C24        16.5500   22.0880  -43.3720 C.3       1 PP22        0.0000 
     19 C25        18.3760   23.7810  -43.5440 C.3       1 PP22        0.0000 
     20 N25        21.9360   18.0790  -43.9180 N.pl3     1 PP22        0.0000 
     21 CL         24.2000   17.4170  -37.9840 Cl        1 PP22        0.0000 
     22 H          19.5531   20.1258  -47.0653 H         1 PP22        0.0000 
     23 H          19.3503   21.3670  -40.7023 H         1 PP22        0.0000 
     24 H          23.0539   20.2395  -41.7334 H         1 PP22        0.0000 
     25 H          24.5925   19.1868  -40.1702 H         1 PP22        0.0000 
     26 H          21.3412   17.2807  -38.2770 H         1 PP22        0.0000 
     27 H          19.7923   18.3342  -39.8416 H         1 PP22        0.0000 
     28 H          22.3041   17.4956  -44.6420 H         1 PP22        0.0000 
     29 H          22.1604   18.0617  -42.9436 H         1 PP22        0.0000 
     30 H          18.4154   23.4298  -40.8978 H         1 PP22        0.0000 
     31 H          16.9011   23.7837  -41.3075 H         1 PP22        0.0000 
     32 H          17.2607   22.3212  -40.7434 H         1 PP22        0.0000 
     33 H          16.6726   21.7883  -44.3181 H         1 PP22        0.0000 
     34 H          16.1682   21.3142  -42.8666 H         1 PP22        0.0000 
     35 H          15.8534   22.8054  -43.3798 H         1 PP22        0.0000 
     36 H          19.2120   24.1585  -43.1457 H         1 PP22        0.0000 
     37 H          18.5852   23.5416  -44.4921 H         1 PP22        0.0000 
     38 H          17.7037   24.5208  -43.5700 H         1 PP22        0.0000 
@<TRIPOS>BOND
     1    2    1 ar   
     2    6    1 ar   
     3    9    1 1    
     4    3    2 ar   
     5    4    3 ar   
     6   22    3 1    
     7    5    4 ar   
     8    6    5 ar   
     9   20    5 1    
    10    7    6 1    
    11    8    7 2    
    12   10    7 1    
    13    9    8 1    
    14   23    8 1    
    15   16    9 1    
    16   11   10 ar   
    17   15   10 ar   
    18   12   11 ar   
    19   24   11 1    
    20   13   12 ar   
    21   25   12 1    
    22   14   13 ar   
    23   21   13 1    
    24   15   14 ar   
    25   26   14 1    
    26   27   15 1    
    27   17   16 1    
    28   18   16 1    
    29   19   16 1    
    30   30   17 1    
    31   31   17 1    
    32   32   17 1    
    33   33   18 1    
    34   34   18 1    
    35   35   18 1    
    36   36   19 1    
    37   37   19 1    
    38   38   19 1    
    39   28   20 1    
    40   29   20 1    
@<TRIPOS>SUBSTRUCTURE
     1 PP22        1 GROUP   
@<TRIPOS>SET

