#    Name: 2dcl_AMP_1_INTS_M
#    Modification time : Tue Mar 25 10:00:11 2014

@<TRIPOS>MOLECULE
2dcl_AMP_1_INTS_M
   48     0    12     0     0
SMALL
NO_CHARGES


@<TRIPOS>ATOM
      1 NZ          3.6405  -49.4070  -11.0980 N.4       3 LYC4        0.0000 
      2 NZ          2.3660  -49.2560  -11.5420 N.4      11 LYL4        0.0000 
      3 NZ          5.2650  -49.1410   -9.4510 N.4       7 LYP4        0.0000 
      4 N           3.6405  -49.4070  -11.0980 N.am      2 SEC2        0.0000 
      5 N           2.3660  -49.2560  -11.5420 N.am     10 SEL2        0.0000 
      6 N           4.9150  -49.5580  -10.6540 N.am      6 SEP2        0.0000 
      7 N           0.9700  -46.3050  -13.6065 N.am      2 SEC2        0.0000 
      8 N           1.2340  -47.2300  -12.3710 N.am     10 SEL2        0.0000 
      9 N           0.7060  -45.3800  -14.8420 N.am      6 SEP2        0.0000 
     10 CA          2.8055  -46.0260  -14.5745 C.3       4 GLC5        0.0000 
     11 CA          4.1150  -46.1900  -13.1870 C.3      12 GLL5        0.0000 
     12 CA          1.4960  -45.8620  -15.9620 C.3       8 GLP5        0.0000 
     13 O           4.4630  -40.4415  -12.7600 O.2       1 ALC1        0.0000 
     14 O           4.1970  -41.5440  -12.0930 O.2       9 ALL1        0.0000 
     15 O           4.7290  -39.3390  -13.4270 O.2       5 ALP1        0.0000 
     16 CA          7.1030  -42.7965  -13.4460 C.3       4 GLC5        0.0000 
     17 CA          5.2390  -42.9730  -13.7360 C.3      12 GLL5        0.0000 
     18 CA          8.9670  -42.6200  -13.1560 C.3       8 GLP5        0.0000 
     19 CA          5.6970  -40.5540  -19.7950 C.3       4 GLC5        0.0000 
     20 CA          4.4440  -41.6890  -18.5030 C.3      12 GLL5        0.0000 
     21 CA          6.9500  -39.4190  -21.0870 C.3       8 GLP5        0.0000 
     22 O           4.4125  -41.5225  -20.9865 O.2       1 ALC1        0.0000 
     23 O           4.2760  -42.2220  -19.7160 O.2       9 ALL1        0.0000 
     24 O           4.5490  -40.8230  -22.2570 O.2       5 ALP1        0.0000 
     25 N           4.5675  -39.3240  -19.5820 N.am      2 SEC2        0.0000 
     26 N           4.4160  -40.2970  -18.2840 N.am     10 SEL2        0.0000 
     27 N           4.7190  -38.3510  -20.8800 N.am      6 SEP2        0.0000 
     28 CA          2.9075  -39.4640  -16.6960 C.3       4 GLC5        0.0000 
     29 CA          4.5920  -39.7450  -17.0150 C.3      12 GLL5        0.0000 
     30 CA          1.2230  -39.1830  -16.3770 C.3       8 GLP5        0.0000 
     31 CA          4.5230  -38.8495  -15.1180 C.3       4 GLC5        0.0000 
     32 CA          4.4540  -37.9540  -13.2210 C.3       8 GLP5        0.0000 
     33 CA          3.8785  -38.2720  -18.4360 C.3       4 GLC5        0.0000 
     34 CA          3.1650  -36.7990  -19.8570 C.3       8 GLP5        0.0000 
     35 CA          6.2995  -40.5900  -17.3340 C.3       4 GLC5        0.0000 
     36 CA          8.0070  -41.4350  -17.6530 C.3       8 GLP5        0.0000 
     37 N           4.7645  -39.9595  -14.6685 N.am      2 SEC2        0.0000 
     38 N           4.8000  -40.5800  -15.9100 N.am     10 SEL2        0.0000 
     39 N           4.7290  -39.3390  -13.4270 N.am      6 SEP2        0.0000 
     40 CA          2.1710  -41.9612  -11.9355 C.3       4 GLC5        0.0000 
     41 CA          3.9740  -42.6240  -12.9700 C.3      12 GLL5        0.0000 
     42 CA          0.5940  -40.6600  -11.2600 C.3       8 GLP5        0.0000 
     43 CA          1.7315  -43.4723  -13.0075 C.3       4 GLC5        0.0000 
     44 CA         -0.2850  -43.6820  -13.4040 C.3       8 GLP5        0.0000 
     45 CA          2.8283  -42.2146  -17.6840 C.3       4 GLC5        0.0000 
     46 CA          4.6540  -42.5120  -17.3850 C.3      12 GLL5        0.0000 
     47 CA          0.9660  -42.4020  -18.3440 C.3       8 GLP5        0.0000 
     48 CA          6.3487  -41.7311  -17.3385 C.3       4 GLC5        0.0000 
@<TRIPOS>BOND
@<TRIPOS>SUBSTRUCTURE
     1 ALC1       13 GROUP        1 X    ALC  0     ROOT ALC X 1
     2 SEC2        4 GROUP        1 X    SEC  0     **** SEC X 2
     3 LYC4        1 GROUP        1 X    LYC  0     **** LYC X 4
     4 GLC5       10 GROUP        1 X    GLC  0     **** GLC X 6
     5 ALP1       15 GROUP        1 Y    ALP  0     ROOT ALP Y 8
     6 SEP2        6 GROUP        1 Y    SEP  0     **** SEP Y 9
     7 LYP4        3 GROUP        1 Y    LYP  0     **** LYP Y 11
     8 GLP5       12 GROUP        1 Y    GLP  0     **** GLP Y 13
     9 ALL1       14 GROUP        1 Z    ALL  0     ROOT ALL Z 15
    10 SEL2        5 GROUP        1 Z    SEL  0     **** SEL Z 16
    11 LYL4        2 GROUP        1 Z    LYL  0     **** LYL Z 18
    12 GLL5       11 GROUP        1 Z    GLL  0     **** GLL Z 20
@<TRIPOS>SET

