#    Name: 2dcl_AMP_1_ligand
#    Modification time : Tue Mar 25 10:00:11 2014

@<TRIPOS>MOLECULE
2dcl_AMP_1_ligand
   35    37     1     0     0
SMALL
NO_CHARGES


@<TRIPOS>ATOM
      1 P           2.4510  -48.1760  -12.5410 P.3       1 AMP901      0.0000 
      2 O1P         2.4400  -48.8160  -13.9480 O.co2     1 AMP901      0.0000 
      3 O2P         2.3660  -49.2560  -11.5420 O.co2     1 AMP901      0.0000 
      4 O3P         1.2340  -47.2300  -12.3710 O.co2     1 AMP901      0.0000 
      5 O5'         3.8100  -47.2830  -12.3240 O.3       1 AMP901      0.0000 
      6 C5'         4.1150  -46.1900  -13.1870 C.3       1 AMP901      0.0000 
      7 C4'         4.6300  -44.9190  -12.4680 C.3       1 AMP901      0.0000 
      8 O4'         5.6130  -44.2920  -13.3000 O.3       1 AMP901      0.0000 
      9 C3'         3.5220  -43.9010  -12.2520 C.3       1 AMP901      0.0000 
     10 O3'         3.2630  -43.7060  -10.8830 O.3       1 AMP901      0.0000 
     11 C2'         3.9740  -42.6240  -12.9700 C.3       1 AMP901      0.0000 
     12 O2'         4.1970  -41.5440  -12.0930 O.3       1 AMP901      0.0000 
     13 C1'         5.2390  -42.9730  -13.7360 C.3       1 AMP901      0.0000 
     14 N9          5.0140  -43.0290  -15.2330 N.pl3     1 AMP901      0.0000 
     15 C8          4.9470  -44.1680  -16.0020 C.2       1 AMP901      0.0000 
     16 N7          4.7310  -43.8510  -17.2970 N.2       1 AMP901      0.0000 
     17 C5          4.6540  -42.5120  -17.3850 C.ar      1 AMP901      0.0000 
     18 C6          4.4440  -41.6890  -18.5030 C.ar      1 AMP901      0.0000 
     19 N6          4.2760  -42.2220  -19.7160 N.pl3     1 AMP901      0.0000 
     20 N1          4.4160  -40.2970  -18.2840 N.ar      1 AMP901      0.0000 
     21 C2          4.5920  -39.7450  -17.0150 C.ar      1 AMP901      0.0000 
     22 N3          4.8000  -40.5800  -15.9100 N.ar      1 AMP901      0.0000 
     23 C4          4.8320  -41.9540  -16.1040 C.ar      1 AMP901      0.0000 
     24 H           3.2252  -45.8808  -13.7856 H         1 AMP901      0.0000 
     25 H           4.8900  -46.4677  -13.9406 H         1 AMP901      0.0000 
     26 H           5.0417  -45.1981  -11.5264 H         1 AMP901      0.0000 
     27 H           2.6475  -44.2712  -12.7903 H         1 AMP901      0.0000 
     28 H           3.2091  -42.3930  -13.7160 H         1 AMP901      0.0000 
     29 H           5.9985  -42.2697  -13.5059 H         1 AMP901      0.0000 
     30 H           5.0436  -45.0700  -15.6487 H         1 AMP901      0.0000 
     31 H           4.3464  -43.2179  -19.7726 H         1 AMP901      0.0000 
     32 H           4.0949  -41.5773  -20.4587 H         1 AMP901      0.0000 
     33 H           4.5695  -38.7269  -16.8885 H         1 AMP901      0.0000 
     34 H           3.4155  -42.7301  -10.7273 H         1 AMP901      0.0000 
     35 H           4.0161  -40.7260  -12.6389 H         1 AMP901      0.0000 
@<TRIPOS>BOND
     1    2    1 ar   
     2    3    1 ar   
     3    4    1 ar   
     4    5    1 1    
     5    6    5 1    
     6    7    6 1    
     7   24    6 1    
     8   25    6 1    
     9    8    7 1    
    10    9    7 1    
    11   26    7 1    
    12   13    8 1    
    13   10    9 1    
    14   11    9 1    
    15   27    9 1    
    16   34   10 1    
    17   12   11 1    
    18   13   11 1    
    19   28   11 1    
    20   35   12 1    
    21   14   13 1    
    22   29   13 1    
    23   15   14 1    
    24   23   14 1    
    25   16   15 2    
    26   30   15 1    
    27   17   16 1    
    28   18   17 ar   
    29   23   17 ar   
    30   19   18 1    
    31   20   18 ar   
    32   31   19 1    
    33   32   19 1    
    34   21   20 ar   
    35   22   21 ar   
    36   33   21 1    
    37   23   22 ar   
@<TRIPOS>SUBSTRUCTURE
     1 AMP901      1 GROUP   
@<TRIPOS>SET

