#    Name: 3UWB_1_CAVITY_N1_ALL.mol2
#    Modification time : Tue Mar 11 09:26:36 2014

@<TRIPOS>MOLECULE
3UWB_1_CAVITY_N1_ALL.mol2
   62     0     5     0     0
SMALL
NO_CHARGES


@<TRIPOS>ATOM
      1 DU         13.8509   33.0474   15.5131 H         5 CUB7        0.0000 
      2 O           9.8345   34.0026   16.4911 O.2       1 ALA2        0.0000 
      3 CZ          6.7996   33.9154   17.9165 C.ar      3 PHE5        0.0000 
      4 CA         14.3501   31.0861   14.8775 C.3       4 GLY6        0.0000 
      5 N          13.3234   30.5213   15.8139 N.2       1 ALA2        0.0000 
      6 N          12.2967   29.9565   16.7504 N.2       1 ALA2        0.0000 
      7 N          11.2700   29.3918   17.6868 N.2       1 ALA2        0.0000 
      8 N          13.3686   32.1284   14.4301 N.2       1 ALA2        0.0000 
      9 N          12.3419   31.5637   15.3665 N.2       1 ALA2        0.0000 
     10 DU         11.3152   30.9989   16.3029 H         5 CUB7        0.0000 
     11 CA         10.2885   30.4341   17.2394 C.3       4 GLY6        0.0000 
     12 N          11.3604   32.6060   14.9191 N.2       1 ALA2        0.0000 
     13 N          10.3337   32.0412   15.8555 N.2       1 ALA2        0.0000 
     14 DU          9.3070   31.4765   16.7919 H         5 CUB7        0.0000 
     15 CA          8.2803   30.9117   17.7283 C.3       4 GLY6        0.0000 
     16 O           9.3523   33.0836   15.4081 O.2       1 ALA2        0.0000 
     17 DU          8.3256   32.5188   16.3445 H         5 CUB7        0.0000 
     18 CZ          7.2989   31.9540   17.2809 C.ar      3 PHE5        0.0000 
     19 CZ          6.2721   31.3893   18.2173 C.ar      3 PHE5        0.0000 
     20 N           7.3441   33.5612   15.8970 N.2       1 ALA2        0.0000 
     21 CA         12.8411   29.6023   14.7309 C.3       4 GLY6        0.0000 
     22 CA         11.8144   29.0376   15.6674 C.3       4 GLY6        0.0000 
     23 O          10.7877   28.4728   16.6038 O.2       1 ALA2        0.0000 
     24 O          12.8864   31.2095   13.3471 O.2       1 ALA2        0.0000 
     25 N          11.8597   30.6447   14.2835 N.2       1 ALA2        0.0000 
     26 CA         10.8330   30.0799   15.2199 C.3       4 GLY6        0.0000 
     27 CA          9.8063   29.5151   16.1563 C.3       4 GLY6        0.0000 
     28 N           9.8515   31.1223   14.7725 N.2       1 ALA2        0.0000 
     29 CA          8.8248   30.5575   15.7089 C.3       4 GLY6        0.0000 
     30 N           8.8700   32.1646   14.3250 N.2       1 ALA2        0.0000 
     31 DU          7.8433   31.5998   15.2615 H         5 CUB7        0.0000 
     32 CA          6.8166   31.0351   16.1979 C.3       4 GLY6        0.0000 
     33 CA          7.8885   33.2070   13.8776 C.3       4 GLY6        0.0000 
     34 CA          6.8618   32.6422   14.8140 C.3       4 GLY6        0.0000 
     35 CZ          5.8351   32.0774   15.7505 C.ar      3 PHE5        0.0000 
     36 CA         12.3589   28.6834   13.6479 C.3       4 GLY6        0.0000 
     37 O          12.4041   30.2905   12.2640 O.2       1 ALA2        0.0000 
     38 N          11.3774   29.7257   13.2005 N.2       1 ALA2        0.0000 
     39 CA         10.3507   29.1609   14.1369 C.3       4 GLY6        0.0000 
     40 N          10.3959   30.7681   12.7530 N.2       1 ALA2        0.0000 
     41 N           9.3692   30.2033   13.6895 N.2       1 ALA2        0.0000 
     42 CA          8.3425   29.6385   14.6259 C.3       4 GLY6        0.0000 
     43 N           8.3877   31.2456   13.2420 N.2       1 ALA2        0.0000 
     44 CA          7.3610   30.6809   14.1785 C.3       4 GLY6        0.0000 
     45 CA          6.3343   30.1161   15.1149 C.3       4 GLY6        0.0000 
     46 O           7.4063   32.2880   12.7946 O.2       1 ALA2        0.0000 
     47 DU          6.3796   31.7232   13.7310 H         5 CUB7        0.0000 
     48 CA          5.3529   31.1584   14.6675 C.3       4 GLY6        0.0000 
     49 CA          5.3981   32.7656   13.2836 C.3       4 GLY6        0.0000 
     50 N          10.8951   28.8067   12.1175 N.2       1 ALA2        0.0000 
     51 O           9.8684   28.2419   13.0539 O.2       1 ALA2        0.0000 
     52 N           9.9137   29.8491   11.6700 N.2       1 ALA2        0.0000 
     53 NZ          8.8870   29.2843   12.6065 N.2       2 LYS4        0.0000 
     54 CA          7.8603   28.7195   13.5429 C.3       4 GLY6        0.0000 
     55 N           8.9322   30.8914   11.2226 N.2       1 ALA2        0.0000 
     56 CA          7.9055   30.3266   12.1590 C.3       4 GLY6        0.0000 
     57 CA          6.8788   29.7619   13.0955 C.3       4 GLY6        0.0000 
     58 O           6.9240   31.3690   11.7116 O.2       1 ALA2        0.0000 
     59 CA          5.8973   30.8042   12.6480 C.3       4 GLY6        0.0000 
     60 CA          4.8706   30.2394   13.5845 C.3       4 GLY6        0.0000 
     61 CA          7.4232   29.4077   11.0760 C.3       4 GLY6        0.0000 
     62 CA          6.3965   28.8429   12.0125 C.3       4 GLY6        0.0000 
@<TRIPOS>BOND
@<TRIPOS>SUBSTRUCTURE
     1 ALA2        2 GROUP   
     2 LYS4       53 GROUP   
     3 PHE5        3 GROUP   
     4 GLY6        4 GROUP   
     5 CUB7        1 GROUP   
@<TRIPOS>SET

