#    Name: 3uwb_BB2_1_INTS_M
#    Modification time : Mon Mar 24 23:38:00 2014

@<TRIPOS>MOLECULE
3uwb_BB2_1_INTS_M
   62     0    12     0     0
SMALL
NO_CHARGES


@<TRIPOS>ATOM
      1 CA         13.5860   29.1495   12.0385 C.3       4 GLC5        0.0000 
      2 CA         11.6330   28.9840   11.8680 C.3      12 GLL5        0.0000 
      3 CA         15.5390   29.3150   12.2090 C.3       8 GLP5        0.0000 
      4 Zn         11.5985   30.5475    8.9870 Zn        3 ZIC7        0.0000 
      5 Zn         12.1340   30.1820    9.8790 Zn       11 ZIL7        0.0000 
      6 Zn         11.0630   30.9130    8.0950 Zn        7 ZIP7        0.0000 
      7 N          12.8815   29.6175    8.5565 N.am      2 SEC2        0.0000 
      8 N          12.1340   30.1820    9.8790 N.am     10 SEL2        0.0000 
      9 N          13.6290   29.0530    7.2340 N.am      6 SEP2        0.0000 
     10 N          13.2970   30.9440   10.2155 N.am      2 SEC2        0.0000 
     11 N          14.4600   31.7060   10.5520 N.am      6 SEP2        0.0000 
     12 O          11.0985   27.0610   10.4435 O.2       1 ALC1        0.0000 
     13 O          10.7770   28.4330    9.6560 O.2       9 ALL1        0.0000 
     14 O          11.4200   25.6890   11.2310 O.2       5 ALP1        0.0000 
     15 O           9.6335   27.7350    9.7120 O.2       1 ALC1        0.0000 
     16 O           8.4900   27.0370    9.7680 O.2       5 ALP1        0.0000 
     17 Zn         10.8120   29.8780    8.2160 Zn        3 ZIC7        0.0000 
     18 Zn         10.5610   28.8430    8.3370 Zn       11 ZIL7        0.0000 
     19 O           9.7670   27.8810    7.9740 O.2       1 ALC1        0.0000 
     20 O          10.5610   28.8430    8.3370 O.2       9 ALL1        0.0000 
     21 O           8.9730   26.9190    7.6110 O.2       5 ALP1        0.0000 
     22 N          11.1255   27.5500   15.0530 N.am      2 SEC2        0.0000 
     23 N          11.2000   28.9180   14.7150 N.am     10 SEL2        0.0000 
     24 N          11.0510   26.1820   15.3910 N.am      6 SEP2        0.0000 
     25 CA          8.6530   30.0040   10.5395 C.3       4 GLC5        0.0000 
     26 CA          9.1950   29.3670   12.4440 C.3      12 GLL5        0.0000 
     27 CA          8.1110   30.6410    8.6350 C.3       8 GLP5        0.0000 
     28 CA          6.5320   28.7775   13.7285 C.3       4 GLC5        0.0000 
     29 CA          8.1520   30.1730   13.2370 C.3      12 GLL5        0.0000 
     30 CA          4.9120   27.3820   14.2200 C.3       8 GLP5        0.0000 
     31 CA          7.2575   31.2905   10.7305 C.3       4 GLC5        0.0000 
     32 CA          7.5240   31.2360   12.4650 C.3      12 GLL5        0.0000 
     33 CA          6.9910   31.3450    8.9960 C.3       8 GLP5        0.0000 
     34 CA          5.8325   31.3070   11.0070 C.3       4 GLC5        0.0000 
     35 CA          6.1030   31.7000   12.9090 C.3      12 GLL5        0.0000 
     36 CA          5.5620   30.9140    9.1050 C.3       8 GLP5        0.0000 
     37 CA          5.1975   32.7675   15.9955 C.3       4 GLC5        0.0000 
     38 CA          6.0550   31.9890   14.3970 C.3      12 GLL5        0.0000 
     39 CA          4.3400   33.5460   17.5940 C.3       8 GLP5        0.0000 
     40 O          10.8165   32.3250   13.4685 O.2       1 ALC1        0.0000 
     41 O          11.0070   31.2290   14.5370 O.2       9 ALL1        0.0000 
     42 O          10.6260   33.4210   12.4000 O.2       5 ALP1        0.0000 
     43 CA         15.0700   30.5490   14.5375 C.3       4 GLC5        0.0000 
     44 CA         13.6390   31.1880   15.8250 C.3      12 GLL5        0.0000 
     45 CA         16.5010   29.9100   13.2500 C.3       8 GLP5        0.0000 
     46 N           9.7685   34.3695   14.7705 N.am      2 SEC2        0.0000 
     47 N           9.5850   33.2080   15.7060 N.am     10 SEL2        0.0000 
     48 N           9.9520   35.5310   13.8350 N.am      6 SEP2        0.0000 
     49 O           6.8850   35.5450   17.6210 O.2       1 ALC1        0.0000 
     50 O           7.1500   34.9120   18.6950 O.2       9 ALL1        0.0000 
     51 O           6.6200   36.1780   16.5470 O.2       5 ALP1        0.0000 
     52 CA          8.5077   28.6040   14.4248 C.3       4 GLC5        0.0000 
     53 CA          8.3420   27.4380   16.0090 C.3       8 GLP5        0.0000 
     54 CA          5.8520   33.6928   13.1370 C.3       4 GLC5        0.0000 
     55 CA          5.6250   35.5410   12.6210 C.3       8 GLP5        0.0000 
     56 CA          4.1950   31.8193   13.7375 C.3       4 GLC5        0.0000 
     57 CA          2.3110   31.7940   13.8220 C.3       8 GLP5        0.0000 
     58 CA          7.7233   29.6148   17.8595 C.3       4 GLC5        0.0000 
     59 CA          8.5920   30.7850   19.4220 C.3      12 GLL5        0.0000 
     60 CA          7.1420   27.9800   16.8210 C.3       8 GLP5        0.0000 
     61 CA          6.2129   33.3411   18.0620 C.3       4 GLC5        0.0000 
     62 CA          8.1590   32.6950   17.9610 C.3      12 GLL5        0.0000 
@<TRIPOS>BOND
@<TRIPOS>SUBSTRUCTURE
     1 ALC1       12 GROUP        1 X    ALC  0     ROOT ALC X 1
     2 SEC2        7 GROUP        1 X    SEC  0     **** SEC X 2
     3 ZIC7        4 GROUP        1 X    ZIC  0     **** ZIC X 5
     4 GLC5        1 GROUP        1 X    GLC  0     **** GLC X 6
     5 ALP1       14 GROUP        1 Y    ALP  0     ROOT ALP Y 8
     6 SEP2        9 GROUP        1 Y    SEP  0     **** SEP Y 9
     7 ZIP7        6 GROUP        1 Y    ZIP  0     **** ZIP Y 12
     8 GLP5        3 GROUP        1 Y    GLP  0     **** GLP Y 13
     9 ALL1       13 GROUP        1 Z    ALL  0     ROOT ALL Z 15
    10 SEL2        8 GROUP        1 Z    SEL  0     **** SEL Z 16
    11 ZIL7        5 GROUP        1 Z    ZIL  0     **** ZIL Z 19
    12 GLL5        2 GROUP        1 Z    GLL  0     **** GLL Z 20
@<TRIPOS>SET

