#    Name: 3uwb_BB2_1_ligand
#    Modification time : Mon Mar 24 23:38:00 2014

@<TRIPOS>MOLECULE
3uwb_BB2_1_ligand
   62    62     1     0     0
SMALL
NO_CHARGES


@<TRIPOS>ATOM
      1 C5         11.6330   28.9840   11.8680 C.3       1 BB2154      0.0000 
      2 C3         11.5350   29.2450   10.4060 C.2       1 BB2154      0.0000 
      3 O4         12.1340   30.1820    9.8790 O.2       1 BB2154      0.0000 
      4 N1         10.7770   28.4330    9.6560 N.am      1 BB2154      0.0000 
      5 O2         10.5610   28.8430    8.3370 O.3       1 BB2154      0.0000 
      6 C6         10.6250   29.8690   12.6180 C.3       1 BB2154      0.0000 
      7 C12        10.9560   29.9370   14.0590 C.2       1 BB2154      0.0000 
      8 O13        11.2000   28.9180   14.7150 O.2       1 BB2154      0.0000 
      9 C7          9.1950   29.3670   12.4440 C.3       1 BB2154      0.0000 
     10 C8          8.1520   30.1730   13.2370 C.3       1 BB2154      0.0000 
     11 C9          7.5240   31.2360   12.4650 C.3       1 BB2154      0.0000 
     12 C10         6.1030   31.7000   12.9090 C.3       1 BB2154      0.0000 
     13 C11         6.0550   31.9890   14.3970 C.3       1 BB2154      0.0000 
     14 N14        11.0070   31.2290   14.5370 N.am      1 BB2154      0.0000 
     15 C15        11.1790   31.4960   15.9710 C.3       1 BB2154      0.0000 
     16 C16        12.5310   32.1870   16.1920 C.3       1 BB2154      0.0000 
     17 C18        12.6840   32.7180   17.6210 C.3       1 BB2154      0.0000 
     18 C17        13.6390   31.1880   15.8250 C.3       1 BB2154      0.0000 
     19 C19        10.0240   32.3250   16.4210 C.2       1 BB2154      0.0000 
     20 O20         9.5850   33.2080   15.7060 O.2       1 BB2154      0.0000 
     21 N21         9.5040   32.1180   17.6660 N.am      1 BB2154      0.0000 
     22 C22         8.1590   32.6950   17.9610 C.3       1 BB2154      0.0000 
     23 C23         9.6500   30.7810   18.3040 C.3       1 BB2154      0.0000 
     24 C24         8.5920   30.7850   19.4220 C.3       1 BB2154      0.0000 
     25 C25         7.4880   31.7160   18.9330 C.3       1 BB2154      0.0000 
     26 C26         8.3480   34.0670   18.6130 C.3       1 BB2154      0.0000 
     27 O27         7.1500   34.9120   18.6950 O.3       1 BB2154      0.0000 
     28 H          12.6318   29.2152   12.2296 H         1 BB2154      0.0000 
     29 H          11.4069   27.9430   12.0846 H         1 BB2154      0.0000 
     30 H          10.3743   27.5734    9.9955 H         1 BB2154      0.0000 
     31 H          10.6811   30.8729   12.1930 H         1 BB2154      0.0000 
     32 H           9.1408   28.3138   12.7603 H         1 BB2154      0.0000 
     33 H           8.9280   29.3999   11.3764 H         1 BB2154      0.0000 
     34 H           8.6583   30.5841   14.1331 H         1 BB2154      0.0000 
     35 H           7.3927   29.4584   13.6126 H         1 BB2154      0.0000 
     36 H           7.4427   30.9440   11.3840 H         1 BB2154      0.0000 
     37 H           8.1720   32.1527   12.4550 H         1 BB2154      0.0000 
     38 H           5.3933   30.9124   12.6599 H         1 BB2154      0.0000 
     39 H           5.8456   32.5969   12.3473 H         1 BB2154      0.0000 
     40 H          10.9276   32.0398   13.9160 H         1 BB2154      0.0000 
     41 H          11.1816   30.5593   16.5080 H         1 BB2154      0.0000 
     42 H          12.5949   33.0210   15.4958 H         1 BB2154      0.0000 
     43 H           7.5905   32.7738   17.0843 H         1 BB2154      0.0000 
     44 H          10.6139   30.6709   18.7418 H         1 BB2154      0.0000 
     45 H           9.4206   30.0029   17.6150 H         1 BB2154      0.0000 
     46 H           9.0242   31.1712   20.3164 H         1 BB2154      0.0000 
     47 H           8.2073   29.7991   19.5483 H         1 BB2154      0.0000 
     48 H           6.7425   31.1534   18.4137 H         1 BB2154      0.0000 
     49 H           7.0784   32.2578   19.7581 H         1 BB2154      0.0000 
     50 H           9.1554   34.5997   18.0524 H         1 BB2154      0.0000 
     51 H           8.7707   33.9008   19.6346 H         1 BB2154      0.0000 
     52 H           6.2908   31.1828   14.9397 H         1 BB2154      0.0000 
     53 H           6.6940   32.7135   14.6554 H         1 BB2154      0.0000 
     54 H           5.1449   32.2830   14.6891 H         1 BB2154      0.0000 
     55 H          13.5686   33.1634   17.7590 H         1 BB2154      0.0000 
     56 H          11.9790   33.3910   17.8446 H         1 BB2154      0.0000 
     57 H          12.6156   31.9858   18.2986 H         1 BB2154      0.0000 
     58 H          14.5499   31.5816   15.9490 H         1 BB2154      0.0000 
     59 H          13.5969   30.3631   16.3887 H         1 BB2154      0.0000 
     60 H          13.5737   30.8949   14.8712 H         1 BB2154      0.0000 
     61 H          10.3928   27.9988    7.8279 H         1 BB2154      0.0000 
     62 H           6.7835   34.9321   17.7648 H         1 BB2154      0.0000 
@<TRIPOS>BOND
     1    2    1 1    
     2    6    1 1    
     3   28    1 1    
     4   29    1 1    
     5    3    2 2    
     6    4    2 am   
     7    5    4 1    
     8   30    4 1    
     9   61    5 1    
    10    7    6 1    
    11    9    6 1    
    12   31    6 1    
    13    8    7 2    
    14   14    7 am   
    15   10    9 1    
    16   32    9 1    
    17   33    9 1    
    18   11   10 1    
    19   34   10 1    
    20   35   10 1    
    21   12   11 1    
    22   36   11 1    
    23   37   11 1    
    24   13   12 1    
    25   38   12 1    
    26   39   12 1    
    27   52   13 1    
    28   53   13 1    
    29   54   13 1    
    30   15   14 1    
    31   40   14 1    
    32   16   15 1    
    33   19   15 1    
    34   41   15 1    
    35   17   16 1    
    36   18   16 1    
    37   42   16 1    
    38   55   17 1    
    39   56   17 1    
    40   57   17 1    
    41   58   18 1    
    42   59   18 1    
    43   60   18 1    
    44   20   19 2    
    45   21   19 am   
    46   22   21 1    
    47   23   21 1    
    48   25   22 1    
    49   26   22 1    
    50   43   22 1    
    51   24   23 1    
    52   44   23 1    
    53   45   23 1    
    54   25   24 1    
    55   46   24 1    
    56   47   24 1    
    57   48   25 1    
    58   49   25 1    
    59   27   26 1    
    60   50   26 1    
    61   51   26 1    
    62   62   27 1    
@<TRIPOS>SUBSTRUCTURE
     1 BB2154      1 GROUP   
@<TRIPOS>SET

