#    Name: 3my1_RFZ_1_INTS_M
#    Modification time : Tue Mar 25 00:17:44 2014

@<TRIPOS>MOLECULE
3my1_RFZ_1_INTS_M
   34     0     3     0     0
SMALL
NO_CHARGES


@<TRIPOS>ATOM
      1 CA         53.0780  -16.5985  -15.4500 C.3       1 GLC5        0.0000 
      2 CA         53.1390  -15.9500  -13.3010 C.3       3 GLL5        0.0000 
      3 CA         53.0170  -17.2470  -17.5990 C.3       2 GLP5        0.0000 
      4 CA         56.6630  -15.4575  -15.0255 C.3       1 GLC5        0.0000 
      5 CA         56.7040  -14.0230  -13.5060 C.3       3 GLL5        0.0000 
      6 CA         56.6220  -16.8920  -16.5450 C.3       2 GLP5        0.0000 
      7 CA         57.6015  -13.3390  -14.9820 C.3       1 GLC5        0.0000 
      8 CA         58.4990  -12.6550  -16.4580 C.3       2 GLP5        0.0000 
      9 CA         57.3770  -12.7280  -12.2130 C.3       1 GLC5        0.0000 
     10 CA         58.0500  -11.4330  -10.9200 C.3       2 GLP5        0.0000 
     11 CA         56.1010  -10.7720  -14.4375 C.3       1 GLC5        0.0000 
     12 CA         54.6140  -11.6690  -13.6530 C.3       3 GLL5        0.0000 
     13 CA         57.5880   -9.8750  -15.2220 C.3       2 GLP5        0.0000 
     14 CA         55.7070  -10.8810  -12.1645 C.3       1 GLC5        0.0000 
     15 CA         56.8000  -10.0930  -10.6760 C.3       2 GLP5        0.0000 
     16 CA         49.0575  -18.7140  -11.1785 C.3       1 GLC5        0.0000 
     17 CA         49.9600  -19.9480  -12.5130 C.3       3 GLL5        0.0000 
     18 CA         48.1550  -17.4800   -9.8440 C.3       2 GLP5        0.0000 
     19 CA         54.3693  -14.7363  -11.7260 C.3       1 GLC5        0.0000 
     20 CA         54.9170  -13.6500  -10.1300 C.3       2 GLP5        0.0000 
     21 CA         55.6733  -15.9653  -14.9710 C.3       1 GLC5        0.0000 
     22 CA         54.9450  -14.3820  -13.4510 C.3       3 GLL5        0.0000 
     23 CA         55.0087  -13.6092  -15.2812 C.3       1 GLC5        0.0000 
     24 CA         54.1930  -13.0160  -17.0840 C.3       2 GLP5        0.0000 
     25 CA         55.3708  -13.9262  -11.8043 C.3       1 GLC5        0.0000 
     26 CA         54.6180  -13.0793  -11.8567 C.3       1 GLC5        0.0000 
     27 CA         53.8420  -13.0339  -15.3059 C.3       1 GLC5        0.0000 
     28 CA         54.0240  -13.3480  -13.5140 C.3       3 GLL5        0.0000 
     29 CA         52.6050  -11.7614  -12.2864 C.3       1 GLC5        0.0000 
     30 CA         51.7190  -10.4710  -11.0450 C.3       2 GLP5        0.0000 
     31 CA         52.6775  -11.5749  -14.4619 C.3       1 GLC5        0.0000 
     32 CA         52.6630  -13.5950  -13.4720 C.3       3 GLL5        0.0000 
     33 CA         51.8640  -10.0980  -15.3960 C.3       2 GLP5        0.0000 
     34 CA         53.6810  -13.9495  -11.7748 C.3       1 GLC5        0.0000 
@<TRIPOS>BOND
@<TRIPOS>SUBSTRUCTURE
     1 GLC5        1 GROUP        1 X    GLC  0     ROOT GLC X 6
     2 GLP5        3 GROUP        1 Y    GLP  0     ROOT GLP Y 13
     3 GLL5        2 GROUP        1 Z    GLL  0     ROOT GLL Z 20
@<TRIPOS>SET

