#    Name: 3my1_RFZ_1_ligand
#    Modification time : Tue Mar 25 00:17:44 2014

@<TRIPOS>MOLECULE
3my1_RFZ_1_ligand
   32    34     1     0     0
SMALL
NO_CHARGES


@<TRIPOS>ATOM
      1 C6         53.1390  -15.9500  -13.3010 C.ar      1 RFZ336      0.0000 
      2 C5         54.5040  -15.6950  -13.3430 C.ar      1 RFZ336      0.0000 
      3 C4         54.9450  -14.3820  -13.4510 C.ar      1 RFZ336      0.0000 
      4 CL2        56.7040  -14.0230  -13.5060 Cl        1 RFZ336      0.0000 
      5 C3         54.0240  -13.3480  -13.5140 C.ar      1 RFZ336      0.0000 
      6 CL1        54.6140  -11.6690  -13.6530 Cl        1 RFZ336      0.0000 
      7 C2         52.6630  -13.5950  -13.4720 C.ar      1 RFZ336      0.0000 
      8 C7         52.2270  -14.9030  -13.3670 C.ar      1 RFZ336      0.0000 
      9 N2         50.9970  -15.4390  -13.3040 N.2       1 RFZ336      0.0000 
     10 C1         51.1420  -16.7780  -13.2010 C.2       1 RFZ336      0.0000 
     11 N1         52.4450  -17.0840  -13.2010 N.pl3     1 RFZ336      0.0000 
     12 C1'        52.9990  -18.4530  -13.1050 C.3       1 RFZ336      0.0000 
     13 O4'        52.0200  -19.3610  -13.6150 O.3       1 RFZ336      0.0000 
     14 C4'        51.4640  -20.1770  -12.5790 C.3       1 RFZ336      0.0000 
     15 C5'        49.9600  -19.9480  -12.5130 C.3       1 RFZ336      0.0000 
     16 O5'        49.4070  -19.9950  -13.8360 O.3       1 RFZ336      0.0000 
     17 C3'        52.1580  -19.7990  -11.2750 C.3       1 RFZ336      0.0000 
     18 O3'        52.6910  -20.9650  -10.6390 O.3       1 RFZ336      0.0000 
     19 C2'        53.2380  -18.7860  -11.6430 C.3       1 RFZ336      0.0000 
     20 O2'        54.5720  -19.2980  -11.4800 O.3       1 RFZ336      0.0000 
     21 H          55.1763  -16.4647  -13.2950 H         1 RFZ336      0.0000 
     22 H          51.9929  -12.8245  -13.5178 H         1 RFZ336      0.0000 
     23 H          50.4088  -17.4151  -13.1371 H         1 RFZ336      0.0000 
     24 H          53.9138  -18.5197  -13.6320 H         1 RFZ336      0.0000 
     25 H          51.6508  -21.2182  -12.7745 H         1 RFZ336      0.0000 
     26 H          49.7861  -18.9763  -12.0386 H         1 RFZ336      0.0000 
     27 H          49.5279  -20.7211  -11.8686 H         1 RFZ336      0.0000 
     28 H          51.4290  -19.2961  -10.6572 H         1 RFZ336      0.0000 
     29 H          53.0702  -17.8921  -11.0746 H         1 RFZ336      0.0000 
     30 H          49.6882  -20.8819  -14.2026 H         1 RFZ336      0.0000 
     31 H          53.6808  -20.8231  -10.6263 H         1 RFZ336      0.0000 
     32 H          54.7527  -19.8195  -12.3139 H         1 RFZ336      0.0000 
@<TRIPOS>BOND
     1    2    1 ar   
     2    8    1 ar   
     3   11    1 1    
     4    3    2 ar   
     5   21    2 1    
     6    4    3 1    
     7    5    3 ar   
     8    6    5 1    
     9    7    5 ar   
    10    8    7 ar   
    11   22    7 1    
    12    9    8 1    
    13   10    9 2    
    14   11   10 1    
    15   23   10 1    
    16   12   11 1    
    17   13   12 1    
    18   19   12 1    
    19   24   12 1    
    20   14   13 1    
    21   15   14 1    
    22   17   14 1    
    23   25   14 1    
    24   16   15 1    
    25   26   15 1    
    26   27   15 1    
    27   30   16 1    
    28   18   17 1    
    29   19   17 1    
    30   28   17 1    
    31   31   18 1    
    32   20   19 1    
    33   29   19 1    
    34   32   20 1    
@<TRIPOS>SUBSTRUCTURE
     1 RFZ336      1 GROUP   
@<TRIPOS>SET

