#    Name: 4l5m_HRC_1_INTS_M
#    Modification time : Tue Mar 25 09:50:30 2014

@<TRIPOS>MOLECULE
4l5m_HRC_1_INTS_M
   42     0     9     0     0
SMALL
NO_CHARGES


@<TRIPOS>ATOM
      1 N          16.7515   -5.4730   54.8845 N.am      2 SEC2        0.0000 
      2 N          15.7980   -5.2960   55.7820 N.am      8 SEL2        0.0000 
      3 N          17.7050   -5.6500   53.9870 N.am      5 SEP2        0.0000 
      4 CA         15.1060   -1.3515   60.7730 C.3       3 GLC5        0.0000 
      5 CA         14.3210   -2.9930   60.0150 C.3       9 GLL5        0.0000 
      6 CA         15.8910    0.2900   61.5310 C.3       6 GLP5        0.0000 
      7 CA         14.6920   -0.7675   59.5940 C.3       3 GLC5        0.0000 
      8 CA         14.7200   -2.5090   58.7700 C.3       9 GLL5        0.0000 
      9 CA         14.6640    0.9740   60.4180 C.3       6 GLP5        0.0000 
     10 CA         14.4240   -7.7420   53.4400 C.3       3 GLC5        0.0000 
     11 CA         13.1250   -8.4210   55.0700 C.3       9 GLL5        0.0000 
     12 CA         15.7230   -7.0630   51.8100 C.3       6 GLP5        0.0000 
     13 CA         14.9435   -9.3215   55.6615 C.3       3 GLC5        0.0000 
     14 CA         16.7620  -10.2220   56.2530 C.3       6 GLP5        0.0000 
     15 CA         10.5815   -2.4845   57.1480 C.3       3 GLC5        0.0000 
     16 CA         11.2790   -4.1530   57.1430 C.3       9 GLL5        0.0000 
     17 CA          9.8840   -0.8160   57.1530 C.3       6 GLP5        0.0000 
     18 CA         10.4395   -4.4160   59.1885 C.3       3 GLC5        0.0000 
     19 CA          9.6000   -4.6790   61.2340 C.3       6 GLP5        0.0000 
     20 CA          9.9100   -5.5245   59.3465 C.3       3 GLC5        0.0000 
     21 CA         10.2200   -6.3700   57.4590 C.3       9 GLL5        0.0000 
     22 CA          9.1765   -6.6705   55.6050 C.3       3 GLC5        0.0000 
     23 CA         10.1360   -7.7420   57.2550 C.3       9 GLL5        0.0000 
     24 CA          8.2170   -5.5990   53.9550 C.3       6 GLP5        0.0000 
     25 O           8.1665   -7.4040   58.4980 O.2       1 ALC1        0.0000 
     26 O           9.1230   -8.4560   57.8230 O.2       7 ALL1        0.0000 
     27 O           7.2100   -6.3520   59.1730 O.2       4 ALP1        0.0000 
     28 CA         16.0289   -3.1869   60.3922 C.3       3 GLC5        0.0000 
     29 CA         17.6070   -3.2830   61.3540 C.3       6 GLP5        0.0000 
     30 CA         12.7264   -2.4829   60.2948 C.3       3 GLC5        0.0000 
     31 CA         11.0020   -1.8750   61.1590 C.3       6 GLP5        0.0000 
     32 CA         13.5189   -1.8698   57.7111 C.3       3 GLC5        0.0000 
     33 CA         12.3610   -0.6750   56.8830 C.3       6 GLP5        0.0000 
     34 CA         16.2088   -4.8515   58.7754 C.3       3 GLC5        0.0000 
     35 CA         14.8330   -3.3780   57.6860 C.3       9 GLL5        0.0000 
     36 CA         17.8240   -5.5230   59.4800 C.3       6 GLP5        0.0000 
     37 CA          9.7927   -4.9817   55.8740 C.3       3 GLC5        0.0000 
     38 CA         11.2590   -5.6370   56.8790 C.3       9 GLL5        0.0000 
     39 CA          8.8410   -4.3310   54.5130 C.3       6 GLP5        0.0000 
     40 CA         11.1008   -7.2858   54.4716 C.3       3 GLC5        0.0000 
     41 CA         12.2210   -6.2430   56.0580 C.3       9 GLL5        0.0000 
     42 CA         10.3260   -6.5440   52.9420 C.3       6 GLP5        0.0000 
@<TRIPOS>BOND
@<TRIPOS>SUBSTRUCTURE
     1 ALC1       25 GROUP        1 X    ALC  0     ROOT ALC X 1
     2 SEC2        1 GROUP        1 X    SEC  0     **** SEC X 2
     3 GLC5        4 GROUP        1 X    GLC  0     **** GLC X 6
     4 ALP1       27 GROUP        1 Y    ALP  0     ROOT ALP Y 8
     5 SEP2        3 GROUP        1 Y    SEP  0     **** SEP Y 9
     6 GLP5        6 GROUP        1 Y    GLP  0     **** GLP Y 13
     7 ALL1       26 GROUP        1 Z    ALL  0     ROOT ALL Z 15
     8 SEL2        2 GROUP        1 Z    SEL  0     **** SEL Z 16
     9 GLL5        5 GROUP        1 Z    GLL  0     **** GLL Z 20
@<TRIPOS>SET

