#    Name: 4l5m_HRC_1_ligand
#    Modification time : Tue Mar 25 09:50:30 2014

@<TRIPOS>MOLECULE
4l5m_HRC_1_ligand
   34    35     1     0     0
SMALL
NO_CHARGES


@<TRIPOS>ATOM
      1 O1         15.7980   -5.2960   55.7820 O.2       1 HRC302      0.0000 
      2 S          14.6740   -5.7320   56.5670 S.o2      1 HRC302      0.0000 
      3 O2         14.9030   -7.0890   56.9670 O.2       1 HRC302      0.0000 
      4 C9         14.5570   -4.7450   57.8310 C.ar      1 HRC302      0.0000 
      5 C14        14.1510   -5.2190   59.0800 C.ar      1 HRC302      0.0000 
      6 C13        14.0420   -4.3520   60.1670 C.ar      1 HRC302      0.0000 
      7 C12        14.3210   -2.9930   60.0150 C.ar      1 HRC302      0.0000 
      8 C11        14.7200   -2.5090   58.7700 C.ar      1 HRC302      0.0000 
      9 C10        14.8330   -3.3780   57.6860 C.ar      1 HRC302      0.0000 
     10 N          13.3160   -5.5010   55.7150 N.pl3     1 HRC302      0.0000 
     11 C1         12.2210   -6.2430   56.0580 C.ar      1 HRC302      0.0000 
     12 C6         12.1420   -7.6400   55.8990 C.ar      1 HRC302      0.0000 
     13 C7         13.1250   -8.4210   55.0700 C.3       1 HRC302      0.0000 
     14 C2         11.2590   -5.6370   56.8790 C.ar      1 HRC302      0.0000 
     15 C8         11.2790   -4.1530   57.1430 C.3       1 HRC302      0.0000 
     16 C3         10.2200   -6.3700   57.4590 C.ar      1 HRC302      0.0000 
     17 C4         10.1360   -7.7420   57.2550 C.ar      1 HRC302      0.0000 
     18 O3          9.1230   -8.4560   57.8230 O.3       1 HRC302      0.0000 
     19 C5         11.0980   -8.3740   56.4780 C.ar      1 HRC302      0.0000 
     20 H          13.9300   -6.2188   59.1991 H         1 HRC302      0.0000 
     21 H          13.7545   -4.7156   61.0857 H         1 HRC302      0.0000 
     22 H          14.2331   -2.3571   60.8120 H         1 HRC302      0.0000 
     23 H          14.9311   -1.5102   58.6513 H         1 HRC302      0.0000 
     24 H          15.1227   -3.0148   56.7654 H         1 HRC302      0.0000 
     25 H          13.3952   -4.8285   55.0035 H         1 HRC302      0.0000 
     26 H           9.5182   -5.8900   58.0371 H         1 HRC302      0.0000 
     27 H          11.0486   -9.3919   56.3224 H         1 HRC302      0.0000 
     28 H          14.0593   -8.3249   55.4133 H         1 HRC302      0.0000 
     29 H          12.9133   -9.3983   55.0658 H         1 HRC302      0.0000 
     30 H          13.1303   -8.1181   54.1170 H         1 HRC302      0.0000 
     31 H          12.1313   -3.8649   57.5795 H         1 HRC302      0.0000 
     32 H          11.1887   -3.6244   56.2990 H         1 HRC302      0.0000 
     33 H          10.5318   -3.8729   57.7457 H         1 HRC302      0.0000 
     34 H           8.5352   -7.7721   58.2553 H         1 HRC302      0.0000 
@<TRIPOS>BOND
     1    2    1 2    
     2    3    2 2    
     3    4    2 1    
     4   10    2 1    
     5    5    4 ar   
     6    9    4 ar   
     7    6    5 ar   
     8   20    5 1    
     9    7    6 ar   
    10   21    6 1    
    11    8    7 ar   
    12   22    7 1    
    13    9    8 ar   
    14   23    8 1    
    15   24    9 1    
    16   11   10 1    
    17   25   10 1    
    18   12   11 ar   
    19   14   11 ar   
    20   13   12 1    
    21   19   12 ar   
    22   28   13 1    
    23   29   13 1    
    24   30   13 1    
    25   15   14 1    
    26   16   14 ar   
    27   31   15 1    
    28   32   15 1    
    29   33   15 1    
    30   17   16 ar   
    31   26   16 1    
    32   18   17 1    
    33   19   17 ar   
    34   34   18 1    
    35   27   19 1    
@<TRIPOS>SUBSTRUCTURE
     1 HRC302      1 GROUP   
@<TRIPOS>SET

