#    Name: 2vx1_7X8_1_INTS_M
#    Modification time : Tue Mar 25 03:13:29 2014

@<TRIPOS>MOLECULE
2vx1_7X8_1_INTS_M
   65     0     9     0     0
SMALL
NO_CHARGES


@<TRIPOS>ATOM
      1 O          15.0900    7.5475   11.1180 O.2       1 ALC1        0.0000 
      2 O          13.7070    7.4440   11.5360 O.2       7 ALL1        0.0000 
      3 O          16.4730    7.6510   10.7000 O.2       4 ALP1        0.0000 
      4 CA         12.8425    5.5535   13.7170 C.3       3 GLC5        0.0000 
      5 CA         13.0600    6.2240   11.8450 C.3       9 GLL5        0.0000 
      6 CA         12.6250    4.8830   15.5890 C.3       6 GLP5        0.0000 
      7 CA         14.8095    5.5185   10.9160 C.3       3 GLC5        0.0000 
      8 CA         16.5590    4.8130    9.9870 C.3       6 GLP5        0.0000 
      9 CA         12.7435    4.7300   10.4010 C.3       3 GLC5        0.0000 
     10 CA         12.4270    3.2360    8.9570 C.3       6 GLP5        0.0000 
     11 N          15.4485    5.2455   12.2755 N.am      2 SEC2        0.0000 
     12 N          13.9380    5.2740   12.1930 N.am      8 SEL2        0.0000 
     13 N          16.9590    5.2170   12.3580 N.am      5 SEP2        0.0000 
     14 CA         15.1970    4.2680   13.5730 C.3       3 GLC5        0.0000 
     15 CA         13.4410    4.0610   12.4820 C.3       9 GLL5        0.0000 
     16 CA         16.9530    4.4750   14.6640 C.3       6 GLP5        0.0000 
     17 CA         14.9565    3.6790   11.3265 C.3       3 GLC5        0.0000 
     18 CA         16.4720    3.2970   10.1710 C.3       6 GLP5        0.0000 
     19 CA         10.0740    6.3105   13.2045 C.3       3 GLC5        0.0000 
     20 CA         11.2630    4.8390   12.0520 C.3       9 GLL5        0.0000 
     21 CA          8.8850    7.7820   14.3570 C.3       6 GLP5        0.0000 
     22 CA         10.8935    3.9720   14.6110 C.3       3 GLC5        0.0000 
     23 CA          9.1620    3.0610   13.6330 C.3       9 GLL5        0.0000 
     24 CA          7.4745    3.5835   14.4745 C.3       3 GLC5        0.0000 
     25 CA          5.7870    4.1060   15.3160 C.3       6 GLP5        0.0000 
     26 CA         11.1165    3.7815   15.6390 C.3       3 GLC5        0.0000 
     27 CA          9.6080    2.6800   15.6890 C.3       9 GLL5        0.0000 
     28 CA          9.6580    3.8150   17.3870 C.3       3 GLC5        0.0000 
     29 CA          9.7080    4.9500   19.0850 C.3       6 GLP5        0.0000 
     30 CA          7.6975    3.3930   15.5025 C.3       3 GLC5        0.0000 
     31 CA         10.4155    1.0365   15.4340 C.3       3 GLC5        0.0000 
     32 CA         11.2230   -0.6070   15.1790 C.3       6 GLP5        0.0000 
     33 CA          6.8160    2.4895   14.2040 C.3       3 GLC5        0.0000 
     34 CA          8.5080    1.9160   13.9970 C.3       9 GLL5        0.0000 
     35 CA          5.1240    3.0630   14.4110 C.3       6 GLP5        0.0000 
     36 CA          8.1415   -0.8960   13.5860 C.3       3 GLC5        0.0000 
     37 CA          7.8920    1.1020   13.0770 C.3       9 GLL5        0.0000 
     38 CA          8.3910   -2.8940   14.0950 C.3       6 GLP5        0.0000 
     39 CA         10.5590    3.2075    9.3300 C.3       3 GLC5        0.0000 
     40 CA          8.6910    3.1790    9.7030 C.3       9 GLL5        0.0000 
     41 CA          9.4505    1.8265    8.5230 C.3       3 GLC5        0.0000 
     42 CA         10.2100    0.4740    7.3430 C.3       6 GLP5        0.0000 
     43 CA         12.2973    2.0640   11.9393 C.3       3 GLC5        0.0000 
     44 CA         11.8270    0.2040   11.4230 C.3       6 GLP5        0.0000 
     45 CA         12.3201    4.6322   13.9214 C.3       3 GLC5        0.0000 
     46 CA         12.2211    3.8088   10.6054 C.3       3 GLC5        0.0000 
     47 CA         12.0940    3.7870   12.4290 C.3       9 GLL5        0.0000 
     48 CA          7.0545    3.2810   12.3863 C.3       3 GLC5        0.0000 
     49 CA          9.2290    3.4730   12.3140 C.3       9 GLL5        0.0000 
     50 CA          5.1860    3.4930   12.9320 C.3       6 GLP5        0.0000 
     51 CA          6.5595    2.3970   12.6725 C.3       3 GLC5        0.0000 
     52 CA          9.7933    0.5941   14.3125 C.3       3 GLC5        0.0000 
     53 CA         11.9827   10.2965   12.4087 C.3       3 GLC5        0.0000 
     54 CA         11.1970    9.9050   10.4050 C.3       9 GLL5        0.0000 
     55 CA         12.3830   10.1190   14.4640 C.3       6 GLP5        0.0000 
     56 CA         12.9802    9.7010    9.0077 C.3       3 GLC5        0.0000 
     57 CA         14.3780    8.9280    7.6620 C.3       6 GLP5        0.0000 
     58 CA         12.9822   10.2510   12.6373 C.3       3 GLC5        0.0000 
     59 CA         13.3100   10.9820   10.6080 C.3       9 GLL5        0.0000 
     60 CA         13.9798    9.6555    9.2363 C.3       3 GLC5        0.0000 
     61 CA         13.8530    9.7840   11.0130 C.3       9 GLL5        0.0000 
     62 CA         12.3945    9.3918   12.7138 C.3       3 GLC5        0.0000 
     63 CA         13.0770    8.6370   11.1110 C.3       9 GLL5        0.0000 
     64 CA         13.3920    8.7963    9.3128 C.3       3 GLC5        0.0000 
     65 CA         10.1233    1.1687   11.8573 C.3       3 GLC5        0.0000 
@<TRIPOS>BOND
@<TRIPOS>SUBSTRUCTURE
     1 ALC1        1 GROUP        1 X    ALC  0     ROOT ALC X 1
     2 SEC2       11 GROUP        1 X    SEC  0     **** SEC X 2
     3 GLC5        4 GROUP        1 X    GLC  0     **** GLC X 6
     4 ALP1        3 GROUP        1 Y    ALP  0     ROOT ALP Y 8
     5 SEP2       13 GROUP        1 Y    SEP  0     **** SEP Y 9
     6 GLP5        6 GROUP        1 Y    GLP  0     **** GLP Y 13
     7 ALL1        2 GROUP        1 Z    ALL  0     ROOT ALL Z 15
     8 SEL2       12 GROUP        1 Z    SEL  0     **** SEL Z 16
     9 GLL5        5 GROUP        1 Z    GLL  0     **** GLL Z 20
@<TRIPOS>SET

