#    Name: 2vx1_7X8_1_ligand
#    Modification time : Tue Mar 25 03:13:29 2014

@<TRIPOS>MOLECULE
2vx1_7X8_1_ligand
   41    44     1     0     0
SMALL
NO_CHARGES


@<TRIPOS>ATOM
      1 N2         13.7070    7.4440   11.5360 N.pl3     1 7X81889     0.0000 
      2 C7         13.0600    6.2240   11.8450 C.ar      1 7X81889     0.0000 
      3 N3         13.9380    5.2740   12.1930 N.ar      1 7X81889     0.0000 
      4 C8         13.4410    4.0610   12.4820 C.ar      1 7X81889     0.0000 
      5 C9         12.0940    3.7870   12.4290 C.ar      1 7X81889     0.0000 
      6 C10        11.2630    4.8390   12.0520 C.ar      1 7X81889     0.0000 
      7 N4          9.8770    4.6630   11.9630 N.pl3     1 7X81889     0.0000 
      8 C11         9.2290    3.4730   12.3140 C.ar      1 7X81889     0.0000 
      9 C12         9.1620    3.0610   13.6330 C.ar      1 7X81889     0.0000 
     10 O2          9.7330    3.7180   14.7070 O.3       1 7X81889     0.0000 
     11 C13         9.6080    2.6800   15.6890 C.3       1 7X81889     0.0000 
     12 O3          8.5880    1.7080   15.3520 O.3       1 7X81889     0.0000 
     13 C14         8.5080    1.9160   13.9970 C.ar      1 7X81889     0.0000 
     14 C15         7.8920    1.1020   13.0770 C.ar      1 7X81889     0.0000 
     15 C16         7.9740    1.5000   11.7490 C.ar      1 7X81889     0.0000 
     16 C17         8.6170    2.6650   11.3670 C.ar      1 7X81889     0.0000 
     17 CL1         8.6910    3.1790    9.7030 Cl        1 7X81889     0.0000 
     18 N5         11.7380    6.0490   11.7640 N.ar      1 7X81889     0.0000 
     19 N1          9.4380   10.6280    8.9260 N.am      1 7X81889     0.0000 
     20 C1          9.7620    9.9730   10.0940 C.2       1 7X81889     0.0000 
     21 O1          8.9560    9.4620   10.8630 O.2       1 7X81889     0.0000 
     22 C2         11.1970    9.9050   10.4050 C.ar      1 7X81889     0.0000 
     23 C3         11.9680   11.0430   10.3020 C.ar      1 7X81889     0.0000 
     24 C4         13.3100   10.9820   10.6080 C.ar      1 7X81889     0.0000 
     25 C5         13.8530    9.7840   11.0130 C.ar      1 7X81889     0.0000 
     26 C6         13.0770    8.6370   11.1110 C.ar      1 7X81889     0.0000 
     27 C18        11.7350    8.6920   10.8160 C.ar      1 7X81889     0.0000 
     28 H          14.7667    7.4657   11.6325 H         1 7X81889     0.0000 
     29 H          14.0943    3.2814   12.7609 H         1 7X81889     0.0000 
     30 H          11.7215    2.8794   12.6489 H         1 7X81889     0.0000 
     31 H           9.2949    5.4633   11.6158 H         1 7X81889     0.0000 
     32 H           9.3803    3.1251   16.6871 H         1 7X81889     0.0000 
     33 H          10.5869    2.1596   15.8201 H         1 7X81889     0.0000 
     34 H           7.4063    0.2621   13.3438 H         1 7X81889     0.0000 
     35 H           7.5354    0.8991   11.0154 H         1 7X81889     0.0000 
     36 H          10.2051   10.9956    8.4003 H         1 7X81889     0.0000 
     37 H           8.4639   10.6788    8.7056 H         1 7X81889     0.0000 
     38 H          11.5447   11.9302    9.9992 H         1 7X81889     0.0000 
     39 H          13.8979   11.8214   10.5345 H         1 7X81889     0.0000 
     40 H          14.8640    9.7315   11.2515 H         1 7X81889     0.0000 
     41 H          11.1428    7.8649   10.8951 H         1 7X81889     0.0000 
@<TRIPOS>BOND
     1    2    1 1    
     2   26    1 1    
     3   28    1 1    
     4    3    2 ar   
     5   18    2 ar   
     6    4    3 ar   
     7    5    4 ar   
     8   29    4 1    
     9    6    5 ar   
    10   30    5 1    
    11    7    6 1    
    12   18    6 ar   
    13    8    7 1    
    14   31    7 1    
    15    9    8 ar   
    16   16    8 ar   
    17   10    9 1    
    18   13    9 ar   
    19   11   10 1    
    20   12   11 1    
    21   32   11 1    
    22   33   11 1    
    23   13   12 1    
    24   14   13 ar   
    25   15   14 ar   
    26   34   14 1    
    27   16   15 ar   
    28   35   15 1    
    29   17   16 1    
    30   20   19 am   
    31   36   19 1    
    32   37   19 1    
    33   21   20 2    
    34   22   20 1    
    35   23   22 ar   
    36   27   22 ar   
    37   24   23 ar   
    38   38   23 1    
    39   25   24 ar   
    40   39   24 1    
    41   26   25 ar   
    42   40   25 1    
    43   27   26 ar   
    44   41   27 1    
@<TRIPOS>SUBSTRUCTURE
     1 7X81889     1 GROUP   
@<TRIPOS>SET

