#    Name: 3nbz_GTP_2_INTS_M
#    Modification time : Tue Mar 25 01:14:39 2014

@<TRIPOS>MOLECULE
3nbz_GTP_2_INTS_M
   75     0    15     0     0
SMALL
NO_CHARGES


@<TRIPOS>ATOM
      1 Zn         -1.2890 -111.5230   39.6825 Zn        4 ZIC7        0.0000 
      2 Zn         -1.2620 -110.3300   38.9990 Zn       14 ZIL7        0.0000 
      3 Zn         -1.3160 -112.7160   40.3660 Zn        9 ZIP7        0.0000 
      4 N          -2.5945 -109.7585   39.4805 N.am      2 SEC2        0.0000 
      5 N          -1.2620 -110.3300   38.9990 N.am     12 SEL2        0.0000 
      6 N          -3.9270 -109.1870   39.9620 N.am      7 SEP2        0.0000 
      7 N           0.1830 -107.3140   37.5780 N.am      2 SEC2        0.0000 
      8 N          -0.0560 -108.1880   38.5280 N.am     12 SEL2        0.0000 
      9 N           0.4220 -106.4400   36.6280 N.am      7 SEP2        0.0000 
     10 NZ          1.8780 -110.8005   41.0875 N.4       3 LYC4        0.0000 
     11 NZ          0.7530 -109.6900   40.2670 N.4      13 LYL4        0.0000 
     12 NZ          3.0030 -111.9110   41.9080 N.4       8 LYP4        0.0000 
     13 N           1.3345 -109.3665   41.3950 N.am      2 SEC2        0.0000 
     14 N           0.7530 -109.6900   40.2670 N.am     12 SEL2        0.0000 
     15 N           1.9160 -109.0430   42.5230 N.am      7 SEP2        0.0000 
     16 N           1.9045 -109.6115   36.9015 N.am      2 SEC2        0.0000 
     17 N           0.9950 -110.3640   37.8120 N.am     12 SEL2        0.0000 
     18 N           2.8140 -108.8590   35.9910 N.am      7 SEP2        0.0000 
     19 Zn         -0.9800 -112.5395   39.1045 Zn        4 ZIC7        0.0000 
     20 Zn         -0.6440 -112.3630   37.8430 Zn       14 ZIL7        0.0000 
     21 N          -0.5845 -113.9900   37.7145 N.am      2 SEC2        0.0000 
     22 N          -0.6440 -112.3630   37.8430 N.am     12 SEL2        0.0000 
     23 N          -0.5250 -115.6170   37.5860 N.am      7 SEP2        0.0000 
     24 N           2.5520 -113.1395   36.1810 N.am      2 SEC2        0.0000 
     25 N           1.7780 -112.7080   37.3080 N.am     12 SEL2        0.0000 
     26 N           3.3260 -113.5710   35.0540 N.am      7 SEP2        0.0000 
     27 N          -1.0900 -115.0640   35.0975 N.am      2 SEC2        0.0000 
     28 N          -0.4390 -113.8450   35.1290 N.am     12 SEL2        0.0000 
     29 N          -1.7410 -116.2830   35.0660 N.am      7 SEP2        0.0000 
     30 N          -0.9965 -114.4070   33.8255 N.am      2 SEC2        0.0000 
     31 N          -1.5540 -114.9690   32.5220 N.am      7 SEP2        0.0000 
     32 CA          1.8025 -110.3980   33.7090 C.3       5 GLC5        0.0000 
     33 CA          0.6840 -111.5600   32.8240 C.3      15 GLL5        0.0000 
     34 CA          2.9210 -109.2360   34.5940 C.3      10 GLP5        0.0000 
     35 CA          1.6365 -113.1140   33.6380 C.3       5 GLC5        0.0000 
     36 CA          2.5890 -114.6680   34.4520 C.3      10 GLP5        0.0000 
     37 CA         -0.3745 -109.9415   33.4855 C.3       5 GLC5        0.0000 
     38 CA         -1.4330 -108.3230   34.1470 C.3      10 GLP5        0.0000 
     39 CA         -0.6885 -109.6170   31.5255 C.3       5 GLC5        0.0000 
     40 CA          0.6440 -111.3570   31.3140 C.3      15 GLL5        0.0000 
     41 CA         -2.0210 -107.8770   31.7370 C.3      10 GLP5        0.0000 
     42 CA         -1.9590 -110.2640   31.3285 C.3       5 GLC5        0.0000 
     43 CA         -0.6690 -111.7870   30.7030 C.3      15 GLL5        0.0000 
     44 CA         -3.2490 -108.7410   31.9540 C.3      10 GLP5        0.0000 
     45 O          -2.1360 -110.9400   28.4965 O.2       1 ALC1        0.0000 
     46 O          -0.9980 -110.8530   29.7040 O.2      11 ALL1        0.0000 
     47 O          -3.2740 -111.0270   27.2890 O.2       6 ALP1        0.0000 
     48 CA         -0.7305 -114.7145   31.3620 C.3       5 GLC5        0.0000 
     49 CA         -0.3680 -113.1150   30.0520 C.3      15 GLL5        0.0000 
     50 CA         -1.0930 -116.3140   32.6720 C.3      10 GLP5        0.0000 
     51 O          -2.2805 -113.9145   29.0805 O.2       1 ALC1        0.0000 
     52 O          -1.1420 -113.2780   28.8930 O.2      11 ALL1        0.0000 
     53 O          -3.4190 -114.5510   29.2680 O.2       6 ALP1        0.0000 
     54 CA          2.9750 -113.2180   30.1905 C.3       5 GLC5        0.0000 
     55 CA          1.1000 -112.9980   29.7110 C.3      15 GLL5        0.0000 
     56 CA          4.8500 -113.4380   30.6700 C.3      10 GLP5        0.0000 
     57 N           3.6380 -116.6090   31.5575 N.am      2 SEC2        0.0000 
     58 N           2.4840 -116.2680   30.5380 N.am     12 SEL2        0.0000 
     59 N           4.7920 -116.9500   32.5770 N.am      7 SEP2        0.0000 
     60 CA          2.3970 -117.8385   30.1870 C.3       5 GLC5        0.0000 
     61 CA          2.9630 -116.1160   29.2860 C.3      15 GLL5        0.0000 
     62 CA          1.8310 -119.5610   31.0880 C.3      10 GLP5        0.0000 
     63 N           4.0005 -119.2385   29.4295 N.am      2 SEC2        0.0000 
     64 N           4.1740 -118.0120   28.8580 N.am     12 SEL2        0.0000 
     65 N           3.8270 -120.4650   30.0010 N.am      7 SEP2        0.0000 
     66 N           3.2035 -119.0810   28.3650 N.am      2 SEC2        0.0000 
     67 N           2.2330 -120.1500   27.8720 N.am      7 SEP2        0.0000 
     68 O           4.9655 -117.2285   26.5335 O.2       1 ALC1        0.0000 
     69 O           4.0900 -116.4750   27.2080 O.2      11 ALL1        0.0000 
     70 O           5.8410 -117.9820   25.8590 O.2       6 ALP1        0.0000 
     71 O           4.6375 -116.0645   24.6810 O.2       1 ALC1        0.0000 
     72 O           3.9520 -114.8220   25.5510 O.2      11 ALL1        0.0000 
     73 O           5.3230 -117.3070   23.8110 O.2       6 ALP1        0.0000 
     74 CA          3.7950 -114.4702   29.8603 C.3       5 GLC5        0.0000 
     75 CA          2.5170 -114.8890   28.8150 C.3      15 GLL5        0.0000 
@<TRIPOS>BOND
@<TRIPOS>SUBSTRUCTURE
     1 ALC1       45 GROUP        1 X    ALC  0     ROOT ALC X 1
     2 SEC2        4 GROUP        1 X    SEC  0     **** SEC X 2
     3 LYC4       10 GROUP        1 X    LYC  0     **** LYC X 4
     4 ZIC7        1 GROUP        1 X    ZIC  0     **** ZIC X 5
     5 GLC5       32 GROUP        1 X    GLC  0     **** GLC X 6
     6 ALP1       47 GROUP        1 Y    ALP  0     ROOT ALP Y 8
     7 SEP2        6 GROUP        1 Y    SEP  0     **** SEP Y 9
     8 LYP4       12 GROUP        1 Y    LYP  0     **** LYP Y 11
     9 ZIP7        3 GROUP        1 Y    ZIP  0     **** ZIP Y 12
    10 GLP5       34 GROUP        1 Y    GLP  0     **** GLP Y 13
    11 ALL1       46 GROUP        1 Z    ALL  0     ROOT ALL Z 15
    12 SEL2        5 GROUP        1 Z    SEL  0     **** SEL Z 16
    13 LYL4       11 GROUP        1 Z    LYL  0     **** LYL Z 18
    14 ZIL7        2 GROUP        1 Z    ZIL  0     **** ZIL Z 19
    15 GLL5       33 GROUP        1 Z    GLL  0     **** GLL Z 20
@<TRIPOS>SET

