#    Name: 3nbz_GTP_2_ligand
#    Modification time : Tue Mar 25 01:14:39 2014

@<TRIPOS>MOLECULE
3nbz_GTP_2_ligand
   44    46     1     0     0
SMALL
NO_CHARGES


@<TRIPOS>ATOM
      1 PG          0.0820 -109.6370   38.9180 P.3       1 GTP217      0.0000 
      2 O1G        -1.2620 -110.3300   38.9990 O.co2     1 GTP217      0.0000 
      3 O2G        -0.0560 -108.1880   38.5280 O.co2     1 GTP217      0.0000 
      4 O3G         0.7530 -109.6900   40.2670 O.co2     1 GTP217      0.0000 
      5 O3B         0.9950 -110.3640   37.8120 O.3       1 GTP217      0.0000 
      6 PB          0.5940 -111.7850   37.1850 P.3       1 GTP217      0.0000 
      7 O1B        -0.6440 -112.3630   37.8430 O.co2     1 GTP217      0.0000 
      8 O2B         1.7780 -112.7080   37.3080 O.co2     1 GTP217      0.0000 
      9 O3A         0.2740 -111.4590   35.6460 O.3       1 GTP217      0.0000 
     10 PA         -0.7620 -112.3950   34.8560 P.3       1 GTP217      0.0000 
     11 O1A        -2.1810 -112.0410   35.2730 O.co2     1 GTP217      0.0000 
     12 O2A        -0.4390 -113.8450   35.1290 O.co2     1 GTP217      0.0000 
     13 O5'        -0.5560 -112.0300   33.2980 O.3       1 GTP217      0.0000 
     14 C5'         0.6840 -111.5600   32.8240 C.3       1 GTP217      0.0000 
     15 C4'         0.6440 -111.3570   31.3140 C.3       1 GTP217      0.0000 
     16 O4'         1.6300 -112.1730   30.7200 O.3       1 GTP217      0.0000 
     17 C3'        -0.6690 -111.7870   30.7030 C.3       1 GTP217      0.0000 
     18 O3'        -0.9980 -110.8530   29.7040 O.3       1 GTP217      0.0000 
     19 C2'        -0.3680 -113.1150   30.0520 C.3       1 GTP217      0.0000 
     20 O2'        -1.1420 -113.2780   28.8930 O.3       1 GTP217      0.0000 
     21 C1'         1.1000 -112.9980   29.7110 C.3       1 GTP217      0.0000 
     22 N9          1.7580 -114.3120   29.7960 N.pl3     1 GTP217      0.0000 
     23 C8          1.7540 -115.1750   30.8590 C.2       1 GTP217      0.0000 
     24 N7          2.4840 -116.2680   30.5380 N.2       1 GTP217      0.0000 
     25 C5          2.9630 -116.1160   29.2860 C.2       1 GTP217      0.0000 
     26 C6          3.7600 -116.9180   28.4700 C.2       1 GTP217      0.0000 
     27 O6          4.1740 -118.0120   28.8580 O.2       1 GTP217      0.0000 
     28 N1          4.0900 -116.4750   27.2080 N.am      1 GTP217      0.0000 
     29 C2          3.6350 -115.2530   26.7640 C.2       1 GTP217      0.0000 
     30 N2          3.9520 -114.8220   25.5510 N.pl3     1 GTP217      0.0000 
     31 N3          2.8530 -114.4680   27.5770 N.2       1 GTP217      0.0000 
     32 C4          2.5170 -114.8890   28.8150 C.2       1 GTP217      0.0000 
     33 H           1.5048 -112.2648   33.0408 H         1 GTP217      0.0000 
     34 H           0.9631 -110.5946   33.2796 H         1 GTP217      0.0000 
     35 H           0.8108 -110.3245   31.0905 H         1 GTP217      0.0000 
     36 H          -1.3827 -111.9035   31.4458 H         1 GTP217      0.0000 
     37 H          -0.4875 -113.8778   30.7730 H         1 GTP217      0.0000 
     38 H           1.2022 -112.5725   28.7546 H         1 GTP217      0.0000 
     39 H           1.3017 -115.0204   31.6962 H         1 GTP217      0.0000 
     40 H           4.6797 -117.0602   26.5936 H         1 GTP217      0.0000 
     41 H           3.6140 -113.9137   25.3045 H         1 GTP217      0.0000 
     42 H           4.5004 -115.4442   24.9923 H         1 GTP217      0.0000 
     43 H          -1.2337 -111.4033   28.9029 H         1 GTP217      0.0000 
     44 H          -1.9440 -113.7972   29.1884 H         1 GTP217      0.0000 
@<TRIPOS>BOND
     1    2    1 ar   
     2    3    1 ar   
     3    4    1 ar   
     4    5    1 1    
     5    6    5 1    
     6    7    6 ar   
     7    8    6 ar   
     8    9    6 1    
     9   10    9 1    
    10   11   10 ar   
    11   12   10 ar   
    12   13   10 1    
    13   14   13 1    
    14   15   14 1    
    15   33   14 1    
    16   34   14 1    
    17   16   15 1    
    18   17   15 1    
    19   35   15 1    
    20   21   16 1    
    21   18   17 1    
    22   19   17 1    
    23   36   17 1    
    24   43   18 1    
    25   20   19 1    
    26   21   19 1    
    27   37   19 1    
    28   44   20 1    
    29   22   21 1    
    30   38   21 1    
    31   23   22 1    
    32   32   22 1    
    33   24   23 2    
    34   39   23 1    
    35   25   24 1    
    36   26   25 1    
    37   32   25 2    
    38   27   26 2    
    39   28   26 am   
    40   29   28 1    
    41   40   28 1    
    42   30   29 1    
    43   31   29 2    
    44   41   30 1    
    45   42   30 1    
    46   32   31 1    
@<TRIPOS>SUBSTRUCTURE
     1 GTP217      1 GROUP   
@<TRIPOS>SET

