#    Name: 2o23_NAD_2_INTS_M
#    Modification time : Tue Mar 25 21:53:09 2014

@<TRIPOS>MOLECULE
2o23_NAD_2_INTS_M
  104     0     9     0     0
SMALL
NO_CHARGES


@<TRIPOS>ATOM
      1 N          48.2860   41.0715    6.5745 N.am      2 SEC2        0.0000 
      2 N          46.9690   41.0220    6.7360 N.am      8 SEL2        0.0000 
      3 N          49.6030   41.1210    6.4130 N.am      5 SEP2        0.0000 
      4 CA         46.8065   43.9620    1.5625 C.3       3 GLC5        0.0000 
      5 CA         46.6620   44.2590    3.3630 C.3       9 GLL5        0.0000 
      6 CA         46.9510   43.6650   -0.2380 C.3       6 GLP5        0.0000 
      7 CA         48.8545   43.2335    4.5930 C.3       3 GLC5        0.0000 
      8 CA         47.8390   44.8880    4.1010 C.3       9 GLL5        0.0000 
      9 CA         49.8700   41.5790    5.0850 C.3       6 GLP5        0.0000 
     10 O          49.5030   45.7390    2.5385 O.2       1 ALC1        0.0000 
     11 O          49.0970   44.4590    3.5960 O.2       7 ALL1        0.0000 
     12 O          49.9090   47.0190    1.4810 O.2       4 ALP1        0.0000 
     13 O          49.3770   44.6550    2.3065 O.2       1 ALC1        0.0000 
     14 O          49.6570   44.8510    1.0170 O.2       4 ALP1        0.0000 
     15 O          49.3370   47.0960    2.6730 O.2       1 ALC1        0.0000 
     16 O          48.7650   47.1730    3.8650 O.2       7 ALL1        0.0000 
     17 CA         46.8730   45.0420    1.1765 C.3       3 GLC5        0.0000 
     18 CA         46.7950   46.4190    2.5910 C.3       9 GLL5        0.0000 
     19 CA         45.1280   45.8235    1.4075 C.3       3 GLC5        0.0000 
     20 CA         43.4610   45.2280    0.2240 C.3       6 GLP5        0.0000 
     21 CA         46.8855   50.3635    2.4135 C.3       3 GLC5        0.0000 
     22 CA         45.3830   49.6070    1.5960 C.3       9 GLL5        0.0000 
     23 CA         48.3880   51.1200    3.2310 C.3       6 GLP5        0.0000 
     24 CA         46.9070   51.5110    0.8160 C.3       3 GLC5        0.0000 
     25 CA         45.2900   50.5830    0.6190 C.3       9 GLL5        0.0000 
     26 CA         48.5240   52.4390    1.0130 C.3       6 GLP5        0.0000 
     27 CA         46.2105   51.8460   -0.9060 C.3       3 GLC5        0.0000 
     28 CA         47.1310   53.1090   -2.4310 C.3       6 GLP5        0.0000 
     29 CA         44.0235   50.3695   -0.7800 C.3       3 GLC5        0.0000 
     30 CA         42.7570   50.1560   -2.1790 C.3       6 GLP5        0.0000 
     31 O          44.7490   52.9035   -0.1185 O.2       1 ALC1        0.0000 
     32 O          44.6160   51.7400    0.7810 O.2       7 ALL1        0.0000 
     33 O          44.8820   54.0670   -1.0180 O.2       4 ALP1        0.0000 
     34 N          45.5615   51.0875   -1.8290 N.am      2 SEC2        0.0000 
     35 N          45.9420   50.3640   -0.5430 N.am      8 SEL2        0.0000 
     36 N          45.1810   51.8110   -3.1150 N.am      5 SEP2        0.0000 
     37 CA         48.4740   48.3005   -1.1215 C.3       3 GLC5        0.0000 
     38 CA         46.6890   49.2420   -0.7640 C.3       9 GLL5        0.0000 
     39 CA         50.2590   47.3590   -1.4790 C.3       6 GLP5        0.0000 
     40 CA         47.7925   50.2015    0.5150 C.3       3 GLC5        0.0000 
     41 CA         48.8960   51.1610    1.7940 C.3       6 GLP5        0.0000 
     42 CA         46.9100   51.1755   -1.5975 C.3       3 GLC5        0.0000 
     43 CA         45.5050   49.0630   -2.2655 C.3       3 GLC5        0.0000 
     44 CA         44.3210   48.8840   -3.7670 C.3       6 GLP5        0.0000 
     45 CA         45.2640   47.8330   -0.7045 C.3       3 GLC5        0.0000 
     46 CA         43.8390   46.4240   -0.6450 C.3       6 GLP5        0.0000 
     47 CA         47.5205   49.8145    1.5640 C.3       3 GLC5        0.0000 
     48 CA         46.1450   48.4680    1.3340 C.3       9 GLL5        0.0000 
     49 N          43.9245   38.8240    7.8200 N.am      2 SEC2        0.0000 
     50 N          43.3460   39.3720    6.7990 N.am      8 SEL2        0.0000 
     51 N          44.5030   38.2760    8.8410 N.am      5 SEP2        0.0000 
     52 N          45.4085   38.4180    4.1400 N.am      2 SEC2        0.0000 
     53 N          44.8510   39.5340    4.7250 N.am      8 SEL2        0.0000 
     54 N          45.9660   37.3020    3.5550 N.am      5 SEP2        0.0000 
     55 CA         43.1410   40.5945    1.4395 C.3       3 GLC5        0.0000 
     56 CA         42.6140   40.6080    3.4500 C.3       9 GLL5        0.0000 
     57 CA         43.6680   40.5810   -0.5710 C.3       6 GLP5        0.0000 
     58 CA         41.8945   41.2420    1.0830 C.3       3 GLC5        0.0000 
     59 CA         41.1880   40.8410    3.0240 C.3       9 GLL5        0.0000 
     60 CA         42.6010   41.6430   -0.8580 C.3       6 GLP5        0.0000 
     61 CA         39.8285   39.8230    2.0080 C.3       3 GLC5        0.0000 
     62 CA         38.4690   38.8050    0.9920 C.3       6 GLP5        0.0000 
     63 CA         40.9165   44.1285    3.3545 C.3       3 GLC5        0.0000 
     64 CA         40.5910   42.1470    3.5210 C.3       9 GLL5        0.0000 
     65 CA         41.2420   46.1100    3.1880 C.3       6 GLP5        0.0000 
     66 N          38.3450   42.8995    2.3940 N.am      2 SEC2        0.0000 
     67 N          39.7170   42.6790    2.5060 N.am      8 SEL2        0.0000 
     68 N          36.9730   43.1200    2.2820 N.am      5 SEP2        0.0000 
     69 CA         37.8505   42.5355    4.0470 C.3       3 GLC5        0.0000 
     70 CA         39.7580   41.7390    4.7280 C.3       9 GLL5        0.0000 
     71 CA         35.9430   43.3320    3.3660 C.3       6 GLP5        0.0000 
     72 CA         40.3440   41.6060    6.7630 C.3       3 GLC5        0.0000 
     73 CA         40.9300   41.4730    8.7980 C.3       6 GLP5        0.0000 
     74 N          37.6710   42.2130    5.7250 N.am      2 SEC2        0.0000 
     75 N          38.7010   42.6260    4.9780 N.am      8 SEL2        0.0000 
     76 N          36.6410   41.8000    6.4720 N.am      5 SEP2        0.0000 
     77 N          37.8370   42.8730    3.6300 N.am      2 SEC2        0.0000 
     78 CA         40.4100   38.4905    3.8605 C.3       3 GLC5        0.0000 
     79 CA         39.2670   40.3820    4.2590 C.3       9 GLL5        0.0000 
     80 CA         41.5530   36.5990    3.4620 C.3       6 GLP5        0.0000 
     81 CA         38.8680   39.5935    2.6255 C.3       3 GLC5        0.0000 
     82 CA         40.6280   37.8095    4.8565 C.3       3 GLC5        0.0000 
     83 CA         39.7030   39.0200    6.2510 C.3       9 GLL5        0.0000 
     84 N          39.7565   35.5510    9.4765 N.am      2 SEC2        0.0000 
     85 N          39.5700   36.9470    9.2590 N.am      8 SEL2        0.0000 
     86 N          39.9430   34.1550    9.6940 N.am      5 SEP2        0.0000 
     87 O          41.9315   36.5265    9.3255 O.2       1 ALC1        0.0000 
     88 O          41.4690   37.7440    8.1740 O.2       7 ALL1        0.0000 
     89 O          42.3940   35.3090   10.4770 O.2       4 ALP1        0.0000 
     90 CA         37.9990   38.9040    3.1075 C.3       3 GLC5        0.0000 
     91 CA         37.5290   39.0030    5.2230 C.3       9 GLL5        0.0000 
     92 CA         37.5610   37.4170    4.1435 C.3       3 GLC5        0.0000 
     93 CA         37.5930   35.8310    3.0640 C.3       6 GLP5        0.0000 
     94 CA         44.8015   47.7308    0.4100 C.3       3 GLC5        0.0000 
     95 CA         43.3457   50.0845    1.5863 C.3       3 GLC5        0.0000 
     96 CA         41.3550   50.0740    2.0650 C.3       6 GLP5        0.0000 
     97 CA         41.7270   38.6617    3.3495 C.3       3 GLC5        0.0000 
     98 CA         40.1975   40.0187    7.7603 C.3       3 GLC5        0.0000 
     99 CA         37.4172   36.4712    5.4850 C.3       3 GLC5        0.0000 
    100 CA         37.8950   37.6570    7.1650 C.3       9 GLL5        0.0000 
    101 CA         37.3650   35.0600    4.3130 C.3       6 GLP5        0.0000 
    102 CA         35.4947   39.1797    5.4870 C.3       3 GLC5        0.0000 
    103 CA         37.0440   38.1080    6.1490 C.3       9 GLL5        0.0000 
    104 CA         33.7030   39.8040    5.2880 C.3       6 GLP5        0.0000 
@<TRIPOS>BOND
@<TRIPOS>SUBSTRUCTURE
     1 ALC1       10 GROUP        1 X    ALC  0     ROOT ALC X 1
     2 SEC2        1 GROUP        1 X    SEC  0     **** SEC X 2
     3 GLC5        4 GROUP        1 X    GLC  0     **** GLC X 6
     4 ALP1       12 GROUP        1 Y    ALP  0     ROOT ALP Y 8
     5 SEP2        3 GROUP        1 Y    SEP  0     **** SEP Y 9
     6 GLP5        6 GROUP        1 Y    GLP  0     **** GLP Y 13
     7 ALL1       11 GROUP        1 Z    ALL  0     ROOT ALL Z 15
     8 SEL2        2 GROUP        1 Z    SEL  0     **** SEL Z 16
     9 GLL5        5 GROUP        1 Z    GLL  0     **** GLL Z 20
@<TRIPOS>SET

