#    Name: 2o23_NAD_2_ligand
#    Modification time : Tue Mar 25 21:53:09 2014

@<TRIPOS>MOLECULE
2o23_NAD_2_ligand
   70    74     1     0     0
SMALL
NO_CHARGES


@<TRIPOS>ATOM
      1 PA         46.0080   42.0740    6.3690 P.3       1 NAD803      0.0000 
      2 O1A        45.9230   43.3010    7.2020 O.co2     1 NAD803      0.0000 
      3 O2A        46.9690   41.0220    6.7360 O.co2     1 NAD803      0.0000 
      4 O5B        46.3040   42.4620    4.8590 O.3       1 NAD803      0.0000 
      5 C5B        45.6500   43.5590    4.2520 C.3       1 NAD803      0.0000 
      6 C4B        46.6620   44.2590    3.3630 C.3       1 NAD803      0.0000 
      7 O4B        45.9320   45.3100    2.6830 O.3       1 NAD803      0.0000 
      8 C3B        47.8390   44.8880    4.1010 C.3       1 NAD803      0.0000 
      9 O3B        49.0970   44.4590    3.5960 O.3       1 NAD803      0.0000 
     10 C2B        47.5890   46.3800    3.9020 C.3       1 NAD803      0.0000 
     11 O2B        48.7650   47.1730    3.8650 O.3       1 NAD803      0.0000 
     12 C1B        46.7950   46.4190    2.5910 C.3       1 NAD803      0.0000 
     13 N9A        46.0740   47.6840    2.4300 N.pl3     1 NAD803      0.0000 
     14 C8A        45.3120   48.3340    3.3760 C.2       1 NAD803      0.0000 
     15 N7A        44.8570   49.5060    2.8620 N.2       1 NAD803      0.0000 
     16 C5A        45.3830   49.6070    1.5960 C.ar      1 NAD803      0.0000 
     17 C6A        45.2900   50.5830    0.6190 C.ar      1 NAD803      0.0000 
     18 N6A        44.6160   51.7400    0.7810 N.pl3     1 NAD803      0.0000 
     19 N1A        45.9420   50.3640   -0.5430 N.ar      1 NAD803      0.0000 
     20 C2A        46.6890   49.2420   -0.7640 C.ar      1 NAD803      0.0000 
     21 N3A        46.8040   48.2540    0.1770 N.ar      1 NAD803      0.0000 
     22 C4A        46.1450   48.4680    1.3340 C.ar      1 NAD803      0.0000 
     23 O3         44.5050   41.5230    6.3040 O.3       1 NAD803      0.0000 
     24 PN         43.8960   40.1710    5.6840 P.3       1 NAD803      0.0000 
     25 O1N        43.3460   39.3720    6.7990 O.co2     1 NAD803      0.0000 
     26 O2N        44.8510   39.5340    4.7250 O.co2     1 NAD803      0.0000 
     27 O5D        42.6850   40.7670    4.8670 O.3       1 NAD803      0.0000 
     28 C5D        42.6140   40.6080    3.4500 C.3       1 NAD803      0.0000 
     29 C4D        41.1880   40.8410    3.0240 C.3       1 NAD803      0.0000 
     30 O4D        40.3670   39.8120    3.5800 O.3       1 NAD803      0.0000 
     31 C3D        40.5910   42.1470    3.5210 C.3       1 NAD803      0.0000 
     32 O3D        39.7170   42.6790    2.5060 O.3       1 NAD803      0.0000 
     33 C2D        39.7580   41.7390    4.7280 C.3       1 NAD803      0.0000 
     34 O2D        38.7010   42.6260    4.9780 O.3       1 NAD803      0.0000 
     35 C1D        39.2670   40.3820    4.2590 C.3       1 NAD803      0.0000 
     36 N1N        38.8230   39.4600    5.3020 N.pl3     1 NAD803      0.0000 
     37 C2N        39.7030   39.0200    6.2510 C.ar      1 NAD803      0.0000 
     38 C3N        39.2270   38.1090    7.1940 C.ar      1 NAD803      0.0000 
     39 C7N        40.1540   37.6120    8.2320 C.2       1 NAD803      0.0000 
     40 O7N        39.5700   36.9470    9.2590 O.2       1 NAD803      0.0000 
     41 N7N        41.4690   37.7440    8.1740 N.am      1 NAD803      0.0000 
     42 C4N        37.8950   37.6570    7.1650 C.ar      1 NAD803      0.0000 
     43 C5N        37.0440   38.1080    6.1490 C.ar      1 NAD803      0.0000 
     44 C6N        37.5290   39.0030    5.2230 C.ar      1 NAD803      0.0000 
     45 H          45.2898   44.2808    4.9848 H         1 NAD803      0.0000 
     46 H          44.8135   43.2459    3.6276 H         1 NAD803      0.0000 
     47 H          47.0320   43.5551    2.6352 H         1 NAD803      0.0000 
     48 H          47.7016   44.6805    5.1488 H         1 NAD803      0.0000 
     49 H          46.8939   46.6854    4.6839 H         1 NAD803      0.0000 
     50 H          47.5117   46.2784    1.7936 H         1 NAD803      0.0000 
     51 H          45.1353   47.9991    4.2636 H         1 NAD803      0.0000 
     52 H          44.6135   52.3612   -0.0027 H         1 NAD803      0.0000 
     53 H          44.1788   51.8737    1.6704 H         1 NAD803      0.0000 
     54 H          47.1889   49.1329   -1.6793 H         1 NAD803      0.0000 
     55 H          42.9060   39.6021    3.1428 H         1 NAD803      0.0000 
     56 H          43.2509   41.3274    2.9319 H         1 NAD803      0.0000 
     57 H          41.1203   40.8219    1.9494 H         1 NAD803      0.0000 
     58 H          41.3467   42.7935    3.8152 H         1 NAD803      0.0000 
     59 H          40.4219   41.5794    5.5382 H         1 NAD803      0.0000 
     60 H          38.4629   40.5561    3.5404 H         1 NAD803      0.0000 
     61 H          40.6658   39.3352    6.2796 H         1 NAD803      0.0000 
     62 H          41.8323   38.1703    7.3456 H         1 NAD803      0.0000 
     63 H          41.9805   37.4055    8.9638 H         1 NAD803      0.0000 
     64 H          37.5574   37.0104    7.8750 H         1 NAD803      0.0000 
     65 H          36.0803   37.7716    6.1051 H         1 NAD803      0.0000 
     66 H          36.9116   39.3356    4.4582 H         1 NAD803      0.0000 
     67 H          49.0780   44.6907    2.6234 H         1 NAD803      0.0000 
     68 H          49.1087   47.0825    2.9303 H         1 NAD803      0.0000 
     69 H          39.5195   41.9058    1.9034 H         1 NAD803      0.0000 
     70 H          38.6690   43.2228    4.1763 H         1 NAD803      0.0000 
@<TRIPOS>BOND
     1    2    1 ar   
     2    3    1 ar   
     3    4    1 1    
     4   23    1 1    
     5    5    4 1    
     6    6    5 1    
     7   45    5 1    
     8   46    5 1    
     9    7    6 1    
    10    8    6 1    
    11   47    6 1    
    12   12    7 1    
    13    9    8 1    
    14   10    8 1    
    15   48    8 1    
    16   67    9 1    
    17   11   10 1    
    18   12   10 1    
    19   49   10 1    
    20   68   11 1    
    21   13   12 1    
    22   50   12 1    
    23   14   13 1    
    24   22   13 1    
    25   15   14 2    
    26   51   14 1    
    27   16   15 1    
    28   17   16 ar   
    29   22   16 ar   
    30   18   17 1    
    31   19   17 ar   
    32   52   18 1    
    33   53   18 1    
    34   20   19 ar   
    35   21   20 ar   
    36   54   20 1    
    37   22   21 ar   
    38   24   23 1    
    39   25   24 ar   
    40   26   24 ar   
    41   27   24 1    
    42   28   27 1    
    43   29   28 1    
    44   55   28 1    
    45   56   28 1    
    46   30   29 1    
    47   31   29 1    
    48   57   29 1    
    49   35   30 1    
    50   32   31 1    
    51   33   31 1    
    52   58   31 1    
    53   69   32 1    
    54   34   33 1    
    55   35   33 1    
    56   59   33 1    
    57   70   34 1    
    58   36   35 1    
    59   60   35 1    
    60   37   36 ar   
    61   44   36 ar   
    62   38   37 ar   
    63   61   37 1    
    64   39   38 1    
    65   42   38 ar   
    66   40   39 2    
    67   41   39 am   
    68   62   41 1    
    69   63   41 1    
    70   43   42 ar   
    71   64   42 1    
    72   44   43 ar   
    73   65   43 1    
    74   66   44 1    
@<TRIPOS>SUBSTRUCTURE
     1 NAD803      1 GROUP   
@<TRIPOS>SET

