#    Name: 3os8_KN0_4_INTS_M
#    Modification time : Tue Mar 25 05:14:51 2014

@<TRIPOS>MOLECULE
3os8_KN0_4_INTS_M
   86     0     9     0     0
SMALL
NO_CHARGES


@<TRIPOS>ATOM
      1 CA         23.5485    7.6635  -57.2370 C.3       3 GLC5        0.0000 
      2 CA         25.0200    9.2730  -56.8580 C.3       9 GLL5        0.0000 
      3 CA         22.0770    6.0540  -57.6160 C.3       6 GLP5        0.0000 
      4 CA         26.9825   11.2385  -59.2765 C.3       3 GLC5        0.0000 
      5 CA         26.9200   10.7390  -57.0990 C.3       9 GLL5        0.0000 
      6 CA         27.0450   11.7380  -61.4540 C.3       6 GLP5        0.0000 
      7 CA         28.0755   11.7315  -59.6170 C.3       3 GLC5        0.0000 
      8 CA         29.1060   11.7250  -57.7800 C.3       9 GLL5        0.0000 
      9 CA         23.8170    6.5940  -58.2975 C.3       3 GLC5        0.0000 
     10 CA         25.5570    7.1340  -58.9790 C.3       9 GLL5        0.0000 
     11 CA         23.5230    5.3625  -59.6700 C.3       3 GLC5        0.0000 
     12 CA         25.3350    5.9010  -59.5920 C.3       9 GLL5        0.0000 
     13 CA         21.7110    4.8240  -59.7480 C.3       6 GLP5        0.0000 
     14 N          25.2175    2.9625  -60.4910 N.am      2 SEC2        0.0000 
     15 N          26.1960    4.0000  -60.7640 N.am      8 SEL2        0.0000 
     16 N          24.2390    1.9250  -60.2180 N.am      5 SEP2        0.0000 
     17 N          25.5740    3.6550  -62.0265 N.am      2 SEC2        0.0000 
     18 N          24.9520    3.3100  -63.2890 N.am      5 SEP2        0.0000 
     19 O          27.3490    3.4925  -61.2755 O.2       1 ALC1        0.0000 
     20 O          26.1960    4.0000  -60.7640 O.2       7 ALL1        0.0000 
     21 O          28.5020    2.9850  -61.7870 O.2       4 ALP1        0.0000 
     22 CA         31.0350   12.8580  -59.1390 C.3       3 GLC5        0.0000 
     23 CA         30.9730   10.6310  -59.1130 C.3       9 GLL5        0.0000 
     24 CA         31.0970   15.0850  -59.1650 C.3       6 GLP5        0.0000 
     25 CA         24.9695   14.6725  -54.8090 C.3       3 GLC5        0.0000 
     26 CA         26.3110   13.5550  -54.8500 C.3       9 GLL5        0.0000 
     27 CA         23.6280   15.7900  -54.7680 C.3       6 GLP5        0.0000 
     28 CA         27.0145   15.2500  -53.8480 C.3       3 GLC5        0.0000 
     29 CA         27.7180   16.9450  -52.8460 C.3       6 GLP5        0.0000 
     30 CA         26.9155   13.9975  -59.0915 C.3       3 GLC5        0.0000 
     31 CA         27.0980   13.7800  -56.8640 C.3       9 GLL5        0.0000 
     32 CA         26.7330   14.2150  -61.3190 C.3       6 GLP5        0.0000 
     33 CA         29.0335   14.6245  -57.2840 C.3       3 GLC5        0.0000 
     34 CA         30.9690   15.4690  -57.7040 C.3       6 GLP5        0.0000 
     35 CA         29.9535   12.2745  -54.1310 C.3       3 GLC5        0.0000 
     36 CA         28.2710   12.7730  -55.3430 C.3       9 GLL5        0.0000 
     37 CA         31.6360   11.7760  -52.9190 C.3       6 GLP5        0.0000 
     38 CA         28.3965   10.6805  -55.0405 C.3       3 GLC5        0.0000 
     39 CA         28.5220    8.5880  -54.7380 C.3       6 GLP5        0.0000 
     40 CA         28.4690   12.1995  -53.4755 C.3       3 GLC5        0.0000 
     41 CA         28.6670   11.6260  -51.6080 C.3       6 GLP5        0.0000 
     42 CA         29.9475   13.6000  -56.0795 C.3       3 GLC5        0.0000 
     43 CA         31.6240   14.4270  -56.8160 C.3       6 GLP5        0.0000 
     44 CA         26.3188   11.4440  -53.8960 C.3       3 GLC5        0.0000 
     45 CA         25.1010   11.3570  -55.6500 C.3       9 GLL5        0.0000 
     46 CA         26.9140   11.3870  -51.8660 C.3       6 GLP5        0.0000 
     47 CA         23.3428   12.0197  -55.6917 C.3       3 GLC5        0.0000 
     48 CA         21.9120   13.2730  -55.5730 C.3       6 GLP5        0.0000 
     49 CA         22.8190    9.6303  -56.3607 C.3       3 GLC5        0.0000 
     50 CA         24.4460   10.1760  -55.9710 C.3       9 GLL5        0.0000 
     51 CA         20.9050    9.5360  -56.3070 C.3       6 GLP5        0.0000 
     52 CA         24.1849   11.3234  -57.8121 C.3       3 GLC5        0.0000 
     53 CA         23.4730   12.6270  -59.2900 C.3       6 GLP5        0.0000 
     54 CA         25.0530   11.9095  -57.9702 C.3       3 GLC5        0.0000 
     55 CA         27.7937    6.7355  -57.2145 C.3       3 GLC5        0.0000 
     56 CA         26.8460    7.6570  -58.8960 C.3       9 GLL5        0.0000 
     57 CA         28.2220    6.1550  -55.2150 C.3       6 GLP5        0.0000 
     58 CA         29.1502    9.9780  -56.2845 C.3       3 GLC5        0.0000 
     59 CA         30.4510   11.0110  -57.8820 C.3       9 GLL5        0.0000 
     60 CA         30.7013   12.8975  -57.3235 C.3       3 GLC5        0.0000 
     61 CA         26.1303    6.5772  -61.6388 C.3       3 GLC5        0.0000 
     62 CA         26.3960    7.6040  -63.4020 C.3       6 GLP5        0.0000 
     63 CA         29.8505    6.4820  -60.3777 C.3       3 GLC5        0.0000 
     64 CA         27.6690    5.7330  -60.1190 C.3       9 GLL5        0.0000 
     65 CA         31.9240    6.6100  -60.9300 C.3       6 GLP5        0.0000 
     66 CA         28.3125    7.1610  -61.4543 C.3       3 GLC5        0.0000 
     67 CA         27.8850    6.9750  -59.5320 C.3       9 GLL5        0.0000 
     68 CA         28.8480    7.9680  -63.0830 C.3       6 GLP5        0.0000 
     69 CA         32.2370    8.2282  -59.7507 C.3       3 GLC5        0.0000 
     70 CA         32.8980    9.7100  -57.9840 C.3       9 GLL5        0.0000 
     71 CA         32.3657   11.2995  -55.3813 C.3       3 GLC5        0.0000 
     72 CA         32.3670   10.0860  -56.7580 C.3       9 GLL5        0.0000 
     73 CA         32.9780   12.1890  -54.0300 C.3       6 GLP5        0.0000 
     74 CA         33.5162    8.3646  -57.3979 C.3       3 GLC5        0.0000 
     75 CA         34.5740    6.7630  -57.1310 C.3       6 GLP5        0.0000 
     76 CA         31.6887   12.4185  -56.7743 C.3       3 GLC5        0.0000 
     77 CA         33.9672   10.3611  -58.4829 C.3       3 GLC5        0.0000 
     78 CA         35.4760   10.7560  -59.3010 C.3       6 GLP5        0.0000 
     79 CA         31.1731    8.7695  -56.2955 C.3       3 GLC5        0.0000 
     80 CA         30.4600    7.2230  -55.5520 C.3       6 GLP5        0.0000 
     81 CA         26.7930   12.3253  -53.5973 C.3       3 GLC5        0.0000 
     82 CA         27.0330   12.9720  -55.8070 C.3       9 GLL5        0.0000 
     83 CA         26.2640   14.9019  -57.0201 C.3       3 GLC5        0.0000 
     84 CA         25.6430   16.2820  -57.9440 C.3       6 GLP5        0.0000 
     85 CA         27.2509    9.4279  -55.7816 C.3       3 GLC5        0.0000 
     86 CA         26.3460   11.6450  -56.2020 C.3       9 GLL5        0.0000 
@<TRIPOS>BOND
@<TRIPOS>SUBSTRUCTURE
     1 ALC1       19 GROUP        1 X    ALC  0     ROOT ALC X 1
     2 SEC2       14 GROUP        1 X    SEC  0     **** SEC X 2
     3 GLC5        1 GROUP        1 X    GLC  0     **** GLC X 6
     4 ALP1       21 GROUP        1 Y    ALP  0     ROOT ALP Y 8
     5 SEP2       16 GROUP        1 Y    SEP  0     **** SEP Y 9
     6 GLP5        3 GROUP        1 Y    GLP  0     **** GLP Y 13
     7 ALL1       20 GROUP        1 Z    ALL  0     ROOT ALL Z 15
     8 SEL2       15 GROUP        1 Z    SEL  0     **** SEL Z 16
     9 GLL5        2 GROUP        1 Z    GLL  0     **** GLL Z 20
@<TRIPOS>SET

