#    Name: 3os8_KN0_4_ligand
#    Modification time : Tue Mar 25 05:14:51 2014

@<TRIPOS>MOLECULE
3os8_KN0_4_ligand
   43    46     1     0     0
SMALL
NO_CHARGES


@<TRIPOS>ATOM
      1 CAA        25.1010   11.3570  -55.6500 C.ar      1 KN01        0.0000 
      2 CAB        24.4460   10.1760  -55.9710 C.ar      1 KN01        0.0000 
      3 CAC        25.0200    9.2730  -56.8580 C.ar      1 KN01        0.0000 
      4 CAD        26.2560    9.5580  -57.4180 C.ar      1 KN01        0.0000 
      5 CAE        26.9200   10.7390  -57.0990 C.ar      1 KN01        0.0000 
      6 CAF        26.3460   11.6450  -56.2020 C.ar      1 KN01        0.0000 
      7 CAG        27.0770    8.9200  -58.3410 C.2       1 KN01        0.0000 
      8 NAH        28.1750    9.6620  -58.4480 N.2       1 KN01        0.0000 
      9 NAI        28.0640   10.6970  -57.7860 N.pl3     1 KN01        0.0000 
     10 CAJ        26.8460    7.6570  -58.8960 C.ar      1 KN01        0.0000 
     11 CAK        29.1060   11.7250  -57.7800 C.3       1 KN01        0.0000 
     12 CAL        25.5570    7.1340  -58.9790 C.ar      1 KN01        0.0000 
     13 CAM        25.3350    5.9010  -59.5920 C.ar      1 KN01        0.0000 
     14 CAN        26.3940    5.2000  -60.1590 C.ar      1 KN01        0.0000 
     15 CAO        27.6690    5.7330  -60.1190 C.ar      1 KN01        0.0000 
     16 CAP        27.8850    6.9750  -59.5320 C.ar      1 KN01        0.0000 
     17 OAQ        29.1540    7.4550  -59.4910 O.3       1 KN01        0.0000 
     18 OAR        26.1960    4.0000  -60.7640 O.3       1 KN01        0.0000 
     19 CAS        30.4510   11.0110  -57.8820 C.ar      1 KN01        0.0000 
     20 CAT        30.9730   10.6310  -59.1130 C.ar      1 KN01        0.0000 
     21 CAU        32.2020    9.9830  -59.1590 C.ar      1 KN01        0.0000 
     22 CAV        32.8980    9.7100  -57.9840 C.ar      1 KN01        0.0000 
     23 CAW        32.3670   10.0860  -56.7580 C.ar      1 KN01        0.0000 
     24 CAX        31.1400   10.7340  -56.7070 C.ar      1 KN01        0.0000 
     25 CAY        27.0330   12.9720  -55.8070 C.3       1 KN01        0.0000 
     26 FAZ        26.3110   13.5550  -54.8500 F         1 KN01        0.0000 
     27 FBA        27.0980   13.7800  -56.8640 F         1 KN01        0.0000 
     28 FBB        28.2710   12.7730  -55.3430 F         1 KN01        0.0000 
     29 H          24.6639   12.0265  -54.9985 H         1 KN01        0.0000 
     30 H          23.5283    9.9667  -55.5494 H         1 KN01        0.0000 
     31 H          24.5319    8.4029  -57.0956 H         1 KN01        0.0000 
     32 H          29.0867   12.2947  -56.8602 H         1 KN01        0.0000 
     33 H          29.0031   12.3897  -58.6277 H         1 KN01        0.0000 
     34 H          24.7641    7.6600  -58.5860 H         1 KN01        0.0000 
     35 H          24.3835    5.5100  -59.6240 H         1 KN01        0.0000 
     36 H          28.4608    5.2134  -60.5227 H         1 KN01        0.0000 
     37 H          30.4584   10.8260  -59.9757 H         1 KN01        0.0000 
     38 H          32.6011    9.7027  -60.0667 H         1 KN01        0.0000 
     39 H          33.8065    9.2291  -58.0270 H         1 KN01        0.0000 
     40 H          32.8801    9.8856  -55.8905 H         1 KN01        0.0000 
     41 H          30.7404   11.0093  -55.8000 H         1 KN01        0.0000 
     42 H          29.0534    8.4492  -59.4519 H         1 KN01        0.0000 
     43 H          27.0551    3.5032  -60.6407 H         1 KN01        0.0000 
@<TRIPOS>BOND
     1    2    1 ar   
     2    6    1 ar   
     3   29    1 1    
     4    3    2 ar   
     5   30    2 1    
     6    4    3 ar   
     7   31    3 1    
     8    5    4 ar   
     9    7    4 1    
    10    6    5 ar   
    11    9    5 1    
    12   25    6 1    
    13    8    7 2    
    14   10    7 1    
    15    9    8 1    
    16   11    9 1    
    17   12   10 ar   
    18   16   10 ar   
    19   19   11 1    
    20   32   11 1    
    21   33   11 1    
    22   13   12 ar   
    23   34   12 1    
    24   14   13 ar   
    25   35   13 1    
    26   15   14 ar   
    27   18   14 1    
    28   16   15 ar   
    29   36   15 1    
    30   17   16 1    
    31   42   17 1    
    32   43   18 1    
    33   20   19 ar   
    34   24   19 ar   
    35   21   20 ar   
    36   37   20 1    
    37   22   21 ar   
    38   38   21 1    
    39   23   22 ar   
    40   39   22 1    
    41   24   23 ar   
    42   40   23 1    
    43   41   24 1    
    44   26   25 1    
    45   27   25 1    
    46   28   25 1    
@<TRIPOS>SUBSTRUCTURE
     1 KN01        1 GROUP   
@<TRIPOS>SET

