#    Name: 3H4G_1_CAVITY_N1_6.mol2
#    Modification time : Mon Mar 10 21:21:54 2014

@<TRIPOS>MOLECULE
3H4G_1_CAVITY_N1_6.mol2
   92     0     4     0     0
SMALL
NO_CHARGES


@<TRIPOS>ATOM
      1 O           1.9020  -33.7285    0.6069 O.2       1 ALA2        0.0000 
      2 N           0.7509  -34.3600   -0.1184 N.2       1 ALA2        0.0000 
      3 N           0.5426  -35.5106   -1.8884 N.2       1 ALA2        0.0000 
      4 CA         -0.6086  -36.1420   -2.6137 C.3       3 GLY6        0.0000 
      5 O           1.7133  -32.4709   -0.1885 O.2       1 ALA2        0.0000 
      6 DU          2.6563  -32.9900   -1.2331 H         4 CUB7        0.0000 
      7 O           0.5622  -33.1023   -0.9138 O.2       1 ALA2        0.0000 
      8 DU          1.5051  -33.6215   -1.9584 H         4 CUB7        0.0000 
      9 DU          2.4481  -34.1407   -3.0031 H         4 CUB7        0.0000 
     10 O          -0.5890  -33.7337   -1.6391 O.2       1 ALA2        0.0000 
     11 N           0.3539  -34.2529   -2.6838 N.2       1 ALA2        0.0000 
     12 O           1.2969  -34.7721   -3.7284 O.2       1 ALA2        0.0000 
     13 O          -0.7973  -34.8843   -3.4091 O.2       1 ALA2        0.0000 
     14 CA          0.1457  -35.4035   -4.4537 C.3       3 GLY6        0.0000 
     15 CZ          5.7129  -30.9887   -1.6226 C.ar      2 PHE5        0.0000 
     16 CZ          3.6188  -31.1009   -1.3032 C.ar      2 PHE5        0.0000 
     17 CZ          4.5617  -31.6201   -2.3479 C.ar      2 PHE5        0.0000 
     18 O           1.5246  -31.2132   -0.9839 O.2       1 ALA2        0.0000 
     19 DU          2.4676  -31.7324   -2.0285 H         4 CUB7        0.0000 
     20 DU          3.4106  -32.2516   -3.0732 H         4 CUB7        0.0000 
     21 CA         -0.5695  -31.3254   -0.6645 C.3       3 GLY6        0.0000 
     22 O           0.3735  -31.8446   -1.7092 O.2       1 ALA2        0.0000 
     23 DU          1.3164  -32.3638   -2.7538 H         4 CUB7        0.0000 
     24 DU          2.2594  -32.8830   -3.7985 H         4 CUB7        0.0000 
     25 O          -0.7777  -32.4760   -2.4345 O.2       1 ALA2        0.0000 
     26 O           0.1652  -32.9952   -3.4791 O.2       1 ALA2        0.0000 
     27 O           1.1082  -33.5144   -4.5238 O.2       1 ALA2        0.0000 
     28 CZ         -0.9860  -33.6267   -4.2045 C.ar      2 PHE5        0.0000 
     29 CA          6.6754  -29.0996   -1.6926 C.3       3 GLY6        0.0000 
     30 N           7.6184  -29.6188   -2.7373 N.2       1 ALA2        0.0000 
     31 CZ          5.5242  -29.7310   -2.4179 C.ar      2 PHE5        0.0000 
     32 DU          6.4672  -30.2502   -3.4626 H         4 CUB7        0.0000 
     33 CZ          1.5442  -28.8049   -0.0093 C.ar      2 PHE5        0.0000 
     34 CZ          2.4871  -29.3241   -1.0540 C.ar      2 PHE5        0.0000 
     35 CZ          3.4301  -29.8433   -2.0986 C.ar      2 PHE5        0.0000 
     36 CZ          4.3730  -30.3625   -3.1433 C.ar      2 PHE5        0.0000 
     37 O           5.3160  -30.8816   -4.1879 O.2       1 ALA2        0.0000 
     38 O           0.3930  -29.4363   -0.7346 O.2       1 ALA2        0.0000 
     39 DU          1.3359  -29.9555   -1.7793 H         4 CUB7        0.0000 
     40 DU          2.2789  -30.4747   -2.8239 H         4 CUB7        0.0000 
     41 CZ          3.2219  -30.9939   -3.8686 C.ar      2 PHE5        0.0000 
     42 CA         -0.7582  -30.0678   -1.4599 C.3       3 GLY6        0.0000 
     43 CA          0.1848  -30.5869   -2.5046 C.3       3 GLY6        0.0000 
     44 DU          1.1277  -31.1061   -3.5492 H         4 CUB7        0.0000 
     45 CZ          2.0707  -31.6253   -4.5939 C.ar      2 PHE5        0.0000 
     46 N          -0.9664  -31.2184   -3.2299 N.2       1 ALA2        0.0000 
     47 CZ         -0.0235  -31.7376   -4.2745 C.ar      2 PHE5        0.0000 
     48 O           0.9195  -32.2567   -5.3192 O.2       1 ALA2        0.0000 
     49 CA          4.3926  -27.9542   -2.1687 C.3       3 GLY6        0.0000 
     50 CA          5.3355  -28.4734   -3.2133 C.3       3 GLY6        0.0000 
     51 N           6.2785  -28.9925   -4.2580 N.2       1 ALA2        0.0000 
     52 CZ          1.3555  -27.5472   -0.8047 C.ar      2 PHE5        0.0000 
     53 CZ          2.2984  -28.0664   -1.8494 C.ar      2 PHE5        0.0000 
     54 DU          3.2414  -28.5856   -2.8940 H         4 CUB7        0.0000 
     55 O           4.1843  -29.1048   -3.9386 O.2       1 ALA2        0.0000 
     56 CZ          0.2043  -28.1787   -1.5300 C.ar      2 PHE5        0.0000 
     57 DU          1.1472  -28.6978   -2.5747 H         4 CUB7        0.0000 
     58 DU          2.0902  -29.2170   -3.6193 H         4 CUB7        0.0000 
     59 CZ          3.0332  -29.7362   -4.6640 C.ar      2 PHE5        0.0000 
     60 CA         -0.9469  -28.8101   -2.2553 C.3       3 GLY6        0.0000 
     61 DU         -0.0039  -29.3293   -3.3000 H         4 CUB7        0.0000 
     62 CZ          0.9390  -29.8485   -4.3446 C.ar      2 PHE5        0.0000 
     63 CA         -2.0981  -29.4415   -2.9806 C.3       3 GLY6        0.0000 
     64 N          -1.1551  -29.9607   -4.0253 N.2       1 ALA2        0.0000 
     65 CZ         -0.2122  -30.4799   -5.0699 C.ar      2 PHE5        0.0000 
     66 CZ         -2.3063  -30.5921   -4.7506 C.ar      2 PHE5        0.0000 
     67 CA          4.2039  -26.6965   -2.9641 C.3       3 GLY6        0.0000 
     68 CA          5.1468  -27.2157   -4.0087 C.3       3 GLY6        0.0000 
     69 O           2.1097  -26.8087   -2.6447 O.2       1 ALA2        0.0000 
     70 DU          3.0527  -27.3279   -3.6894 H         4 CUB7        0.0000 
     71 O           3.9956  -27.8471   -4.7340 O.2       1 ALA2        0.0000 
     72 CZ          0.0156  -26.9210   -2.3254 C.ar      2 PHE5        0.0000 
     73 CZ          0.9585  -27.4402   -3.3701 C.ar      2 PHE5        0.0000 
     74 CZ          1.9015  -27.9593   -4.4147 C.ar      2 PHE5        0.0000 
     75 CZ          2.8445  -28.4785   -5.4593 C.ar      2 PHE5        0.0000 
     76 CZ         -1.1356  -27.5524   -3.0507 C.ar      2 PHE5        0.0000 
     77 CA         -0.1926  -28.0716   -4.0954 C.3       3 GLY6        0.0000 
     78 CZ          0.7503  -28.5908   -5.1400 C.ar      2 PHE5        0.0000 
     79 CA         -2.2868  -28.1838   -3.7760 C.3       3 GLY6        0.0000 
     80 CA         -1.3438  -28.7030   -4.8207 C.3       3 GLY6        0.0000 
     81 CZ         -0.4009  -29.2222   -5.8653 C.ar      2 PHE5        0.0000 
     82 CA          4.0152  -25.4388   -3.7595 C.3       3 GLY6        0.0000 
     83 N           1.9210  -25.5511   -3.4401 N.2       1 ALA2        0.0000 
     84 N           2.8640  -26.0702   -4.4848 N.2       1 ALA2        0.0000 
     85 CZ          3.8069  -26.5894   -5.5294 C.ar      2 PHE5        0.0000 
     86 N           0.7698  -26.1825   -4.1654 N.2       1 ALA2        0.0000 
     87 CZ          1.7128  -26.7017   -5.2101 C.ar      2 PHE5        0.0000 
     88 CZ          2.6558  -27.2209   -6.2547 C.ar      2 PHE5        0.0000 
     89 CA         -0.3813  -26.8139   -4.8908 C.3       3 GLY6        0.0000 
     90 CZ          0.5616  -27.3331   -5.9354 C.ar      2 PHE5        0.0000 
     91 N           2.6753  -24.8126   -5.2802 N.2       1 ALA2        0.0000 
     92 CZ          1.5241  -25.4440   -6.0055 C.ar      2 PHE5        0.0000 
@<TRIPOS>BOND
@<TRIPOS>SUBSTRUCTURE
     1 ALA2        1 GROUP   
     2 PHE5       15 GROUP   
     3 GLY6        4 GROUP   
     4 CUB7        6 GROUP   
@<TRIPOS>SET

