#    Name: 3h4g_FID_1_INTS_M
#    Modification time : Tue Mar 25 13:33:57 2014

@<TRIPOS>MOLECULE
3h4g_FID_1_INTS_M
   33     0     9     0     0
SMALL
NO_CHARGES


@<TRIPOS>ATOM
      1 O           2.3970  -23.8115   -4.5130 O.2       1 ALC1        0.0000 
      2 O           2.1030  -24.9830   -5.2050 O.2       7 ALL1        0.0000 
      3 O           2.6910  -22.6400   -3.8210 O.2       4 ALP1        0.0000 
      4 CA          2.0670  -28.7850   -6.2710 C.3       3 GLC5        0.0000 
      5 CA          1.6540  -27.3090   -4.9880 C.3       9 GLL5        0.0000 
      6 CA          2.4800  -30.2610   -7.5540 C.3       6 GLP5        0.0000 
      7 CA          5.2015  -26.4300   -3.7155 C.3       3 GLC5        0.0000 
      8 CA          4.0430  -27.9760   -4.6020 C.3       9 GLL5        0.0000 
      9 CA          6.3600  -24.8840   -2.8290 C.3       6 GLP5        0.0000 
     10 CA          5.9320  -28.4785   -6.1790 C.3       3 GLC5        0.0000 
     11 CA          6.3160  -28.5410   -4.2890 C.3       9 GLL5        0.0000 
     12 CA          5.5480  -28.4160   -8.0690 C.3       6 GLP5        0.0000 
     13 CA          6.5760  -26.9240   -5.3775 C.3       3 GLC5        0.0000 
     14 CA          6.8360  -25.3070   -6.4660 C.3       6 GLP5        0.0000 
     15 CA         -1.0715  -26.9215   -2.8700 C.3       3 GLC5        0.0000 
     16 CA         -0.0560  -28.6250   -3.6530 C.3       9 GLL5        0.0000 
     17 CA         -2.0870  -25.2180   -2.0870 C.3       6 GLP5        0.0000 
     18 O          -2.9085  -31.1740   -3.6375 O.2       1 ALC1        0.0000 
     19 O          -1.5070  -30.5630   -4.0510 O.2       7 ALL1        0.0000 
     20 O          -4.3100  -31.7850   -3.2240 O.2       4 ALP1        0.0000 
     21 CA          0.7660  -28.9820   -6.5760 C.3       3 GLC5        0.0000 
     22 CA          0.2570  -27.9430   -4.9820 C.3       9 GLL5        0.0000 
     23 CA          1.2750  -30.0210   -8.1700 C.3       6 GLP5        0.0000 
     24 N           0.7205  -24.9915   -2.1255 N.am      2 SEC2        0.0000 
     25 N           1.4220  -25.7390   -3.1320 N.am      8 SEL2        0.0000 
     26 N           0.0190  -24.2440   -1.1190 N.am      5 SEP2        0.0000 
     27 CA          0.3438  -26.0395   -6.2545 C.3       3 GLC5        0.0000 
     28 CA         -0.2680  -24.4530   -7.5240 C.3       6 GLP5        0.0000 
     29 CA          6.3575  -27.6598   -2.6567 C.3       3 GLC5        0.0000 
     30 CA          5.0160  -28.8020   -4.0520 C.3       9 GLL5        0.0000 
     31 CA          7.0490  -26.6480   -1.1430 C.3       6 GLP5        0.0000 
     32 CA         -1.4042  -28.0170   -5.5278 C.3       3 GLC5        0.0000 
     33 CA         -2.9090  -27.7500   -6.7380 C.3       6 GLP5        0.0000 
@<TRIPOS>BOND
@<TRIPOS>SUBSTRUCTURE
     1 ALC1        1 GROUP        1 X    ALC  0     ROOT ALC X 1
     2 SEC2       24 GROUP        1 X    SEC  0     **** SEC X 2
     3 GLC5        4 GROUP        1 X    GLC  0     **** GLC X 6
     4 ALP1        3 GROUP        1 Y    ALP  0     ROOT ALP Y 8
     5 SEP2       26 GROUP        1 Y    SEP  0     **** SEP Y 9
     6 GLP5        6 GROUP        1 Y    GLP  0     **** GLP Y 13
     7 ALL1        2 GROUP        1 Z    ALL  0     ROOT ALL Z 15
     8 SEL2       25 GROUP        1 Z    SEL  0     **** SEL Z 16
     9 GLL5        5 GROUP        1 Z    GLL  0     **** GLL Z 20
@<TRIPOS>SET

