#    Name: 3h4g_FID_1_ligand
#    Modification time : Tue Mar 25 13:33:57 2014

@<TRIPOS>MOLECULE
3h4g_FID_1_ligand
   30    32     1     0     0
SMALL
NO_CHARGES


@<TRIPOS>ATOM
      1 C2I         2.2890  -25.6640   -6.3500 C.2       1 FID2401     0.0000 
      2 N4          2.1030  -24.9830   -5.2050 N.am      1 FID2401     0.0000 
      3 C5          1.7060  -25.9500   -4.3640 C.2       1 FID2401     0.0000 
      4 C7I         1.6540  -27.3090   -4.9880 C.3       1 FID2401     0.0000 
      5 C12         2.6870  -28.2220   -4.3770 C.ar      1 FID2401     0.0000 
      6 C13         4.0430  -27.9760   -4.6020 C.ar      1 FID2401     0.0000 
      7 C14         5.0160  -28.8020   -4.0520 C.ar      1 FID2401     0.0000 
      8 F17         6.3160  -28.5410   -4.2890 F         1 FID2401     0.0000 
      9 C15         4.6350  -29.8910   -3.2710 C.ar      1 FID2401     0.0000 
     10 C16         3.2810  -30.1430   -3.0440 C.ar      1 FID2401     0.0000 
     11 C11         2.3050  -29.3110   -3.5950 C.ar      1 FID2401     0.0000 
     12 O10         0.9750  -29.5800   -3.3620 O.3       1 FID2401     0.0000 
     13 C9         -0.0560  -28.6250   -3.6530 C.3       1 FID2401     0.0000 
     14 C19        -1.4120  -29.2760   -3.7190 C.2       1 FID2401     0.0000 
     15 N21        -1.5070  -30.5630   -4.0510 N.am      1 FID2401     0.0000 
     16 O20        -2.4130  -28.6110   -3.4780 O.2       1 FID2401     0.0000 
     17 C8I         0.2570  -27.9430   -4.9820 C.3       1 FID2401     0.0000 
     18 N1I         2.0480  -26.9890   -6.3560 N.am      1 FID2401     0.0000 
     19 O6I         1.4220  -25.7390   -3.1320 O.2       1 FID2401     0.0000 
     20 O3I         2.6810  -25.0690   -7.4240 O.2       1 FID2401     0.0000 
     21 H           2.2200  -24.0763   -5.0411 H         1 FID2401     0.0000 
     22 H           4.3231  -27.1703   -5.1842 H         1 FID2401     0.0000 
     23 H           5.3469  -30.5068   -2.8632 H         1 FID2401     0.0000 
     24 H           3.0003  -30.9477   -2.4664 H         1 FID2401     0.0000 
     25 H          -0.0827  -27.8486   -2.8914 H         1 FID2401     0.0000 
     26 H          -0.6449  -31.0340   -4.2381 H         1 FID2401     0.0000 
     27 H          -2.4318  -30.9420   -4.0832 H         1 FID2401     0.0000 
     28 H           0.1974  -28.6790   -5.7883 H         1 FID2401     0.0000 
     29 H          -0.4871  -27.1650   -5.1725 H         1 FID2401     0.0000 
     30 H           2.1002  -27.6139   -7.0353 H         1 FID2401     0.0000 
@<TRIPOS>BOND
     1    2    1 am   
     2   18    1 am   
     3   20    1 2    
     4    3    2 am   
     5   21    2 1    
     6    4    3 1    
     7   19    3 2    
     8    5    4 1    
     9   17    4 1    
    10   18    4 1    
    11    6    5 ar   
    12   11    5 ar   
    13    7    6 ar   
    14   22    6 1    
    15    8    7 1    
    16    9    7 ar   
    17   10    9 ar   
    18   23    9 1    
    19   11   10 ar   
    20   24   10 1    
    21   12   11 1    
    22   13   12 1    
    23   14   13 1    
    24   17   13 1    
    25   25   13 1    
    26   15   14 am   
    27   16   14 2    
    28   26   15 1    
    29   27   15 1    
    30   28   17 1    
    31   29   17 1    
    32   30   18 1    
@<TRIPOS>SUBSTRUCTURE
     1 FID2401     1 GROUP   
@<TRIPOS>SET

