#    Name: 1bx4_ADN_2_INTS_M
#    Modification time : Mon Mar 24 19:54:21 2014

@<TRIPOS>MOLECULE
1bx4_ADN_2_INTS_M
   43     0     9     0     0
SMALL
NO_CHARGES


@<TRIPOS>ATOM
      1 CA         47.1410   21.0275   49.2300 C.3       3 GLC5        0.0000 
      2 CA         45.9290   22.2930   47.9650 C.3       9 GLL5        0.0000 
      3 CA         48.3530   19.7620   50.4950 C.3       6 GLP5        0.0000 
      4 CA         44.4860   23.4260   46.7485 C.3       3 GLC5        0.0000 
      5 CA         43.0430   24.5590   45.5320 C.3       6 GLP5        0.0000 
      6 CA         45.7590   21.5825   46.2685 C.3       3 GLC5        0.0000 
      7 CA         45.5890   20.8720   44.5720 C.3       6 GLP5        0.0000 
      8 CA         46.6650   25.1335   47.3815 C.3       3 GLC5        0.0000 
      9 CA         46.3130   23.7410   48.5870 C.3       9 GLL5        0.0000 
     10 CA         47.0170   26.5260   46.1760 C.3       6 GLP5        0.0000 
     11 CA         47.4575   21.7730   50.3205 C.3       3 GLC5        0.0000 
     12 CA         46.5620   23.7840   50.1460 C.3       9 GLL5        0.0000 
     13 CA         47.2465   25.5335   52.1360 C.3       3 GLC5        0.0000 
     14 CA         46.3130   25.2440   50.4150 C.3       9 GLL5        0.0000 
     15 CA         48.1800   25.8230   53.8570 C.3       6 GLP5        0.0000 
     16 CA         43.1000   26.0470   48.9845 C.3       3 GLC5        0.0000 
     17 CA         45.0920   25.5680   49.5140 C.3       9 GLL5        0.0000 
     18 CA         41.1080   26.5260   48.4550 C.3       6 GLP5        0.0000 
     19 CA         42.9110   23.6255   52.3730 C.3       3 GLC5        0.0000 
     20 CA         42.1030   25.4000   51.6450 C.3       9 GLL5        0.0000 
     21 CA         43.7190   21.8510   53.1010 C.3       6 GLP5        0.0000 
     22 CA         41.9160   25.8315   54.3060 C.3       3 GLC5        0.0000 
     23 CA         41.2960   26.0480   52.6170 C.3       9 GLL5        0.0000 
     24 CA         42.5360   25.6150   55.9950 C.3       6 GLP5        0.0000 
     25 CA         39.8530   27.0345   52.0330 C.3       3 GLC5        0.0000 
     26 CA         38.4100   28.0210   51.4490 C.3       6 GLP5        0.0000 
     27 O          39.2670   26.4065   53.8860 O.2       1 ALC1        0.0000 
     28 O          40.1940   25.5050   53.1380 O.2       7 ALL1        0.0000 
     29 O          38.3400   27.3080   54.6340 O.2       4 ALP1        0.0000 
     30 N          40.8205   28.0525   54.0185 N.am      2 SEC2        0.0000 
     31 N          41.6820   27.2790   53.0250 N.am      8 SEL2        0.0000 
     32 N          39.9590   28.8260   55.0120 N.am      5 SEP2        0.0000 
     33 CA         42.6620   26.7295   54.2520 C.3       3 GLC5        0.0000 
     34 CA         42.7880   27.8440   52.5090 C.3       9 GLL5        0.0000 
     35 CA         44.8285   27.8815   52.9310 C.3       3 GLC5        0.0000 
     36 CA         46.8690   27.9190   53.3530 C.3       6 GLP5        0.0000 
     37 CA         47.7310   23.0190   46.8295 C.3       3 GLC5        0.0000 
     38 CA         49.3410   23.0210   45.3830 C.3       6 GLP5        0.0000 
     39 CA         46.3598   25.9660   48.0703 C.3       3 GLC5        0.0000 
     40 CA         43.2045   25.3470   53.3845 C.3       3 GLC5        0.0000 
     41 CA         43.2230   26.1020   51.1970 C.3       9 GLL5        0.0000 
     42 CA         43.7460   24.9430   55.3480 C.3       6 GLP5        0.0000 
     43 CA         41.7846   26.2195   50.0595 C.3       3 GLC5        0.0000 
@<TRIPOS>BOND
@<TRIPOS>SUBSTRUCTURE
     1 ALC1       27 GROUP        1 X    ALC  0     ROOT ALC X 1
     2 SEC2       30 GROUP        1 X    SEC  0     **** SEC X 2
     3 GLC5        1 GROUP        1 X    GLC  0     **** GLC X 6
     4 ALP1       29 GROUP        1 Y    ALP  0     ROOT ALP Y 8
     5 SEP2       32 GROUP        1 Y    SEP  0     **** SEP Y 9
     6 GLP5        3 GROUP        1 Y    GLP  0     **** GLP Y 13
     7 ALL1       28 GROUP        1 Z    ALL  0     ROOT ALL Z 15
     8 SEL2       31 GROUP        1 Z    SEL  0     **** SEL Z 16
     9 GLL5        2 GROUP        1 Z    GLL  0     **** GLL Z 20
@<TRIPOS>SET

