#    Name: 1bx4_ADN_2_ligand
#    Modification time : Mon Mar 24 19:54:21 2014

@<TRIPOS>MOLECULE
1bx4_ADN_2_ligand
   32    34     1     0     0
SMALL
NO_CHARGES


@<TRIPOS>ATOM
      1 O5'        44.8000   21.8620   48.7550 O.3       1 ADN355      0.0000 
      2 C5'        45.9290   22.2930   47.9650 C.3       1 ADN355      0.0000 
      3 C4'        46.3130   23.7410   48.5870 C.3       1 ADN355      0.0000 
      4 O4'        45.1640   24.6100   48.4180 O.3       1 ADN355      0.0000 
      5 C3'        46.5620   23.7840   50.1460 C.3       1 ADN355      0.0000 
      6 O3'        47.8550   23.3190   50.6290 O.3       1 ADN355      0.0000 
      7 C2'        46.3130   25.2440   50.4150 C.3       1 ADN355      0.0000 
      8 O2'        47.4830   25.9920   49.9970 O.3       1 ADN355      0.0000 
      9 C1'        45.0920   25.5680   49.5140 C.3       1 ADN355      0.0000 
     10 N9         43.8490   25.2860   50.2680 N.pl3     1 ADN355      0.0000 
     11 C8         43.0610   24.1310   50.2080 C.2       1 ADN355      0.0000 
     12 N7         42.0130   24.1510   51.0100 N.2       1 ADN355      0.0000 
     13 C5         42.1030   25.4000   51.6450 C.ar      1 ADN355      0.0000 
     14 C6         41.2960   26.0480   52.6170 C.ar      1 ADN355      0.0000 
     15 N6         40.1940   25.5050   53.1380 N.pl3     1 ADN355      0.0000 
     16 N1         41.6820   27.2790   53.0250 N.ar      1 ADN355      0.0000 
     17 C2         42.7880   27.8440   52.5090 C.ar      1 ADN355      0.0000 
     18 N3         43.6300   27.3410   51.5900 N.ar      1 ADN355      0.0000 
     19 C4         43.2230   26.1020   51.1970 C.ar      1 ADN355      0.0000 
     20 H          45.6878   22.4655   46.9445 H         1 ADN355      0.0000 
     21 H          46.7889   21.6813   48.0903 H         1 ADN355      0.0000 
     22 H          47.1528   24.1235   48.0877 H         1 ADN355      0.0000 
     23 H          45.7242   23.2430   50.5853 H         1 ADN355      0.0000 
     24 H          46.0492   25.3818   51.4104 H         1 ADN355      0.0000 
     25 H          45.1501   26.5457   49.1884 H         1 ADN355      0.0000 
     26 H          43.3054   23.3785   49.5972 H         1 ADN355      0.0000 
     27 H          39.9559   24.5912   52.8090 H         1 ADN355      0.0000 
     28 H          39.7053   26.0607   53.8106 H         1 ADN355      0.0000 
     29 H          43.0353   28.8478   52.8884 H         1 ADN355      0.0000 
     30 H          45.1589   21.1403   49.3469 H         1 ADN355      0.0000 
     31 H          47.6971   23.0592   51.5817 H         1 ADN355      0.0000 
     32 H          48.1959   25.3037   49.8633 H         1 ADN355      0.0000 
@<TRIPOS>BOND
     1    2    1 1    
     2   30    1 1    
     3    3    2 1    
     4   20    2 1    
     5   21    2 1    
     6    4    3 1    
     7    5    3 1    
     8   22    3 1    
     9    9    4 1    
    10    6    5 1    
    11    7    5 1    
    12   23    5 1    
    13   31    6 1    
    14    8    7 1    
    15    9    7 1    
    16   24    7 1    
    17   32    8 1    
    18   10    9 1    
    19   25    9 1    
    20   11   10 1    
    21   19   10 1    
    22   12   11 2    
    23   26   11 1    
    24   13   12 1    
    25   14   13 ar   
    26   19   13 ar   
    27   15   14 1    
    28   16   14 ar   
    29   27   15 1    
    30   28   15 1    
    31   17   16 ar   
    32   18   17 ar   
    33   29   17 1    
    34   19   18 ar   
@<TRIPOS>SUBSTRUCTURE
     1 ADN355      1 GROUP   
@<TRIPOS>SET

