#    Name: 3nzs_NZS_1_INTS_M
#    Modification time : Tue Mar 25 03:01:05 2014

@<TRIPOS>MOLECULE
3nzs_NZS_1_INTS_M
   55     0     6     0     0
SMALL
NO_CHARGES


@<TRIPOS>ATOM
      1 CA         22.8375   13.2150   24.6860 C.3       2 GLC5        0.0000 
      2 CA         21.3180   12.6390   23.4360 C.3       6 GLL5        0.0000 
      3 CA         24.3570   13.7910   25.9360 C.3       4 GLP5        0.0000 
      4 N          27.5115   13.8925   18.1215 N.am      1 SEC2        0.0000 
      5 N          26.1040   13.8030   18.9240 N.am      5 SEL2        0.0000 
      6 N          28.9190   13.9820   17.3190 N.am      3 SEP2        0.0000 
      7 CA         21.6635   12.9320   20.8005 C.3       2 GLC5        0.0000 
      8 CA         22.7980   13.9930   22.2410 C.3       6 GLL5        0.0000 
      9 CA         20.5290   11.8710   19.3600 C.3       4 GLP5        0.0000 
     10 CA         21.9515   14.9590   23.8450 C.3       2 GLC5        0.0000 
     11 CA         21.1050   15.9250   25.4490 C.3       4 GLP5        0.0000 
     12 CA         23.6205   15.1690   23.2850 C.3       2 GLC5        0.0000 
     13 CA         24.4430   16.3450   24.3290 C.3       4 GLP5        0.0000 
     14 N          18.3740   10.7835   24.5960 N.am      1 SEC2        0.0000 
     15 N          19.3710   11.7730   24.2500 N.am      5 SEL2        0.0000 
     16 N          17.3770    9.7940   24.9420 N.am      3 SEP2        0.0000 
     17 CA         20.4185   15.1100   20.0885 C.3       2 GLC5        0.0000 
     18 CA         20.4760   14.3700   22.0540 C.3       6 GLL5        0.0000 
     19 CA         20.3610   15.8500   18.1230 C.3       4 GLP5        0.0000 
     20 CA         22.2310    9.3730   25.9070 C.3       2 GLC5        0.0000 
     21 CA         21.3750   10.6480   25.0770 C.3       6 GLL5        0.0000 
     22 CA         23.0870    8.0980   26.7370 C.3       4 GLP5        0.0000 
     23 CA         22.3850    9.5880   23.4465 C.3       2 GLC5        0.0000 
     24 CA         23.3950    8.5280   21.8160 C.3       4 GLP5        0.0000 
     25 CA         20.1240   10.1495   26.2920 C.3       2 GLC5        0.0000 
     26 CA         18.8730    9.6510   27.5070 C.3       4 GLP5        0.0000 
     27 CA         21.2790   11.8145   26.6770 C.3       2 GLC5        0.0000 
     28 CA         21.1830   12.9810   28.2770 C.3       4 GLP5        0.0000 
     29 CA         22.8660   12.2195   25.5065 C.3       2 GLC5        0.0000 
     30 CA         20.8740   21.4315   20.8030 C.3       2 GLC5        0.0000 
     31 CA         22.2070   20.3170   20.6690 C.3       6 GLL5        0.0000 
     32 CA         19.5410   22.5460   20.9370 C.3       4 GLP5        0.0000 
     33 CA         25.3125   13.7405   23.5015 C.3       2 GLC5        0.0000 
     34 CA         24.9850   13.1640   21.6880 C.3       6 GLL5        0.0000 
     35 CA         25.6400   14.3170   25.3150 C.3       4 GLP5        0.0000 
     36 CA         22.5855   12.1210   19.8965 C.3       2 GLC5        0.0000 
     37 CA         24.6420   12.3710   20.4330 C.3       6 GLL5        0.0000 
     38 CA         24.6820   10.3740   20.0605 C.3       2 GLC5        0.0000 
     39 CA         24.7220    8.3770   19.6880 C.3       4 GLP5        0.0000 
     40 CA         22.0675   15.2660   18.7710 C.3       2 GLC5        0.0000 
     41 CA         23.7740   14.6820   19.4190 C.3       6 GLL5        0.0000 
     42 CA         22.1515   13.2765   19.3895 C.3       2 GLC5        0.0000 
     43 CA         24.2950   15.8255   22.5455 C.3       2 GLC5        0.0000 
     44 CA         24.1470   15.3060   20.7620 C.3       6 GLL5        0.0000 
     45 CA         20.5769   12.7729   20.9892 C.3       2 GLC5        0.0000 
     46 CA         20.8649   14.7999   24.0338 C.3       2 GLC5        0.0000 
     47 CA         20.2035   16.3072   19.8345 C.3       2 GLC5        0.0000 
     48 CA         19.4420   16.4260   21.4820 C.3       6 GLL5        0.0000 
     49 CA         19.7285   16.6238   23.4220 C.3       2 GLC5        0.0000 
     50 CA         19.4110   16.4830   25.2980 C.3       4 GLP5        0.0000 
     51 CA         20.3105   17.2850   19.4780 C.3       2 GLC5        0.0000 
     52 CA         20.7970   18.4000   21.1360 C.3       6 GLL5        0.0000 
     53 CA         19.4002   16.7875   19.3818 C.3       2 GLC5        0.0000 
     54 CA         18.5090   18.3750   20.4030 C.3       6 GLL5        0.0000 
     55 CA         19.4627   20.5467   20.7775 C.3       2 GLC5        0.0000 
@<TRIPOS>BOND
@<TRIPOS>SUBSTRUCTURE
     1 SEC2        4 GROUP        1 X    SEC  0     ROOT SEC X 2
     2 GLC5        1 GROUP        1 X    GLC  0     **** GLC X 6
     3 SEP2        6 GROUP        1 Y    SEP  0     ROOT SEP Y 9
     4 GLP5        3 GROUP        1 Y    GLP  0     **** GLP Y 13
     5 SEL2        5 GROUP        1 Z    SEL  0     ROOT SEL Z 16
     6 GLL5        2 GROUP        1 Z    GLL  0     **** GLL Z 20
@<TRIPOS>SET

