#    Name: 3nzs_NZS_1_ligand
#    Modification time : Tue Mar 25 03:01:05 2014

@<TRIPOS>MOLECULE
3nzs_NZS_1_ligand
   47    50     1     0     0
SMALL
NO_CHARGES


@<TRIPOS>ATOM
      1 C1         20.2290   13.3200   22.9300 C.ar      1 NZS1        0.0000 
      2 N1         22.5850   12.9710   23.0970 N.ar      1 NZS1        0.0000 
      3 O1         22.0020   19.0400   21.2690 O.3       1 NZS1        0.0000 
      4 S1         24.7480   13.3740   19.1170 S.o2      1 NZS1        0.0000 
      5 C2         21.3180   12.6390   23.4360 C.ar      1 NZS1        0.0000 
      6 N2         21.7520   14.6770   21.7250 N.ar      1 NZS1        0.0000 
      7 O2         26.1040   13.8030   18.9240 O.2       1 NZS1        0.0000 
      8 C3         22.7980   13.9930   22.2410 C.ar      1 NZS1        0.0000 
      9 N3         19.3710   11.7730   24.2500 N.2       1 NZS1        0.0000 
     10 O3         24.2840   12.6810   17.9470 O.2       1 NZS1        0.0000 
     11 C4         20.4760   14.3700   22.0540 C.ar      1 NZS1        0.0000 
     12 N4         20.7790   11.7110   24.2300 N.pl3     1 NZS1        0.0000 
     13 C5         18.9940   12.7870   23.4330 C.2       1 NZS1        0.0000 
     14 N5         19.4370   15.0680   21.5270 N.pl3     1 NZS1        0.0000 
     15 C6         21.3750   10.6480   25.0770 C.3       1 NZS1        0.0000 
     16 N6         24.1190   14.3450   21.8870 N.3       1 NZS1        0.0000 
     17 C7         19.4420   16.4260   21.4820 C.ar      1 NZS1        0.0000 
     18 C8         20.6500   17.1030   21.6100 C.ar      1 NZS1        0.0000 
     19 C9         20.7970   18.4000   21.1360 C.ar      1 NZS1        0.0000 
     20 C10        19.7230   19.0400   20.5300 C.ar      1 NZS1        0.0000 
     21 C11        18.5090   18.3750   20.4030 C.ar      1 NZS1        0.0000 
     22 C12        18.3700   17.0750   20.8780 C.ar      1 NZS1        0.0000 
     23 C13        22.2070   20.3170   20.6690 C.3       1 NZS1        0.0000 
     24 C14        24.9850   13.1640   21.6880 C.3       1 NZS1        0.0000 
     25 C15        24.6420   12.3710   20.4330 C.3       1 NZS1        0.0000 
     26 C16        23.7740   14.6820   19.4190 C.3       1 NZS1        0.0000 
     27 C17        24.1470   15.3060   20.7620 C.3       1 NZS1        0.0000 
     28 H          18.1537   13.1009   23.2172 H         1 NZS1        0.0000 
     29 H          18.6100   14.5461   21.1451 H         1 NZS1        0.0000 
     30 H          21.4518   16.6320   22.0659 H         1 NZS1        0.0000 
     31 H          19.8251   19.9984   20.1780 H         1 NZS1        0.0000 
     32 H          17.7097   18.8458   19.9559 H         1 NZS1        0.0000 
     33 H          17.4655   16.5887   20.7817 H         1 NZS1        0.0000 
     34 H          24.9091   12.4864   22.5579 H         1 NZS1        0.0000 
     35 H          26.0434   13.4757   21.6228 H         1 NZS1        0.0000 
     36 H          25.3421   11.5818   20.2634 H         1 NZS1        0.0000 
     37 H          23.6348   12.0152   20.4562 H         1 NZS1        0.0000 
     38 H          22.7687   14.3107   19.4256 H         1 NZS1        0.0000 
     39 H          23.9349   15.3672   18.6109 H         1 NZS1        0.0000 
     40 H          25.1547   15.7514   20.6681 H         1 NZS1        0.0000 
     41 H          23.4511   16.1423   20.9596 H         1 NZS1        0.0000 
     42 H          21.9168   10.0034   24.5376 H         1 NZS1        0.0000 
     43 H          21.9810   11.0267   25.7766 H         1 NZS1        0.0000 
     44 H          20.6746   10.1159   25.5527 H         1 NZS1        0.0000 
     45 H          23.1264   20.6677   20.8471 H         1 NZS1        0.0000 
     46 H          22.0934   20.2834   19.6760 H         1 NZS1        0.0000 
     47 H          21.5614   20.9978   21.0150 H         1 NZS1        0.0000 
@<TRIPOS>BOND
     1    5    1 ar   
     2   11    1 ar   
     3   13    1 1    
     4    5    2 ar   
     5    8    2 ar   
     6   19    3 1    
     7   23    3 1    
     8    7    4 2    
     9   10    4 2    
    10   25    4 1    
    11   26    4 1    
    12   12    5 1    
    13    8    6 ar   
    14   11    6 ar   
    15   16    8 1    
    16   12    9 1    
    17   13    9 2    
    18   14   11 1    
    19   15   12 1    
    20   28   13 1    
    21   17   14 1    
    22   29   14 1    
    23   42   15 1    
    24   43   15 1    
    25   44   15 1    
    26   24   16 1    
    27   27   16 1    
    28   18   17 ar   
    29   22   17 ar   
    30   19   18 ar   
    31   30   18 1    
    32   20   19 ar   
    33   21   20 ar   
    34   31   20 1    
    35   22   21 ar   
    36   32   21 1    
    37   33   22 1    
    38   45   23 1    
    39   46   23 1    
    40   47   23 1    
    41   25   24 1    
    42   34   24 1    
    43   35   24 1    
    44   36   25 1    
    45   37   25 1    
    46   27   26 1    
    47   38   26 1    
    48   39   26 1    
    49   40   27 1    
    50   41   27 1    
@<TRIPOS>SUBSTRUCTURE
     1 NZS1        1 GROUP   
@<TRIPOS>SET

