#    Name: 2qa8_GEN_1_INTS_M
#    Modification time : Mon Mar 24 21:39:18 2014

@<TRIPOS>MOLECULE
2qa8_GEN_1_INTS_M
   57     0     9     0     0
SMALL
NO_CHARGES


@<TRIPOS>ATOM
      1 O          -9.4750   -5.2275   14.7410 O.2       1 ALC1        0.0000 
      2 O          -9.3680   -4.2620   15.6460 O.2       7 ALL1        0.0000 
      3 O          -9.5820   -6.1930   13.8360 O.2       4 ALP1        0.0000 
      4 CA         -4.4675   -2.4785   19.8575 C.3       3 GLC5        0.0000 
      5 CA         -5.5870   -4.0280   20.9010 C.3       9 GLL5        0.0000 
      6 CA         -3.3480   -0.9290   18.8140 C.3       6 GLP5        0.0000 
      7 CA         -4.9565   -6.0130   21.7240 C.3       3 GLC5        0.0000 
      8 CA         -4.3260   -7.9980   22.5470 C.3       6 GLP5        0.0000 
      9 CA         -6.8125   -1.7520   22.2330 C.3       3 GLC5        0.0000 
     10 CA         -6.7250   -3.2250   21.0020 C.3       9 GLL5        0.0000 
     11 CA         -6.9000   -0.2790   23.4640 C.3       6 GLP5        0.0000 
     12 CA         -8.4235   -4.9795   20.4735 C.3       3 GLC5        0.0000 
     13 CA         -7.5470   -3.8240   18.7750 C.3       9 GLL5        0.0000 
     14 CA         -9.3000   -6.1350   22.1720 C.3       6 GLP5        0.0000 
     15 CA         -6.0260   -2.0190   23.3920 C.3       3 GLC5        0.0000 
     16 CA         -5.1520   -3.7590   23.3200 C.3       9 GLL5        0.0000 
     17 CA         -5.3880   -3.8815   26.1655 C.3       3 GLC5        0.0000 
     18 CA         -4.3230   -3.6590   24.4040 C.3       9 GLL5        0.0000 
     19 CA         -6.4530   -4.1040   27.9270 C.3       6 GLP5        0.0000 
     20 CA         -5.5525   -1.8895   24.6970 C.3       3 GLC5        0.0000 
     21 CA         -6.7820   -0.1200   24.9900 C.3       6 GLP5        0.0000 
     22 N          -1.5655   -4.5725   26.3405 N.am      2 SEC2        0.0000 
     23 N          -2.1640   -3.6250   25.3760 N.am      8 SEL2        0.0000 
     24 N          -0.9670   -5.5200   27.3050 N.am      5 SEP2        0.0000 
     25 O          -2.9270   -2.9090   26.1950 O.2       1 ALC1        0.0000 
     26 O          -2.1640   -3.6250   25.3760 O.2       7 ALL1        0.0000 
     27 O          -3.6900   -2.1930   27.0140 O.2       4 ALP1        0.0000 
     28 O          -1.9880   -2.5965   26.6745 O.2       1 ALC1        0.0000 
     29 O          -1.8120   -1.5680   27.9730 O.2       4 ALP1        0.0000 
     30 CA         -0.4610   -3.7900   21.8930 C.3       3 GLC5        0.0000 
     31 CA         -2.4000   -3.9470   22.9830 C.3       9 GLL5        0.0000 
     32 CA          1.4780   -3.6330   20.8030 C.3       6 GLP5        0.0000 
     33 CA         -0.8490   -5.2520   23.2680 C.3       3 GLC5        0.0000 
     34 CA          0.7020   -6.5570   23.5530 C.3       6 GLP5        0.0000 
     35 CA         -3.2975   -2.4880   20.3480 C.3       3 GLC5        0.0000 
     36 CA         -3.2470   -4.0470   21.8820 C.3       9 GLL5        0.0000 
     37 CA         -2.0215   -5.9325   21.9205 C.3       3 GLC5        0.0000 
     38 CA         -0.7960   -7.8180   21.9590 C.3       6 GLP5        0.0000 
     39 CA        -10.1330   -4.4960   17.3563 C.3       3 GLC5        0.0000 
     40 CA         -8.5280   -3.6930   17.7920 C.3       9 GLL5        0.0000 
     41 CA        -11.7960   -4.9530   17.5210 C.3       6 GLP5        0.0000 
     42 CA         -8.9440   -2.5025   16.0868 C.3       3 GLC5        0.0000 
     43 CA         -9.4180   -0.9660   14.9820 C.3       6 GLP5        0.0000 
     44 CA         -8.4507   -5.5133   14.5245 C.3       3 GLC5        0.0000 
     45 CA         -7.3170   -5.2000   16.3650 C.3       9 GLL5        0.0000 
     46 CA         -9.0370   -6.2340   12.5710 C.3       6 GLP5        0.0000 
     47 CA         -5.6975   -4.4360   15.2227 C.3       3 GLC5        0.0000 
     48 CA         -4.5710   -3.6110   13.5910 C.3       6 GLP5        0.0000 
     49 CA         -7.9369   -6.7616   17.0100 C.3       3 GLC5        0.0000 
     50 CA         -6.3310   -5.3220   17.3440 C.3       9 GLL5        0.0000 
     51 CA         -8.7760   -8.4660   17.1090 C.3       6 GLP5        0.0000 
     52 CA         -7.7280   -4.8807   21.5617 C.3       3 GLC5        0.0000 
     53 CA         -4.1063   -1.7085   23.3465 C.3       3 GLC5        0.0000 
     54 CA         -3.4750    0.2920   22.8310 C.3       6 GLP5        0.0000 
     55 CA         -2.0819   -2.2819   22.6947 C.3       3 GLC5        0.0000 
     56 CA         -2.9410   -3.7540   24.2590 C.3       9 GLL5        0.0000 
     57 CA         -1.2050   -0.6150   22.6380 C.3       6 GLP5        0.0000 
@<TRIPOS>BOND
@<TRIPOS>SUBSTRUCTURE
     1 ALC1        1 GROUP        1 X    ALC  0     ROOT ALC X 1
     2 SEC2       22 GROUP        1 X    SEC  0     **** SEC X 2
     3 GLC5        4 GROUP        1 X    GLC  0     **** GLC X 6
     4 ALP1        3 GROUP        1 Y    ALP  0     ROOT ALP Y 8
     5 SEP2       24 GROUP        1 Y    SEP  0     **** SEP Y 9
     6 GLP5        6 GROUP        1 Y    GLP  0     **** GLP Y 13
     7 ALL1        2 GROUP        1 Z    ALL  0     ROOT ALL Z 15
     8 SEL2       23 GROUP        1 Z    SEL  0     **** SEL Z 16
     9 GLL5        5 GROUP        1 Z    GLL  0     **** GLL Z 20
@<TRIPOS>SET

