#    Name: 2qa8_GEN_1_ligand
#    Modification time : Mon Mar 24 21:39:18 2014

@<TRIPOS>MOLECULE
2qa8_GEN_1_ligand
   30    32     1     0     0
SMALL
NO_CHARGES


@<TRIPOS>ATOM
      1 C1         -8.5280   -3.6930   17.7920 C.ar      1 GEN600      0.0000 
      2 C2         -8.4120   -4.3850   16.5910 C.ar      1 GEN600      0.0000 
      3 O2         -9.3680   -4.2620   15.6460 O.3       1 GEN600      0.0000 
      4 C3         -7.3170   -5.2000   16.3650 C.ar      1 GEN600      0.0000 
      5 C4         -6.3310   -5.3220   17.3440 C.ar      1 GEN600      0.0000 
      6 O4         -5.2580   -6.1090   17.1170 O.3       1 GEN600      0.0000 
      7 C5         -6.4390   -4.6460   18.5570 C.ar      1 GEN600      0.0000 
      8 C6         -5.3890   -4.7740   19.6300 C.2       1 GEN600      0.0000 
      9 O6         -4.3930   -5.5010   19.4830 O.2       1 GEN600      0.0000 
     10 C7         -5.5870   -4.0280   20.9010 C.2       1 GEN600      0.0000 
     11 C8         -6.7250   -3.2250   21.0020 C.2       1 GEN600      0.0000 
     12 O9         -7.6910   -3.1470   19.9650 O.3       1 GEN600      0.0000 
     13 C10        -7.5470   -3.8240   18.7750 C.ar      1 GEN600      0.0000 
     14 C11        -4.6380   -3.9970   22.0520 C.ar      1 GEN600      0.0000 
     15 C12        -5.1520   -3.7590   23.3200 C.ar      1 GEN600      0.0000 
     16 C13        -4.3230   -3.6590   24.4040 C.ar      1 GEN600      0.0000 
     17 C14        -2.9410   -3.7540   24.2590 C.ar      1 GEN600      0.0000 
     18 O14        -2.1640   -3.6250   25.3760 O.3       1 GEN600      0.0000 
     19 C15        -2.4000   -3.9470   22.9830 C.ar      1 GEN600      0.0000 
     20 C16        -3.2470   -4.0470   21.8820 C.ar      1 GEN600      0.0000 
     21 H          -9.3393   -3.0821   17.9576 H         1 GEN600      0.0000 
     22 H          -7.2259   -5.7154   15.4813 H         1 GEN600      0.0000 
     23 H          -6.8785   -2.6621   21.8611 H         1 GEN600      0.0000 
     24 H          -6.1780   -3.6572   23.4374 H         1 GEN600      0.0000 
     25 H          -4.7190   -3.5103   25.3519 H         1 GEN600      0.0000 
     26 H          -1.3849   -4.0141   22.8623 H         1 GEN600      0.0000 
     27 H          -2.8545   -4.1581   20.9381 H         1 GEN600      0.0000 
     28 H          -9.2418   -5.0521   15.0461 H         1 GEN600      0.0000 
     29 H          -4.7016   -6.0328   17.9444 H         1 GEN600      0.0000 
     30 H          -2.4220   -2.7429   25.7701 H         1 GEN600      0.0000 
@<TRIPOS>BOND
     1    2    1 ar   
     2   13    1 ar   
     3   21    1 1    
     4    3    2 1    
     5    4    2 ar   
     6   28    3 1    
     7    5    4 ar   
     8   22    4 1    
     9    6    5 1    
    10    7    5 ar   
    11   29    6 1    
    12    8    7 1    
    13   13    7 ar   
    14    9    8 2    
    15   10    8 1    
    16   11   10 2    
    17   14   10 1    
    18   12   11 1    
    19   23   11 1    
    20   13   12 1    
    21   15   14 ar   
    22   20   14 ar   
    23   16   15 ar   
    24   24   15 1    
    25   17   16 ar   
    26   25   16 1    
    27   18   17 1    
    28   19   17 ar   
    29   30   18 1    
    30   20   19 ar   
    31   26   19 1    
    32   27   20 1    
@<TRIPOS>SUBSTRUCTURE
     1 GEN600      1 GROUP   
@<TRIPOS>SET

