#    Name: 1caq_DPS_1_INTS_M
#    Modification time : Mon Mar 24 20:27:50 2014

@<TRIPOS>MOLECULE
1caq_DPS_1_INTS_M
   76     0    12     0     0
SMALL
NO_CHARGES


@<TRIPOS>ATOM
      1 CA         17.5215    9.6645   21.5450 C.3       4 GLC5        0.0000 
      2 CA         16.2400    8.6210   20.2690 C.3      12 GLL5        0.0000 
      3 CA         18.8030   10.7080   22.8210 C.3       8 GLP5        0.0000 
      4 CA         18.0280    7.4210   19.9335 C.3       4 GLC5        0.0000 
      5 CA         19.8160    6.2210   19.5980 C.3       8 GLP5        0.0000 
      6 CA         16.1615    9.3455   22.5710 C.3       4 GLC5        0.0000 
      7 CA         15.7820    7.7660   21.2490 C.3      12 GLL5        0.0000 
      8 CA         16.5410   10.9250   23.8930 C.3       8 GLP5        0.0000 
      9 N          16.1405    5.3140   24.6275 N.am      2 SEC2        0.0000 
     10 N          15.7780    5.7560   23.3430 N.am     10 SEL2        0.0000 
     11 N          16.5030    4.8720   25.9120 N.am      6 SEP2        0.0000 
     12 N          15.3475    6.3925   24.9000 N.am      2 SEC2        0.0000 
     13 N          14.9170    7.0290   26.4570 N.am      6 SEP2        0.0000 
     14 CA         14.7660    5.8840   16.9285 C.3       4 GLC5        0.0000 
     15 CA         15.7830    6.9410   18.6100 C.3      12 GLL5        0.0000 
     16 CA         13.7490    4.8270   15.2470 C.3       8 GLP5        0.0000 
     17 CA         16.5745    5.4890   17.3165 C.3       4 GLC5        0.0000 
     18 CA         17.3660    4.0370   16.0230 C.3       8 GLP5        0.0000 
     19 CA         19.4975    8.5325   14.7355 C.3       4 GLC5        0.0000 
     20 CA         17.9670    9.3090   15.6520 C.3      12 GLL5        0.0000 
     21 CA         21.0280    7.7560   13.8190 C.3       8 GLP5        0.0000 
     22 CA         19.5320   12.4315   18.4240 C.3       4 GLC5        0.0000 
     23 CA         18.5830   10.9320   17.4580 C.3      12 GLL5        0.0000 
     24 CA         20.4810   13.9310   19.3900 C.3       8 GLP5        0.0000 
     25 CA         17.3950   11.4150   20.2230 C.3       4 GLC5        0.0000 
     26 CA         17.5660   10.2930   18.3870 C.3      12 GLL5        0.0000 
     27 CA         17.2240   12.5370   22.0590 C.3       8 GLP5        0.0000 
     28 CA         15.8870   11.1090   18.5825 C.3       4 GLC5        0.0000 
     29 CA         14.2080   11.9250   18.7780 C.3       8 GLP5        0.0000 
     30 CA         15.2170    9.6780   17.3975 C.3       4 GLC5        0.0000 
     31 CA         16.8540    8.7120   16.5100 C.3      12 GLL5        0.0000 
     32 CA         13.5800   10.6440   18.2850 C.3       8 GLP5        0.0000 
     33 O          13.0655    6.1140   23.8630 O.2       1 ALC1        0.0000 
     34 O          13.4060    5.4880   22.7010 O.2       9 ALL1        0.0000 
     35 O          12.7250    6.7400   25.0250 O.2       5 ALP1        0.0000 
     36 Zn         12.2040    6.4120   20.6880 Zn        3 ZIC7        0.0000 
     37 Zn         13.4060    5.4880   22.7010 Zn       11 ZIL7        0.0000 
     38 Zn         11.0020    7.3360   18.6750 Zn        7 ZIP7        0.0000 
     39 CA         12.2910    3.9825   24.5270 C.3       4 GLC5        0.0000 
     40 CA         11.2250    4.3780   22.6600 C.3      12 GLL5        0.0000 
     41 CA         13.3570    3.5870   26.3940 C.3       8 GLP5        0.0000 
     42 CA         10.3770    5.4660   24.2585 C.3       4 GLC5        0.0000 
     43 CA          9.5290    6.5540   25.8570 C.3       8 GLP5        0.0000 
     44 N          12.3725    8.3140   22.0325 N.am      2 SEC2        0.0000 
     45 N          11.8320    7.2990   21.3820 N.am     10 SEL2        0.0000 
     46 N          12.9130    9.3290   22.6830 N.am      6 SEP2        0.0000 
     47 Zn         11.2845    6.5500   19.2170 Zn        3 ZIC7        0.0000 
     48 Zn         11.5670    5.7640   19.7590 Zn       11 ZIL7        0.0000 
     49 CA          9.0640    6.3865   23.8975 C.3       4 GLC5        0.0000 
     50 CA          8.5990    6.2190   21.9380 C.3      12 GLL5        0.0000 
     51 CA         14.4725    8.9238   19.8905 C.3       4 GLC5        0.0000 
     52 CA         12.9340    9.6540   19.0220 C.3       8 GLP5        0.0000 
     53 CA         14.1357    7.9695   19.6355 C.3       4 GLC5        0.0000 
     54 CA         15.3750    6.4870   20.9090 C.3      12 GLL5        0.0000 
     55 CA         22.6623   13.0960   13.2455 C.3       4 GLC5        0.0000 
     56 CA         21.2210   12.5320   14.5340 C.3      12 GLL5        0.0000 
     57 CA         24.3440   13.4600   12.5770 C.3       8 GLP5        0.0000 
     58 CA         17.2907   12.7127   15.6005 C.3       4 GLC5        0.0000 
     59 CA         19.1110   11.4660   15.0470 C.3      12 GLL5        0.0000 
     60 CA         15.9420   14.3020   15.6790 C.3       8 GLP5        0.0000 
     61 CA         20.9245   13.7175   16.1427 C.3       4 GLC5        0.0000 
     62 CA         20.4150   11.8000   15.4050 C.3      12 GLL5        0.0000 
     63 CA         21.0310   15.2690   17.3160 C.3       8 GLP5        0.0000 
     64 CA         14.4902    8.6113   18.8972 C.3       4 GLC5        0.0000 
     65 CA         16.3100    8.1960   18.9350 C.3      12 GLL5        0.0000 
     66 CA         17.8463    6.8967   18.4147 C.3       4 GLC5        0.0000 
     67 CA         19.6460    6.2250   18.0570 C.3       8 GLP5        0.0000 
     68 CA         18.5282    7.6177   17.0690 C.3       4 GLC5        0.0000 
     69 CA         19.2287    9.5947   19.1182 C.3       4 GLC5        0.0000 
     70 CA         20.3830    8.5770   20.3140 C.3       8 GLP5        0.0000 
     71 CA         17.0640   12.5427   13.1695 C.3       4 GLC5        0.0000 
     72 CA         18.6440   11.8360   13.7820 C.3      12 GLL5        0.0000 
     73 CA         15.0810   12.8820   12.9920 C.3       8 GLP5        0.0000 
     74 CA          8.3901    7.9160   20.7385 C.3       4 GLC5        0.0000 
     75 CA          7.4230    6.8330   21.5150 C.3      12 GLL5        0.0000 
     76 CA          8.9840    9.4780   19.9640 C.3       8 GLP5        0.0000 
@<TRIPOS>BOND
@<TRIPOS>SUBSTRUCTURE
     1 ALC1       33 GROUP        1 X    ALC  0     ROOT ALC X 1
     2 SEC2        9 GROUP        1 X    SEC  0     **** SEC X 2
     3 ZIC7       36 GROUP        1 X    ZIC  0     **** ZIC X 5
     4 GLC5        1 GROUP        1 X    GLC  0     **** GLC X 6
     5 ALP1       35 GROUP        1 Y    ALP  0     ROOT ALP Y 8
     6 SEP2       11 GROUP        1 Y    SEP  0     **** SEP Y 9
     7 ZIP7       38 GROUP        1 Y    ZIP  0     **** ZIP Y 12
     8 GLP5        3 GROUP        1 Y    GLP  0     **** GLP Y 13
     9 ALL1       34 GROUP        1 Z    ALL  0     ROOT ALL Z 15
    10 SEL2       10 GROUP        1 Z    SEL  0     **** SEL Z 16
    11 ZIL7       37 GROUP        1 Z    ZIL  0     **** ZIL Z 19
    12 GLL5        2 GROUP        1 Z    GLL  0     **** GLL Z 20
@<TRIPOS>SET

