#    Name: 1caq_DPS_1_ligand
#    Modification time : Mon Mar 24 20:27:50 2014

@<TRIPOS>MOLECULE
1caq_DPS_1_ligand
   65    69     1     0     0
SMALL
NO_CHARGES


@<TRIPOS>ATOM
      1 N1         16.9890    9.0060   17.9520 N.4       1 DPS502      0.0000 
      2 C2         16.2400    8.6210   20.2690 C.ar      1 DPS502      0.0000 
      3 C3         15.7820    7.7660   21.2490 C.ar      1 DPS502      0.0000 
      4 C4         15.3750    6.4870   20.9090 C.ar      1 DPS502      0.0000 
      5 C5         15.3000    6.0830   19.5890 C.ar      1 DPS502      0.0000 
      6 N7          8.6120    2.9830   20.4130 N.pl3     1 DPS502      0.0000 
      7 C8         12.3680    4.9770   21.8300 C.3       1 DPS502      0.0000 
      8 C10        20.7400   12.9320   13.2940 C.ar      1 DPS502      0.0000 
      9 C11        18.1680   10.7810   15.9970 C.3       1 DPS502      0.0000 
     10 C12        21.2210   12.5320   14.5340 C.ar      1 DPS502      0.0000 
     11 O1         15.7780    5.7560   23.3430 O.2       1 DPS502      0.0000 
     12 O2         15.1780    4.0470   21.6730 O.2       1 DPS502      0.0000 
     13 C1         16.3100    8.1960   18.9350 C.ar      1 DPS502      0.0000 
     14 C6         15.7830    6.9410   18.6100 C.ar      1 DPS502      0.0000 
     15 S          15.0170    5.3500   22.1940 S.o2      1 DPS502      0.0000 
     16 C7         17.9670    9.3090   15.6520 C.3       1 DPS502      0.0000 
     17 C13        18.5830   10.9320   17.4580 C.3       1 DPS502      0.0000 
     18 C15        17.5660   10.2930   18.3870 C.3       1 DPS502      0.0000 
     19 C18        16.8540    8.7120   16.5100 C.3       1 DPS502      0.0000 
     20 C14        20.4150   11.8000   15.4050 C.ar      1 DPS502      0.0000 
     21 C16        19.1110   11.4660   15.0470 C.ar      1 DPS502      0.0000 
     22 C17        18.6440   11.8360   13.7820 C.ar      1 DPS502      0.0000 
     23 C19        19.4500   12.5710   12.9120 C.ar      1 DPS502      0.0000 
     24 N          13.4060    5.4880   22.7010 N.pl3     1 DPS502      0.0000 
     25 C20        11.2250    4.3780   22.6600 C.3       1 DPS502      0.0000 
     26 C9         11.8860    6.0480   20.8650 C.2       1 DPS502      0.0000 
     27 O3         11.8320    7.2990   21.3820 O.co2     1 DPS502      0.0000 
     28 O4         11.5670    5.7640   19.7590 O.co2     1 DPS502      0.0000 
     29 C21         6.5640    6.1450   20.6610 C.ar      1 DPS502      0.0000 
     30 C22         6.8650    4.8350   20.2560 C.ar      1 DPS502      0.0000 
     31 C23         8.0340    4.2350   20.6570 C.ar      1 DPS502      0.0000 
     32 C24         8.8960    4.9350   21.5390 C.ar      1 DPS502      0.0000 
     33 C25         8.5990    6.2190   21.9380 C.ar      1 DPS502      0.0000 
     34 C26         7.4230    6.8330   21.5150 C.ar      1 DPS502      0.0000 
     35 C27         9.7990    2.8810   21.0680 C.2       1 DPS502      0.0000 
     36 C28        10.0320    4.0640   21.7800 C.2       1 DPS502      0.0000 
     37 H          18.1792    8.3344   18.0742 H         1 DPS502      0.0000 
     38 H          16.5347    9.5793   20.5081 H         1 DPS502      0.0000 
     39 H          15.7418    8.0748   22.2301 H         1 DPS502      0.0000 
     40 H          14.9015    5.1804   19.3384 H         1 DPS502      0.0000 
     41 H           8.2080    2.3059   19.8568 H         1 DPS502      0.0000 
     42 H          12.7852    4.1512   21.2229 H         1 DPS502      0.0000 
     43 H          21.3269   13.4873   12.6649 H         1 DPS502      0.0000 
     44 H          17.1709   11.2680   15.8972 H         1 DPS502      0.0000 
     45 H          22.1831   12.7775   14.8154 H         1 DPS502      0.0000 
     46 H          15.7547    6.6498   17.6149 H         1 DPS502      0.0000 
     47 H          18.8910    8.7667   15.8342 H         1 DPS502      0.0000 
     48 H          17.6995    9.2181   14.6026 H         1 DPS502      0.0000 
     49 H          18.6750   11.9935   17.6955 H         1 DPS502      0.0000 
     50 H          19.5557   10.4586   17.6040 H         1 DPS502      0.0000 
     51 H          18.0467   10.1689   19.3922 H         1 DPS502      0.0000 
     52 H          16.7432   11.0344   18.5606 H         1 DPS502      0.0000 
     53 H          15.8853    9.0942   16.1330 H         1 DPS502      0.0000 
     54 H          16.8409    7.6170   16.3448 H         1 DPS502      0.0000 
     55 H          20.7870   11.5045   16.3192 H         1 DPS502      0.0000 
     56 H          17.6937   11.5621   13.4902 H         1 DPS502      0.0000 
     57 H          19.0909   12.8456   11.9895 H         1 DPS502      0.0000 
     58 H          13.2986    5.9091   23.5570 H         1 DPS502      0.0000 
     59 H          10.9354    5.0921   23.4292 H         1 DPS502      0.0000 
     60 H          11.5771    3.4660   23.1394 H         1 DPS502      0.0000 
     61 H           5.7035    6.5950   20.3228 H         1 DPS502      0.0000 
     62 H           6.1959    4.3311   19.6538 H         1 DPS502      0.0000 
     63 H           9.2474    6.7351   22.5542 H         1 DPS502      0.0000 
     64 H           7.1922    7.7788   21.8278 H         1 DPS502      0.0000 
     65 H          10.3960    2.1314   21.0588 H         1 DPS502      0.0000 
@<TRIPOS>BOND
     1   13    1 1    
     2   18    1 1    
     3   19    1 1    
     4   37    1 1    
     5    3    2 ar   
     6   13    2 ar   
     7   38    2 1    
     8    4    3 ar   
     9   39    3 1    
    10    5    4 ar   
    11   15    4 1    
    12   14    5 ar   
    13   40    5 1    
    14   31    6 1    
    15   35    6 1    
    16   41    6 1    
    17   24    7 1    
    18   25    7 1    
    19   26    7 1    
    20   42    7 1    
    21   10    8 ar   
    22   23    8 ar   
    23   43    8 1    
    24   16    9 1    
    25   17    9 1    
    26   21    9 1    
    27   44    9 1    
    28   20   10 ar   
    29   45   10 1    
    30   15   11 2    
    31   15   12 2    
    32   14   13 ar   
    33   46   14 1    
    34   24   15 1    
    35   19   16 1    
    36   47   16 1    
    37   48   16 1    
    38   18   17 1    
    39   49   17 1    
    40   50   17 1    
    41   51   18 1    
    42   52   18 1    
    43   53   19 1    
    44   54   19 1    
    45   21   20 ar   
    46   55   20 1    
    47   22   21 ar   
    48   23   22 ar   
    49   56   22 1    
    50   57   23 1    
    51   58   24 1    
    52   36   25 1    
    53   59   25 1    
    54   60   25 1    
    55   27   26 ar   
    56   28   26 ar   
    57   30   29 ar   
    58   34   29 ar   
    59   61   29 1    
    60   31   30 ar   
    61   62   30 1    
    62   32   31 ar   
    63   33   32 ar   
    64   36   32 1    
    65   34   33 ar   
    66   63   33 1    
    67   64   34 1    
    68   36   35 2    
    69   65   35 1    
@<TRIPOS>SUBSTRUCTURE
     1 DPS502      1 GROUP   
@<TRIPOS>SET

