#    Name: 3pfg_SAM_1_INTS_M
#    Modification time : Tue Mar 25 06:29:44 2014

@<TRIPOS>MOLECULE
3pfg_SAM_1_INTS_M
   83     0     9     0     0
SMALL
NO_CHARGES


@<TRIPOS>ATOM
      1 O          -4.9970   -0.5370   18.6150 O.2       1 ALC1        0.0000 
      2 O          -5.2490    0.7070   19.2290 O.2       7 ALL1        0.0000 
      3 O          -4.7450   -1.7810   18.0010 O.2       4 ALP1        0.0000 
      4 O          -4.0875    0.8880   20.3165 O.2       1 ALC1        0.0000 
      5 O          -2.9260    1.0690   21.4040 O.2       4 ALP1        0.0000 
      6 CA         -6.2560   -0.2695   17.5515 C.3       3 GLC5        0.0000 
      7 CA         -6.7140    0.5430   19.5720 C.3       9 GLL5        0.0000 
      8 CA         -5.7980   -1.0820   15.5310 C.3       6 GLP5        0.0000 
      9 N          -8.8045    0.9895   21.6490 N.am      2 SEC2        0.0000 
     10 N          -8.4270    1.8010   20.6160 N.am      8 SEL2        0.0000 
     11 N          -9.1820    0.1780   22.6820 N.am      5 SEP2        0.0000 
     12 N          -9.2450    2.8290   20.9685 N.am      2 SEC2        0.0000 
     13 N         -10.0630    3.8570   21.3210 N.am      5 SEP2        0.0000 
     14 N          -9.2000    1.4905   19.4815 N.am      2 SEC2        0.0000 
     15 N          -9.9730    1.1800   18.3470 N.am      5 SEP2        0.0000 
     16 CA         -5.6490    0.9875   22.5220 C.3       3 GLC5        0.0000 
     17 CA         -6.3950   -0.7250   21.7490 C.3       9 GLL5        0.0000 
     18 CA         -4.9030    2.7000   23.2950 C.3       6 GLP5        0.0000 
     19 CA         -8.1400   -3.5065   23.6010 C.3       3 GLC5        0.0000 
     20 CA         -7.0240   -2.1270   22.7620 C.3       9 GLL5        0.0000 
     21 CA         -9.2560   -4.8860   24.4400 C.3       6 GLP5        0.0000 
     22 CA         -8.7645   -1.1575   22.6575 C.3       3 GLC5        0.0000 
     23 CA        -10.5050   -0.1880   22.5530 C.3       6 GLP5        0.0000 
     24 CA         -7.3585   -3.4605   24.5650 C.3       3 GLC5        0.0000 
     25 CA         -6.6690   -1.4710   24.4010 C.3       9 GLL5        0.0000 
     26 CA         -8.0480   -5.4500   24.7290 C.3       6 GLP5        0.0000 
     27 CA         -8.7855   -1.3660   23.8660 C.3       3 GLC5        0.0000 
     28 CA        -10.9020   -1.2610   23.3310 C.3       6 GLP5        0.0000 
     29 CA         -6.9455    0.5295   24.2990 C.3       3 GLC5        0.0000 
     30 CA         -7.2220    2.5300   24.1970 C.3       6 GLP5        0.0000 
     31 CA         -4.6585   -4.7095   23.7395 C.3       3 GLC5        0.0000 
     32 CA         -5.7300   -3.3830   22.6220 C.3       9 GLL5        0.0000 
     33 CA         -3.5870   -6.0360   24.8570 C.3       6 GLP5        0.0000 
     34 CA         -4.2755   -3.8235   19.8825 C.3       3 GLC5        0.0000 
     35 CA         -5.7680   -4.0620   21.2600 C.3       9 GLL5        0.0000 
     36 CA         -2.7830   -3.5850   18.5050 C.3       6 GLP5        0.0000 
     37 CA         -7.3570   -5.7980   22.6540 C.3       3 GLC5        0.0000 
     38 CA         -7.0310   -4.9190   21.0520 C.3       9 GLL5        0.0000 
     39 CA         -7.6830   -6.6770   24.2560 C.3       6 GLP5        0.0000 
     40 CA         -9.0600   -4.2245   20.6290 C.3       3 GLC5        0.0000 
     41 CA        -11.0890   -3.5300   20.2060 C.3       6 GLP5        0.0000 
     42 O          -7.1585   -4.7570   18.5700 O.2       1 ALC1        0.0000 
     43 O          -7.6840   -4.5400   19.8390 O.2       7 ALL1        0.0000 
     44 O          -6.6330   -4.9740   17.3010 O.2       4 ALP1        0.0000 
     45 O          -7.5725   -5.7430   18.7850 O.2       1 ALC1        0.0000 
     46 O          -7.4610   -6.9460   17.7310 O.2       4 ALP1        0.0000 
     47 CA         -7.4940   -6.8255   22.2030 C.3       3 GLC5        0.0000 
     48 CA         -6.4170   -6.3200   20.9880 C.3       9 GLL5        0.0000 
     49 CA         -8.5710   -7.3310   23.4180 C.3       6 GLP5        0.0000 
     50 O          -7.2750   -7.1330   18.9735 O.2       1 ALC1        0.0000 
     51 O          -7.0890   -7.3200   20.2160 O.2       7 ALL1        0.0000 
     52 CA         -3.9410   -4.7940   19.4265 C.3       3 GLC5        0.0000 
     53 CA         -5.0990   -6.0030   20.3480 C.3       9 GLL5        0.0000 
     54 CA         -0.8500   -9.9150   17.2715 C.3       3 GLC5        0.0000 
     55 CA         -1.3620   -9.0040   19.2480 C.3       9 GLL5        0.0000 
     56 CA         -0.3380  -10.8260   15.2950 C.3       6 GLP5        0.0000 
     57 O           0.3590  -10.7235   18.6965 O.2       1 ALC1        0.0000 
     58 O          -0.4720   -9.9260   19.6510 O.2       7 ALL1        0.0000 
     59 O           1.1900  -11.5210   17.7420 O.2       4 ALP1        0.0000 
     60 N          -0.1740   -8.7815   17.0300 N.am      2 SEC2        0.0000 
     61 N          -1.3280   -8.6020   17.9460 N.am      8 SEL2        0.0000 
     62 N           0.9800   -8.9610   16.1140 N.am      5 SEP2        0.0000 
     63 CA         -2.5050   -5.6290   17.9915 C.3       3 GLC5        0.0000 
     64 CA         -2.2270   -7.6730   17.4780 C.3       9 GLL5        0.0000 
     65 CA         -3.5145   -8.9280   17.5605 C.3       3 GLC5        0.0000 
     66 CA         -4.8020  -10.1830   17.6430 C.3       6 GLP5        0.0000 
     67 CA         -1.2825   -9.2495   16.3865 C.3       3 GLC5        0.0000 
     68 CA         -0.9970   -6.6465   18.5790 C.3       3 GLC5        0.0000 
     69 CA          0.2330   -5.6200   19.6800 C.3       6 GLP5        0.0000 
     70 CA         -2.9785   -5.5305   19.0160 C.3       3 GLC5        0.0000 
     71 CA         -3.1740   -7.4760   19.5270 C.3       9 GLL5        0.0000 
     72 CA         -3.9880   -8.8295   18.5850 C.3       3 GLC5        0.0000 
     73 CA         -7.8215   -1.2880   18.6740 C.3       3 GLC5        0.0000 
     74 CA         -7.0100   -0.7390   20.3440 C.3       9 GLL5        0.0000 
     75 CA         -8.7810   -2.4780   17.3900 C.3       6 GLP5        0.0000 
     76 CA         -8.6037   -0.4600   21.7998 C.3       3 GLC5        0.0000 
     77 CA         -6.8985   -4.5862   23.3350 C.3       3 GLC5        0.0000 
     78 CA         -3.8815   -3.1113   21.7735 C.3       3 GLC5        0.0000 
     79 CA         -2.0140   -2.5000   21.6060 C.3       6 GLP5        0.0000 
     80 CA         -2.9105  -10.1898   19.5785 C.3       3 GLC5        0.0000 
     81 CA         -2.3280   -8.4270   20.0800 C.3       9 GLL5        0.0000 
     82 CA         -3.9760  -11.6640   19.4930 C.3       6 GLP5        0.0000 
     83 CA         -1.1382   -6.8579   19.6377 C.3       3 GLC5        0.0000 
@<TRIPOS>BOND
@<TRIPOS>SUBSTRUCTURE
     1 ALC1        1 GROUP        1 X    ALC  0     ROOT ALC X 1
     2 SEC2        9 GROUP        1 X    SEC  0     **** SEC X 2
     3 GLC5        6 GROUP        1 X    GLC  0     **** GLC X 6
     4 ALP1        3 GROUP        1 Y    ALP  0     ROOT ALP Y 8
     5 SEP2       11 GROUP        1 Y    SEP  0     **** SEP Y 9
     6 GLP5        8 GROUP        1 Y    GLP  0     **** GLP Y 13
     7 ALL1        2 GROUP        1 Z    ALL  0     ROOT ALL Z 15
     8 SEL2       10 GROUP        1 Z    SEL  0     **** SEL Z 16
     9 GLL5        7 GROUP        1 Z    GLL  0     **** GLL Z 20
@<TRIPOS>SET

