#    Name: 3pfg_SAM_1_ligand
#    Modification time : Tue Mar 25 06:29:44 2014

@<TRIPOS>MOLECULE
3pfg_SAM_1_ligand
   50    52     1     0     0
SMALL
NO_CHARGES


@<TRIPOS>ATOM
      1 N          -5.2490    0.7070   19.2290 N.4       1 SAM264      0.0000 
      2 CA         -6.7140    0.5430   19.5720 C.3       1 SAM264      0.0000 
      3 C          -7.2270    1.7970   20.2570 C.2       1 SAM264      0.0000 
      4 O          -6.4530    2.7460   20.4390 O.co2     1 SAM264      0.0000 
      5 OXT        -8.4270    1.8010   20.6160 O.co2     1 SAM264      0.0000 
      6 CB         -7.0100   -0.7390   20.3440 C.3       1 SAM264      0.0000 
      7 CG         -6.3950   -0.7250   21.7490 C.3       1 SAM264      0.0000 
      8 SD         -7.0240   -2.1270   22.7620 S.3       1 SAM264      0.0000 
      9 CE         -6.6690   -1.4710   24.4010 C.3       1 SAM264      0.0000 
     10 C5'        -5.7300   -3.3830   22.6220 C.3       1 SAM264      0.0000 
     11 C4'        -5.7680   -4.0620   21.2600 C.3       1 SAM264      0.0000 
     12 O4'        -4.6390   -4.9110   21.1340 O.3       1 SAM264      0.0000 
     13 C3'        -7.0310   -4.9190   21.0520 C.3       1 SAM264      0.0000 
     14 O3'        -7.6840   -4.5400   19.8390 O.3       1 SAM264      0.0000 
     15 C2'        -6.4170   -6.3200   20.9880 C.3       1 SAM264      0.0000 
     16 O2'        -7.0890   -7.3200   20.2160 O.3       1 SAM264      0.0000 
     17 C1'        -5.0990   -6.0030   20.3480 C.3       1 SAM264      0.0000 
     18 N9         -4.0570   -7.0140   20.4740 N.pl3     1 SAM264      0.0000 
     19 C8         -3.7080   -7.7110   21.6110 C.2       1 SAM264      0.0000 
     20 N7         -2.6680   -8.5370   21.4160 N.2       1 SAM264      0.0000 
     21 C5         -2.3280   -8.4270   20.0800 C.ar      1 SAM264      0.0000 
     22 C6         -1.3620   -9.0040   19.2480 C.ar      1 SAM264      0.0000 
     23 N6         -0.4720   -9.9260   19.6510 N.pl3     1 SAM264      0.0000 
     24 N1         -1.3280   -8.6020   17.9460 N.ar      1 SAM264      0.0000 
     25 C2         -2.2270   -7.6730   17.4780 C.ar      1 SAM264      0.0000 
     26 N3         -3.1850   -7.0360   18.2350 N.ar      1 SAM264      0.0000 
     27 C4         -3.1740   -7.4760   19.5270 C.ar      1 SAM264      0.0000 
     28 H          -7.2608    0.4711   18.5953 H         1 SAM264      0.0000 
     29 H          -6.6110   -1.5943   19.7902 H         1 SAM264      0.0000 
     30 H          -8.0934   -0.8657   20.4318 H         1 SAM264      0.0000 
     31 H          -6.6810    0.1143   22.3361 H         1 SAM264      0.0000 
     32 H          -5.3460   -0.8996   21.7618 H         1 SAM264      0.0000 
     33 H          -5.9564   -4.0376   23.4340 H         1 SAM264      0.0000 
     34 H          -4.8414   -2.8176   22.7947 H         1 SAM264      0.0000 
     35 H          -5.7569   -3.2984   20.4925 H         1 SAM264      0.0000 
     36 H          -7.6150   -4.8443   21.9190 H         1 SAM264      0.0000 
     37 H          -6.1984   -6.6263   21.9970 H         1 SAM264      0.0000 
     38 H          -5.2412   -5.6904   19.3509 H         1 SAM264      0.0000 
     39 H          -4.1858   -7.6005   22.4710 H         1 SAM264      0.0000 
     40 H           0.1420  -10.2823   18.9467 H         1 SAM264      0.0000 
     41 H          -0.5030  -10.1737   20.6193 H         1 SAM264      0.0000 
     42 H          -2.1790   -7.4230   16.4371 H         1 SAM264      0.0000 
     43 H          -4.8808   -0.1043   18.7748 H         1 SAM264      0.0000 
     44 H          -5.0957    1.4814   18.6153 H         1 SAM264      0.0000 
     45 H          -4.6920    0.8645   20.0444 H         1 SAM264      0.0000 
     46 H          -5.6872   -1.4560   24.5904 H         1 SAM264      0.0000 
     47 H          -7.0022   -0.5340   24.5062 H         1 SAM264      0.0000 
     48 H          -7.0980   -2.0171   25.1205 H         1 SAM264      0.0000 
     49 H          -7.0606   -4.8232   19.1102 H         1 SAM264      0.0000 
     50 H          -6.7124   -7.2313   19.2939 H         1 SAM264      0.0000 
@<TRIPOS>BOND
     1    2    1 1    
     2   43    1 1    
     3   44    1 1    
     4   45    1 1    
     5    3    2 1    
     6    6    2 1    
     7   28    2 1    
     8    4    3 ar   
     9    5    3 ar   
    10    7    6 1    
    11   29    6 1    
    12   30    6 1    
    13    8    7 1    
    14   31    7 1    
    15   32    7 1    
    16    9    8 1    
    17   10    8 1    
    18   46    9 1    
    19   47    9 1    
    20   48    9 1    
    21   11   10 1    
    22   33   10 1    
    23   34   10 1    
    24   12   11 1    
    25   13   11 1    
    26   35   11 1    
    27   17   12 1    
    28   14   13 1    
    29   15   13 1    
    30   36   13 1    
    31   49   14 1    
    32   16   15 1    
    33   17   15 1    
    34   37   15 1    
    35   50   16 1    
    36   18   17 1    
    37   38   17 1    
    38   19   18 1    
    39   27   18 1    
    40   20   19 2    
    41   39   19 1    
    42   21   20 1    
    43   22   21 ar   
    44   27   21 ar   
    45   23   22 1    
    46   24   22 ar   
    47   40   23 1    
    48   41   23 1    
    49   25   24 ar   
    50   26   25 ar   
    51   42   25 1    
    52   27   26 ar   
@<TRIPOS>SUBSTRUCTURE
     1 SAM264      1 GROUP   
@<TRIPOS>SET

