#    Name: 1sve_I01_1_INTS_M
#    Modification time : Tue Mar 25 02:48:37 2014

@<TRIPOS>MOLECULE
1sve_I01_1_INTS_M
   92     0    12     0     0
SMALL
NO_CHARGES


@<TRIPOS>ATOM
      1 CA         18.4545   12.6990   -2.5760 C.3       4 GLC5        0.0000 
      2 CA         16.9640   11.9350   -3.5410 C.3      12 GLL5        0.0000 
      3 CA         19.9450   13.4630   -1.6110 C.3       8 GLP5        0.0000 
      4 CA         17.1195   13.3340   -4.3205 C.3       4 GLC5        0.0000 
      5 CA         17.2750   14.7330   -5.1000 C.3       8 GLP5        0.0000 
      6 CA         18.1530   12.1440   -6.3335 C.3       4 GLC5        0.0000 
      7 CA         18.0870   10.2850   -6.9000 C.3      12 GLL5        0.0000 
      8 CA         18.2190   14.0030   -5.7670 C.3       8 GLP5        0.0000 
      9 CA         19.2545   11.3955   -7.8155 C.3       4 GLC5        0.0000 
     10 CA         20.4220   12.5060   -8.7310 C.3       8 GLP5        0.0000 
     11 CA         17.2025   10.0665   -8.9195 C.3       4 GLC5        0.0000 
     12 CA         16.3180    9.8480  -10.9390 C.3       8 GLP5        0.0000 
     13 CA         18.4230    8.5330   -6.4800 C.3       4 GLC5        0.0000 
     14 CA         18.7590    6.7810   -6.0600 C.3       8 GLP5        0.0000 
     15 O          11.6110   11.7565   -5.4130 O.2       1 ALC1        0.0000 
     16 O          12.4040   12.1290   -4.5410 O.2       9 ALL1        0.0000 
     17 O          10.8180   11.3840   -6.2850 O.2       5 ALP1        0.0000 
     18 N          16.3535   14.7660   -2.0830 N.am      2 SEC2        0.0000 
     19 N          15.2440   13.8380   -2.5450 N.am     10 SEL2        0.0000 
     20 N          17.4630   15.6940   -1.6210 N.am      6 SEP2        0.0000 
     21 CA         13.3400   13.3035    2.4360 C.3       4 GLC5        0.0000 
     22 CA         12.5900   13.0410    0.4190 C.3      12 GLL5        0.0000 
     23 CA         14.0900   13.5660    4.4530 C.3       8 GLP5        0.0000 
     24 CA         12.2025   14.7065    1.5845 C.3       4 GLC5        0.0000 
     25 CA         11.8150   16.3720    2.7500 C.3       8 GLP5        0.0000 
     26 CA          9.4980   11.2535    2.5755 C.3       4 GLC5        0.0000 
     27 CA         10.4780    9.6780    3.2170 C.3      12 GLL5        0.0000 
     28 CA          8.5180   12.8290    1.9340 C.3       8 GLP5        0.0000 
     29 CA         13.2270    5.0920    4.1975 C.3       4 GLC5        0.0000 
     30 CA         12.5100    7.0730    3.7520 C.3      12 GLL5        0.0000 
     31 CA         13.9440    3.1110    4.6430 C.3       8 GLP5        0.0000 
     32 OD1        11.3895    7.2190    1.2015 O.co2     3 ASC3        0.0000 
     33 OD1        11.4120    6.7720    2.8210 O.co2    11 ASL3        0.0000 
     34 OD1        11.3670    7.6660   -0.4180 O.co2     7 ASP3        0.0000 
     35 OD1        10.7425    6.4630    1.6160 O.co2     3 ASC3        0.0000 
     36 OD1        10.0730    6.1540    0.4110 O.co2     7 ASP3        0.0000 
     37 CA          8.4740    5.8315    4.0600 C.3       4 GLC5        0.0000 
     38 CA         10.0720    7.1110    3.3470 C.3      12 GLL5        0.0000 
     39 CA          6.8760    4.5520    4.7730 C.3       8 GLP5        0.0000 
     40 N           8.2725    8.9940    0.2825 N.am      2 SEC2        0.0000 
     41 N           7.2630    9.0250    1.3290 N.am     10 SEL2        0.0000 
     42 N           9.2820    8.9630   -0.7640 N.am      6 SEP2        0.0000 
     43 CA          6.0865   11.2150    3.1315 C.3       4 GLC5        0.0000 
     44 CA          5.7870    9.0600    3.1830 C.3      12 GLL5        0.0000 
     45 CA          6.3860   13.3700    3.0800 C.3       8 GLP5        0.0000 
     46 CA          4.5470    9.7175    0.3600 C.3       4 GLC5        0.0000 
     47 CA          4.6600    9.1210    2.3520 C.3      12 GLL5        0.0000 
     48 CA          4.4340   10.3140   -1.6320 C.3       8 GLP5        0.0000 
     49 CA          1.4305    9.8000    3.6150 C.3       4 GLC5        0.0000 
     50 CA          3.3970    9.2150    2.9090 C.3      12 GLL5        0.0000 
     51 CA         -0.5360   10.3850    4.3210 C.3       8 GLP5        0.0000 
     52 CA          2.1095    7.5835    3.0635 C.3       4 GLC5        0.0000 
     53 CA          0.8220    5.9520    3.2180 C.3       8 GLP5        0.0000 
     54 N           1.7440    8.7145    4.6560 N.am      2 SEC2        0.0000 
     55 N           3.2440    9.2480    4.2950 N.am     10 SEL2        0.0000 
     56 N           0.2440    8.1810    5.0170 N.am      6 SEP2        0.0000 
     57 CA          3.6210   10.8725    4.0930 C.3       4 GLC5        0.0000 
     58 CA          4.3410    9.1810    5.1320 C.3      12 GLL5        0.0000 
     59 CA          2.9010   12.5640    3.0540 C.3       8 GLP5        0.0000 
     60 CA         14.6913   12.4408   -7.5587 C.3       4 GLC5        0.0000 
     61 CA         13.9200   11.0270   -6.0500 C.3      12 GLL5        0.0000 
     62 CA         14.8110   14.0480   -8.9070 C.3       8 GLP5        0.0000 
     63 CA         13.3428   13.8685   -4.0152 C.3       4 GLC5        0.0000 
     64 CA         13.6150   11.7500   -4.8430 C.3      12 GLL5        0.0000 
     65 CA         12.5280   15.8380   -3.6230 C.3       8 GLP5        0.0000 
     66 CA         13.5811    9.6634   -6.2369 C.3       4 GLC5        0.0000 
     67 CA         13.0690    8.0350   -6.9470 C.3       8 GLP5        0.0000 
     68 CA         14.9195   12.2058   -0.0145 C.3       4 GLC5        0.0000 
     69 CA         13.4500   11.0130   -1.3260 C.3      12 GLL5        0.0000 
     70 CA         16.2360   12.7170    1.4240 C.3       8 GLP5        0.0000 
     71 CA         11.7105   11.7988   -1.7780 C.3       4 GLC5        0.0000 
     72 CA         13.7560   12.3760   -1.5800 C.3      12 GLL5        0.0000 
     73 CA          9.8180   11.9030   -2.1030 C.3       8 GLP5        0.0000 
     74 CA         13.0335   14.3552   -2.3798 C.3       4 GLC5        0.0000 
     75 CA         14.3633   11.9565    0.8352 C.3       4 GLC5        0.0000 
     76 CA         12.2760   11.7040    0.6920 C.3      12 GLL5        0.0000 
     77 CA         11.1543   11.5495   -0.9283 C.3       4 GLC5        0.0000 
     78 CA         14.5960   12.9610    0.6435 C.3       4 GLC5        0.0000 
     79 CA         11.3870   12.5540   -1.1200 C.3       4 GLC5        0.0000 
     80 CA         13.3220   13.3690   -0.6930 C.3      12 GLL5        0.0000 
     81 CA         10.4755   12.6008    1.2447 C.3       4 GLC5        0.0000 
     82 CA         11.1587   10.9095    5.2065 C.3       4 GLC5        0.0000 
     83 CA         11.2830   12.3010    6.6850 C.3       8 GLP5        0.0000 
     84 CA          5.3472    7.4493    1.7348 C.3       4 GLC5        0.0000 
     85 CA          5.4710    5.8080    0.7020 C.3       8 GLP5        0.0000 
     86 CA          3.4647   10.8660    2.8422 C.3       4 GLC5        0.0000 
     87 CA          4.6746    7.6484    3.8161 C.3       4 GLC5        0.0000 
     88 CA          5.0390    6.1440    4.7940 C.3       8 GLP5        0.0000 
     89 CA          4.6608   10.8682    5.8780 C.3       4 GLC5        0.0000 
     90 CA          5.6040    9.0860    4.5880 C.3      12 GLL5        0.0000 
     91 CA          4.3490   12.6030    6.8960 C.3       8 GLP5        0.0000 
     92 CA          5.0057    7.6387    4.8270 C.3       4 GLC5        0.0000 
@<TRIPOS>BOND
@<TRIPOS>SUBSTRUCTURE
     1 ALC1       15 GROUP        1 X    ALC  0     ROOT ALC X 1
     2 SEC2       18 GROUP        1 X    SEC  0     **** SEC X 2
     3 ASC3       32 GROUP        1 X    ASC  0     **** ASC X 3
     4 GLC5        1 GROUP        1 X    GLC  0     **** GLC X 6
     5 ALP1       17 GROUP        1 Y    ALP  0     ROOT ALP Y 8
     6 SEP2       20 GROUP        1 Y    SEP  0     **** SEP Y 9
     7 ASP3       34 GROUP        1 Y    ASP  0     **** ASP Y 10
     8 GLP5        3 GROUP        1 Y    GLP  0     **** GLP Y 13
     9 ALL1       16 GROUP        1 Z    ALL  0     ROOT ALL Z 15
    10 SEL2       19 GROUP        1 Z    SEL  0     **** SEL Z 16
    11 ASL3       33 GROUP        1 Z    ASL  0     **** ASL Z 17
    12 GLL5        2 GROUP        1 Z    GLL  0     **** GLL Z 20
@<TRIPOS>SET

