#    Name: 1sve_I01_1_ligand
#    Modification time : Tue Mar 25 02:48:37 2014

@<TRIPOS>MOLECULE
1sve_I01_1_ligand
   62    65     1     0     0
SMALL
NO_CHARGES


@<TRIPOS>ATOM
      1 F96        16.9640   11.9350   -3.5410 F         1 I01351      0.0000 
      2 C76        15.9570   11.6340   -4.3510 C.ar      1 I01351      0.0000 
      3 C75        16.2740   10.9660   -5.4930 C.ar      1 I01351      0.0000 
      4 O95        17.6140   10.6450   -5.6250 O.3       1 I01351      0.0000 
      5 C98        18.0870   10.2850   -6.9000 C.3       1 I01351      0.0000 
      6 C74        15.2230   10.6400   -6.3710 C.ar      1 I01351      0.0000 
      7 C73        13.9200   11.0270   -6.0500 C.ar      1 I01351      0.0000 
      8 C72        13.6150   11.7500   -4.8430 C.ar      1 I01351      0.0000 
      9 O92        12.4040   12.1290   -4.5410 O.3       1 I01351      0.0000 
     10 C71        14.7000   12.0480   -3.9720 C.ar      1 I01351      0.0000 
     11 C61        14.5740   12.7890   -2.7270 C.2       1 I01351      0.0000 
     12 O62        15.2440   13.8380   -2.5450 O.2       1 I01351      0.0000 
     13 C54        13.7560   12.3760   -1.5800 C.ar      1 I01351      0.0000 
     14 C55        13.4500   11.0130   -1.3260 C.ar      1 I01351      0.0000 
     15 C56        12.7050   10.6880   -0.1990 C.ar      1 I01351      0.0000 
     16 C53        13.3220   13.3690   -0.6930 C.ar      1 I01351      0.0000 
     17 C52        12.5900   13.0410    0.4190 C.ar      1 I01351      0.0000 
     18 C51        12.2760   11.7040    0.6920 C.ar      1 I01351      0.0000 
     19 C42        11.5170   11.4040    1.9110 C.2       1 I01351      0.0000 
     20 O43        11.3180   12.2070    2.8330 O.2       1 I01351      0.0000 
     21 O41        11.0480   10.1530    2.0210 O.3       1 I01351      0.0000 
     22 C37        10.4780    9.6780    3.2170 C.3       1 I01351      0.0000 
     23 C36        11.5910    9.3580    4.2390 C.3       1 I01351      0.0000 
     24 C35        12.7930    8.5620    3.7120 C.3       1 I01351      0.0000 
     25 C34        12.5100    7.0730    3.7520 C.3       1 I01351      0.0000 
     26 N33        11.4120    6.7720    2.8210 N.4       1 I01351      0.0000 
     27 C32        10.0720    7.1110    3.3470 C.3       1 I01351      0.0000 
     28 C31         9.5810    8.4880    2.8650 C.3       1 I01351      0.0000 
     29 N23         8.2330    8.7490    3.3760 N.am      1 I01351      0.0000 
     30 C21         7.1170    8.9480    2.5610 C.2       1 I01351      0.0000 
     31 O22         7.2630    9.0250    1.3290 O.2       1 I01351      0.0000 
     32 C14         5.7870    9.0600    3.1830 C.ar      1 I01351      0.0000 
     33 C13         4.6600    9.1210    2.3520 C.ar      1 I01351      0.0000 
     34 C12         3.3970    9.2150    2.9090 C.ar      1 I01351      0.0000 
     35 N11         3.2440    9.2480    4.2950 N.ar      1 I01351      0.0000 
     36 C16         4.3410    9.1810    5.1320 C.ar      1 I01351      0.0000 
     37 C15         5.6040    9.0860    4.5880 C.ar      1 I01351      0.0000 
     38 H          15.4160   10.1270   -7.2304 H         1 I01351      0.0000 
     39 H          13.1389   10.7961   -6.6860 H         1 I01351      0.0000 
     40 H          13.7775   10.2955   -1.9677 H         1 I01351      0.0000 
     41 H          12.4579    9.7123    0.0003 H         1 I01351      0.0000 
     42 H          13.5626   14.3555   -0.8900 H         1 I01351      0.0000 
     43 H          12.2622   13.7752    1.0673 H         1 I01351      0.0000 
     44 H           9.8377   10.4508    3.6580 H         1 I01351      0.0000 
     45 H          11.1380    8.8004    5.0862 H         1 I01351      0.0000 
     46 H          11.9575   10.3149    4.6679 H         1 I01351      0.0000 
     47 H          13.6624    8.7864    4.3280 H         1 I01351      0.0000 
     48 H          12.9976    8.8687    2.6874 H         1 I01351      0.0000 
     49 H          12.2386    6.7944    4.7686 H         1 I01351      0.0000 
     50 H          13.4130    6.5363    3.4670 H         1 I01351      0.0000 
     51 H          10.0822    7.1192    4.4472 H         1 I01351      0.0000 
     52 H           9.3343    6.3575    3.0329 H         1 I01351      0.0000 
     53 H           9.5157    8.4448    1.7581 H         1 I01351      0.0000 
     54 H           8.1297    8.7828    4.4138 H         1 I01351      0.0000 
     55 H           4.7799    9.0954    1.3325 H         1 I01351      0.0000 
     56 H           2.5655    9.2610    2.3037 H         1 I01351      0.0000 
     57 H           4.2150    9.2019    6.1521 H         1 I01351      0.0000 
     58 H           6.4354    9.0324    5.1956 H         1 I01351      0.0000 
     59 H          19.0634   10.0696   -6.8867 H         1 I01351      0.0000 
     60 H          17.6140    9.4799   -7.2579 H         1 I01351      0.0000 
     61 H          17.9582   11.0204   -7.5652 H         1 I01351      0.0000 
     62 H          11.8071   11.4404   -4.9527 H         1 I01351      0.0000 
@<TRIPOS>BOND
     1    2    1 1    
     2    3    2 ar   
     3   10    2 ar   
     4    4    3 1    
     5    6    3 ar   
     6    5    4 1    
     7   59    5 1    
     8   60    5 1    
     9   61    5 1    
    10    7    6 ar   
    11   38    6 1    
    12    8    7 ar   
    13   39    7 1    
    14    9    8 1    
    15   10    8 ar   
    16   62    9 1    
    17   11   10 1    
    18   12   11 2    
    19   13   11 1    
    20   14   13 ar   
    21   16   13 ar   
    22   15   14 ar   
    23   40   14 1    
    24   18   15 ar   
    25   41   15 1    
    26   17   16 ar   
    27   42   16 1    
    28   18   17 ar   
    29   43   17 1    
    30   19   18 1    
    31   20   19 2    
    32   21   19 1    
    33   22   21 1    
    34   23   22 1    
    35   28   22 1    
    36   44   22 1    
    37   24   23 1    
    38   45   23 1    
    39   46   23 1    
    40   25   24 1    
    41   47   24 1    
    42   48   24 1    
    43   26   25 1    
    44   49   25 1    
    45   50   25 1    
    46   27   26 1    
    47   28   27 1    
    48   51   27 1    
    49   52   27 1    
    50   29   28 1    
    51   53   28 1    
    52   30   29 am   
    53   54   29 1    
    54   31   30 2    
    55   32   30 1    
    56   33   32 ar   
    57   37   32 ar   
    58   34   33 ar   
    59   55   33 1    
    60   35   34 ar   
    61   56   34 1    
    62   36   35 ar   
    63   37   36 ar   
    64   57   36 1    
    65   58   37 1    
@<TRIPOS>SUBSTRUCTURE
     1 I01351      1 GROUP   
@<TRIPOS>SET

