#    Name: 4fv4_EK7_1_INTS_M
#    Modification time : Mon Mar 24 20:50:21 2014

@<TRIPOS>MOLECULE
4fv4_EK7_1_INTS_M
   71     0     9     0     0
SMALL
NO_CHARGES


@<TRIPOS>ATOM
      1 N          -9.3300    2.6470   13.1965 N.am      2 SEC2        0.0000 
      2 N         -10.3640    2.1630   14.4870 N.am      8 SEL2        0.0000 
      3 N          -8.2960    3.1310   11.9060 N.am      5 SEP2        0.0000 
      4 CA        -10.7735    3.6300   13.2820 C.3       3 GLC5        0.0000 
      5 CA        -11.4270    2.4610   14.7790 C.3       9 GLL5        0.0000 
      6 CA        -10.1200    4.7990   11.7850 C.3       6 GLP5        0.0000 
      7 CA         -9.7275    1.5605   15.7815 C.3       3 GLC5        0.0000 
      8 CA         -8.0280    0.6600   16.7840 C.3       6 GLP5        0.0000 
      9 CA        -15.0885    0.0625   10.9085 C.3       3 GLC5        0.0000 
     10 CA        -15.2540    1.0990   12.8360 C.3       9 GLL5        0.0000 
     11 CA        -14.9230   -0.9740    8.9810 C.3       6 GLP5        0.0000 
     12 CA        -16.0950    1.9150   17.9785 C.3       3 GLC5        0.0000 
     13 CA        -15.7950    4.0100   18.4310 C.3       9 GLL5        0.0000 
     14 CA        -16.3950   -0.1800   17.5260 C.3       6 GLP5        0.0000 
     15 CA        -18.0130    6.1850   16.5675 C.3       3 GLC5        0.0000 
     16 CA        -16.3260    5.6050   16.6060 C.3       9 GLL5        0.0000 
     17 CA        -19.7000    6.7650   16.5290 C.3       6 GLP5        0.0000 
     18 CA        -16.3640    7.8175   16.9330 C.3       3 GLC5        0.0000 
     19 CA        -16.4020   10.0300   17.2600 C.3       6 GLP5        0.0000 
     20 CA        -16.0525    5.8175   14.7350 C.3       3 GLC5        0.0000 
     21 CA        -15.7790    6.0300   12.8640 C.3       6 GLP5        0.0000 
     22 CA        -13.3170    5.4955   14.8145 C.3       3 GLC5        0.0000 
     23 CA        -13.1150    4.0040   16.3060 C.3       9 GLL5        0.0000 
     24 CA        -13.5190    6.9870   13.3230 C.3       6 GLP5        0.0000 
     25 CA        -19.4255    0.1225   12.3750 C.3       3 GLC5        0.0000 
     26 CA        -17.6700    0.7190   13.4880 C.3       9 GLL5        0.0000 
     27 CA        -21.1810   -0.4740   11.2620 C.3       6 GLP5        0.0000 
     28 CA        -18.9510   -0.6605   14.5750 C.3       3 GLC5        0.0000 
     29 CA        -20.2320   -2.0400   15.6620 C.3       6 GLP5        0.0000 
     30 N         -19.9430    0.0135   13.9150 N.am      2 SEC2        0.0000 
     31 N         -18.7820    0.9590   14.1930 N.am      8 SEL2        0.0000 
     32 N         -21.1040   -0.9320   13.6370 N.am      5 SEP2        0.0000 
     33 CA        -19.4450   -0.1055   15.4340 C.3       3 GLC5        0.0000 
     34 CA        -18.6580    1.8290   15.2060 C.3       9 GLL5        0.0000 
     35 CA        -17.5265    0.8245   16.3660 C.3       3 GLC5        0.0000 
     36 O         -21.0205    1.3810   15.6850 O.2       1 ALC1        0.0000 
     37 O         -19.8000    2.1260   15.8780 O.2       7 ALL1        0.0000 
     38 O         -22.2410    0.6360   15.4920 O.2       4 ALP1        0.0000 
     39 CA        -17.7860    1.4680   17.7820 C.3       3 GLC5        0.0000 
     40 CA        -19.1770    3.1160   18.0380 C.3       9 GLL5        0.0000 
     41 O         -23.3750    3.3060   18.3625 O.2       1 ALC1        0.0000 
     42 O         -22.9420    4.8420   18.1990 O.2       7 ALL1        0.0000 
     43 O         -23.8080    1.7700   18.5260 O.2       4 ALP1        0.0000 
     44 CA        -12.2207    0.9707   15.9343 C.3       3 GLC5        0.0000 
     45 CA        -12.7760    2.7900   15.1180 C.3       9 GLL5        0.0000 
     46 CA        -12.3400   -0.6840   16.9200 C.3       6 GLP5        0.0000 
     47 CA        -14.8543   -0.0165   14.8707 C.3       3 GLC5        0.0000 
     48 CA        -13.9020    2.2080   14.6370 C.3       9 GLL5        0.0000 
     49 CA        -15.7870   -1.6950   15.6230 C.3       6 GLP5        0.0000 
     50 CA        -13.1307    0.4890   15.5193 C.3       3 GLC5        0.0000 
     51 CA        -13.9410    1.1160   13.6000 C.3       9 GLL5        0.0000 
     52 CA        -15.5341    4.5550   14.2357 C.3       3 GLC5        0.0000 
     53 CA        -16.4030    2.1660   14.8330 C.3       9 GLL5        0.0000 
     54 CA        -15.8421    1.4500   16.5667 C.3       3 GLC5        0.0000 
     55 CA        -15.1100    2.7340   15.2450 C.3       9 GLL5        0.0000 
     56 CA        -17.4121    1.5789   11.9459 C.3       3 GLC5        0.0000 
     57 CA        -18.0630    2.1970   10.5060 C.3       6 GLP5        0.0000 
     58 CA        -16.2741   -0.3671   14.5044 C.3       3 GLC5        0.0000 
     59 CA        -19.6743    4.8693   17.0385 C.3       3 GLC5        0.0000 
     60 CA        -20.1200    2.8310   17.0580 C.3       9 GLL5        0.0000 
     61 CA        -20.6702    1.8638   18.8565 C.3       3 GLC5        0.0000 
     62 CA        -21.6920    0.7540   20.1650 C.3       6 GLP5        0.0000 
     63 CA        -19.9085    5.5260   17.8160 C.3       3 GLC5        0.0000 
     64 CA        -19.4910    3.9890   19.0690 C.3       9 GLL5        0.0000 
     65 CA        -20.9045    2.5205   19.6340 C.3       3 GLC5        0.0000 
     66 CA        -20.7430    4.5850   19.1370 C.3       9 GLL5        0.0000 
     67 CA        -19.9325    4.7205   20.8640 C.3       3 GLC5        0.0000 
     68 CA        -19.7480    5.1540   22.6250 C.3       6 GLP5        0.0000 
     69 CA        -20.6202    5.3027   17.0938 C.3       3 GLC5        0.0000 
     70 CA        -21.6930    4.2780   18.1730 C.3       9 GLL5        0.0000 
     71 CA        -21.6163    2.2973   18.9117 C.3       3 GLC5        0.0000 
@<TRIPOS>BOND
@<TRIPOS>SUBSTRUCTURE
     1 ALC1       36 GROUP        1 X    ALC  0     ROOT ALC X 1
     2 SEC2        1 GROUP        1 X    SEC  0     **** SEC X 2
     3 GLC5        4 GROUP        1 X    GLC  0     **** GLC X 6
     4 ALP1       38 GROUP        1 Y    ALP  0     ROOT ALP Y 8
     5 SEP2        3 GROUP        1 Y    SEP  0     **** SEP Y 9
     6 GLP5        6 GROUP        1 Y    GLP  0     **** GLP Y 13
     7 ALL1       37 GROUP        1 Z    ALL  0     ROOT ALL Z 15
     8 SEL2        2 GROUP        1 Z    SEL  0     **** SEL Z 16
     9 GLL5        5 GROUP        1 Z    GLL  0     **** GLL Z 20
@<TRIPOS>SET

