#    Name: 4fv4_EK7_1_ligand
#    Modification time : Mon Mar 24 20:50:21 2014

@<TRIPOS>MOLECULE
4fv4_EK7_1_ligand
   43    46     1     0     0
SMALL
NO_CHARGES


@<TRIPOS>ATOM
      1 N5        -10.3640    2.1630   14.4870 N.1       1 EK7401      0.0000 
      2 C19       -11.4270    2.4610   14.7790 C.1       1 EK7401      0.0000 
      3 C1        -12.7760    2.7900   15.1180 C.2       1 EK7401      0.0000 
      4 C2        -13.9020    2.2080   14.6370 C.2       1 EK7401      0.0000 
      5 C9        -13.9410    1.1160   13.6000 C.3       1 EK7401      0.0000 
      6 C8        -15.2540    1.0990   12.8360 C.3       1 EK7401      0.0000 
      7 C7        -16.4510    1.3060   13.7310 C.ar      1 EK7401      0.0000 
      8 C4        -16.4030    2.1660   14.8330 C.ar      1 EK7401      0.0000 
      9 C3        -15.1100    2.7340   15.2450 C.2       1 EK7401      0.0000 
     10 C16       -14.8220    3.7100   16.1760 C.2       1 EK7401      0.0000 
     11 N4        -15.6180    4.4060   17.0360 N.3       1 EK7401      0.0000 
     12 C18       -15.7950    4.0100   18.4310 C.3       1 EK7401      0.0000 
     13 C17       -16.3260    5.6050   16.6060 C.3       1 EK7401      0.0000 
     14 S         -13.1150    4.0040   16.3060 S.3       1 EK7401      0.0000 
     15 C6        -17.6700    0.7190   13.4880 C.ar      1 EK7401      0.0000 
     16 N2        -18.7820    0.9590   14.1930 N.ar      1 EK7401      0.0000 
     17 C5        -18.6580    1.8290   15.2060 C.ar      1 EK7401      0.0000 
     18 N1        -17.5050    2.4280   15.5600 N.ar      1 EK7401      0.0000 
     19 N3        -19.8000    2.1260   15.8780 N.pl3     1 EK7401      0.0000 
     20 C10       -20.1200    2.8310   17.0580 C.ar      1 EK7401      0.0000 
     21 C15       -19.1770    3.1160   18.0380 C.ar      1 EK7401      0.0000 
     22 C14       -19.4910    3.9890   19.0690 C.ar      1 EK7401      0.0000 
     23 C13       -20.7430    4.5850   19.1370 C.ar      1 EK7401      0.0000 
     24 C12       -21.6930    4.2780   18.1730 C.ar      1 EK7401      0.0000 
     25 O         -22.9420    4.8420   18.1990 O.3       1 EK7401      0.0000 
     26 C11       -21.3880    3.4030   17.1440 C.ar      1 EK7401      0.0000 
     27 H         -13.7988    0.1428   14.0873 H         1 EK7401      0.0000 
     28 H         -13.1162    1.2560   12.8894 H         1 EK7401      0.0000 
     29 H         -15.3512    0.1360   12.3138 H         1 EK7401      0.0000 
     30 H         -15.2314    1.8869   12.0690 H         1 EK7401      0.0000 
     31 H         -17.7181    0.0234   12.6748 H         1 EK7401      0.0000 
     32 H         -20.7403    1.7107   15.3788 H         1 EK7401      0.0000 
     33 H         -18.2464    2.6789   17.9978 H         1 EK7401      0.0000 
     34 H         -18.7852    4.1986   19.7953 H         1 EK7401      0.0000 
     35 H         -20.9627    5.2433   19.8896 H         1 EK7401      0.0000 
     36 H         -22.1004    3.1708   16.4353 H         1 EK7401      0.0000 
     37 H         -14.9273    4.0028   18.9280 H         1 EK7401      0.0000 
     38 H         -16.4071    4.6323   18.9189 H         1 EK7401      0.0000 
     39 H         -16.1856    3.0928   18.5100 H         1 EK7401      0.0000 
     40 H         -15.6963    6.3159   16.2927 H         1 EK7401      0.0000 
     41 H         -16.9531    5.4152   15.8505 H         1 EK7401      0.0000 
     42 H         -16.8699    6.0006   17.3460 H         1 EK7401      0.0000 
     43 H         -23.5686    4.0763   18.3441 H         1 EK7401      0.0000 
@<TRIPOS>BOND
     1    2    1 3    
     2    3    2 1    
     3    4    3 2    
     4   14    3 1    
     5    5    4 1    
     6    9    4 1    
     7    6    5 1    
     8   27    5 1    
     9   28    5 1    
    10    7    6 1    
    11   29    6 1    
    12   30    6 1    
    13    8    7 ar   
    14   15    7 ar   
    15    9    8 1    
    16   18    8 ar   
    17   10    9 2    
    18   11   10 1    
    19   14   10 1    
    20   12   11 1    
    21   13   11 1    
    22   37   12 1    
    23   38   12 1    
    24   39   12 1    
    25   40   13 1    
    26   41   13 1    
    27   42   13 1    
    28   16   15 ar   
    29   31   15 1    
    30   17   16 ar   
    31   18   17 ar   
    32   19   17 1    
    33   20   19 1    
    34   32   19 1    
    35   21   20 ar   
    36   26   20 ar   
    37   22   21 ar   
    38   33   21 1    
    39   23   22 ar   
    40   34   22 1    
    41   24   23 ar   
    42   35   23 1    
    43   25   24 1    
    44   26   24 ar   
    45   43   25 1    
    46   36   26 1    
@<TRIPOS>SUBSTRUCTURE
     1 EK7401      1 GROUP   
@<TRIPOS>SET

