#    Name: 1e8x_ATP_1_INTS_M
#    Modification time : Mon Mar 24 23:16:09 2014

@<TRIPOS>MOLECULE
1e8x_ATP_1_INTS_M
   56     0    12     0     0
SMALL
NO_CHARGES


@<TRIPOS>ATOM
      1 N          28.7070   68.2125   22.3500 N.am      2 SEC2        0.0000 
      2 N          28.3670   68.5560   20.9260 N.am     10 SEL2        0.0000 
      3 N          29.0470   67.8690   23.7740 N.am      6 SEP2        0.0000 
      4 NZ         27.6455   63.0960   17.7850 N.4       3 LYC4        0.0000 
      5 NZ         27.8410   64.9100   17.2780 N.4      11 LYL4        0.0000 
      6 NZ         27.4500   61.2820   18.2920 N.4       7 LYP4        0.0000 
      7 NZ         26.2610   62.3460   17.8175 N.4       3 LYC4        0.0000 
      8 NZ         25.0720   63.4100   17.3430 N.4      11 LYL4        0.0000 
      9 N          26.2610   62.3460   17.8175 N.am      2 SEC2        0.0000 
     10 N          25.0720   63.4100   17.3430 N.am     10 SEL2        0.0000 
     11 N          27.4500   61.2820   18.2920 N.am      6 SEP2        0.0000 
     12 NZ         26.4685   62.4860   19.0605 N.4       3 LYC4        0.0000 
     13 NZ         25.4870   63.6900   19.8290 N.4      11 LYL4        0.0000 
     14 N          26.4685   62.4860   19.0605 N.am      2 SEC2        0.0000 
     15 N          25.4870   63.6900   19.8290 N.am     10 SEL2        0.0000 
     16 N          25.2785   66.2660   16.8325 N.am      2 SEC2        0.0000 
     17 N          25.7000   65.6460   18.1250 N.am     10 SEL2        0.0000 
     18 N          24.8570   66.8860   15.5400 N.am      6 SEP2        0.0000 
     19 CA         23.3315   64.9780   21.8285 C.3       4 GLC5        0.0000 
     20 CA         23.0840   65.4600   19.7960 C.3      12 GLL5        0.0000 
     21 CA         23.5790   64.4960   23.8610 C.3       8 GLP5        0.0000 
     22 CA         20.3400   64.7615   18.0830 C.3       4 GLC5        0.0000 
     23 CA         21.6360   65.6730   19.5980 C.3      12 GLL5        0.0000 
     24 CA         19.0440   63.8500   16.5680 C.3       8 GLP5        0.0000 
     25 CA         19.2235   65.3070   23.1935 C.3       4 GLC5        0.0000 
     26 CA         20.2100   65.4620   21.4890 C.3      12 GLL5        0.0000 
     27 CA         18.2370   65.1520   24.8980 C.3       8 GLP5        0.0000 
     28 CA         21.8945   64.9790   22.6750 C.3       4 GLC5        0.0000 
     29 CA         19.5820   63.9945   18.6120 C.3       4 GLC5        0.0000 
     30 CA         20.1200   64.1390   20.6560 C.3      12 GLL5        0.0000 
     31 CA         19.9555   62.4940   19.5980 C.3       4 GLC5        0.0000 
     32 CA         19.7910   60.8490   18.5400 C.3       8 GLP5        0.0000 
     33 CA         22.1580   62.8450   23.3100 C.3       4 GLC5        0.0000 
     34 CA         20.7370   61.1940   22.7590 C.3      12 GLL5        0.0000 
     35 CA         18.6270   58.9300   22.9305 C.3       4 GLC5        0.0000 
     36 CA         20.1940   60.2650   23.6670 C.3      12 GLL5        0.0000 
     37 CA         17.0600   57.5950   22.1940 C.3       8 GLP5        0.0000 
     38 CA         19.2215   59.3115   25.4270 C.3       4 GLC5        0.0000 
     39 CA         18.2490   58.3580   27.1870 C.3       8 GLP5        0.0000 
     40 O          20.2875   58.0750   23.5590 O.2       1 ALC1        0.0000 
     41 O          20.9530   59.3090   24.1760 O.2       9 ALL1        0.0000 
     42 O          19.6220   56.8410   22.9420 O.2       5 ALP1        0.0000 
     43 N          17.8555   59.3475   24.2795 N.am      2 SEC2        0.0000 
     44 N          18.8800   60.3790   24.0160 N.am     10 SEL2        0.0000 
     45 N          16.8310   58.3160   24.5430 N.am      6 SEP2        0.0000 
     46 CA         17.6030   59.4760   22.8385 C.3       4 GLC5        0.0000 
     47 CA         18.1460   61.3570   23.4830 C.3      12 GLL5        0.0000 
     48 CA         17.5880   60.2780   25.1630 C.3       4 GLC5        0.0000 
     49 CA         17.0300   59.1990   26.8430 C.3       8 GLP5        0.0000 
     50 CA         18.9180   62.7825   24.4285 C.3       4 GLC5        0.0000 
     51 CA         19.6900   64.2080   25.3740 C.3       8 GLP5        0.0000 
     52 CA         20.0465   61.2627   20.5303 C.3       4 GLC5        0.0000 
     53 CA         19.8670   62.1590   22.2820 C.3      12 GLL5        0.0000 
     54 CA         21.5187   59.0968   22.2340 C.3       4 GLC5        0.0000 
     55 CA         22.5720   57.4640   21.2550 C.3       8 GLP5        0.0000 
     56 CA         19.9281   62.8261   24.0607 C.3       4 GLC5        0.0000 
@<TRIPOS>BOND
@<TRIPOS>SUBSTRUCTURE
     1 ALC1       40 GROUP        1 X    ALC  0     ROOT ALC X 1
     2 SEC2        1 GROUP        1 X    SEC  0     **** SEC X 2
     3 LYC4        4 GROUP        1 X    LYC  0     **** LYC X 4
     4 GLC5       19 GROUP        1 X    GLC  0     **** GLC X 6
     5 ALP1       42 GROUP        1 Y    ALP  0     ROOT ALP Y 8
     6 SEP2        3 GROUP        1 Y    SEP  0     **** SEP Y 9
     7 LYP4        6 GROUP        1 Y    LYP  0     **** LYP Y 11
     8 GLP5       21 GROUP        1 Y    GLP  0     **** GLP Y 13
     9 ALL1       41 GROUP        1 Z    ALL  0     ROOT ALL Z 15
    10 SEL2        2 GROUP        1 Z    SEL  0     **** SEL Z 16
    11 LYL4        5 GROUP        1 Z    LYL  0     **** LYL Z 18
    12 GLL5       20 GROUP        1 Z    GLL  0     **** GLL Z 20
@<TRIPOS>SET

