#    Name: 1e8x_ATP_1_ligand
#    Modification time : Mon Mar 24 23:16:09 2014

@<TRIPOS>MOLECULE
1e8x_ATP_1_ligand
   43    45     1     0     0
SMALL
NO_CHARGES


@<TRIPOS>ATOM
      1 PG         28.8760   68.0060   19.6240 P.3       1 ATP3000     0.0000 
      2 O1G        28.8270   69.0270   18.5660 O.co2     1 ATP3000     0.0000 
      3 O2G        30.1800   67.3480   19.7720 O.co2     1 ATP3000     0.0000 
      4 O3G        28.3670   68.5560   20.9260 O.co2     1 ATP3000     0.0000 
      5 PB         27.1360   66.1470   17.7080 P.3       1 ATP3000     0.0000 
      6 O1B        27.8410   64.9100   17.2780 O.co2     1 ATP3000     0.0000 
      7 O2B        27.0630   67.2380   16.6990 O.co2     1 ATP3000     0.0000 
      8 O3B        27.8390   66.7170   19.1580 O.3       1 ATP3000     0.0000 
      9 PA         24.9990   64.2380   18.5580 P.3       1 ATP3000     0.0000 
     10 O1A        25.0720   63.4100   17.3430 O.co2     1 ATP3000     0.0000 
     11 O2A        25.4870   63.6900   19.8290 O.co2     1 ATP3000     0.0000 
     12 O3A        25.7000   65.6460   18.1250 O.3       1 ATP3000     0.0000 
     13 O5'        23.5270   64.6650   18.7130 O.3       1 ATP3000     0.0000 
     14 C5'        23.0840   65.4600   19.7960 C.3       1 ATP3000     0.0000 
     15 C4'        21.6360   65.6730   19.5980 C.3       1 ATP3000     0.0000 
     16 O4'        21.0080   64.3710   19.5460 O.3       1 ATP3000     0.0000 
     17 C3'        20.9990   66.4810   20.6920 C.3       1 ATP3000     0.0000 
     18 O3'        20.1740   67.4840   20.0240 O.3       1 ATP3000     0.0000 
     19 C2'        20.2100   65.4620   21.4890 C.3       1 ATP3000     0.0000 
     20 O2'        18.8930   65.9180   21.7630 O.3       1 ATP3000     0.0000 
     21 C1'        20.1200   64.1390   20.6560 C.3       1 ATP3000     0.0000 
     22 N9         20.6050   62.9310   21.4260 N.pl3     1 ATP3000     0.0000 
     23 C8         21.8720   62.3620   21.4560 C.2       1 ATP3000     0.0000 
     24 N7         22.0100   61.3210   22.2300 N.2       1 ATP3000     0.0000 
     25 C5         20.7370   61.1940   22.7590 C.ar      1 ATP3000     0.0000 
     26 C6         20.1940   60.2650   23.6670 C.ar      1 ATP3000     0.0000 
     27 N6         20.9530   59.3090   24.1760 N.pl3     1 ATP3000     0.0000 
     28 N1         18.8800   60.3790   24.0160 N.ar      1 ATP3000     0.0000 
     29 C2         18.1460   61.3570   23.4830 C.ar      1 ATP3000     0.0000 
     30 N3         18.5390   62.3050   22.5990 N.ar      1 ATP3000     0.0000 
     31 C4         19.8670   62.1590   22.2820 C.ar      1 ATP3000     0.0000 
     32 H          23.5871   66.4270   19.8172 H         1 ATP3000     0.0000 
     33 H          23.2436   64.9616   20.7525 H         1 ATP3000     0.0000 
     34 H          21.4765   66.1803   18.6502 H         1 ATP3000     0.0000 
     35 H          21.7571   66.9020   21.2840 H         1 ATP3000     0.0000 
     36 H          20.7524   65.2245   22.3871 H         1 ATP3000     0.0000 
     37 H          19.1257   64.0182   20.3329 H         1 ATP3000     0.0000 
     38 H          22.6173   62.7632   20.8943 H         1 ATP3000     0.0000 
     39 H          20.6558   58.3706   24.0000 H         1 ATP3000     0.0000 
     40 H          21.7553   59.6112   24.6908 H         1 ATP3000     0.0000 
     41 H          17.0938   61.4060   23.7940 H         1 ATP3000     0.0000 
     42 H          20.2411   67.2672   19.0501 H         1 ATP3000     0.0000 
     43 H          18.7460   66.6790   21.1311 H         1 ATP3000     0.0000 
@<TRIPOS>BOND
     1    2    1 ar   
     2    3    1 ar   
     3    4    1 ar   
     4    8    1 1    
     5    6    5 ar   
     6    7    5 ar   
     7    8    5 1    
     8   12    5 1    
     9   10    9 ar   
    10   11    9 ar   
    11   12    9 1    
    12   13    9 1    
    13   14   13 1    
    14   15   14 1    
    15   32   14 1    
    16   33   14 1    
    17   16   15 1    
    18   17   15 1    
    19   34   15 1    
    20   21   16 1    
    21   18   17 1    
    22   19   17 1    
    23   35   17 1    
    24   42   18 1    
    25   20   19 1    
    26   21   19 1    
    27   36   19 1    
    28   43   20 1    
    29   22   21 1    
    30   37   21 1    
    31   23   22 1    
    32   31   22 1    
    33   24   23 2    
    34   38   23 1    
    35   25   24 1    
    36   26   25 ar   
    37   31   25 ar   
    38   27   26 1    
    39   28   26 ar   
    40   39   27 1    
    41   40   27 1    
    42   29   28 ar   
    43   30   29 ar   
    44   41   29 1    
    45   31   30 ar   
@<TRIPOS>SUBSTRUCTURE
     1 ATP3000     1 GROUP   
@<TRIPOS>SET

