#    Name: 1o6k_ANP_1_INTS_M
#    Modification time : Mon Mar 24 19:39:51 2014

@<TRIPOS>MOLECULE
1o6k_ANP_1_INTS_M
   87     0    18     0     0
SMALL
NO_CHARGES


@<TRIPOS>ATOM
      1 Zn         37.4910   27.0400  173.4985 Zn        5 ZIC7        0.0000 
      2 Zn         37.9690   26.0730  173.4740 Zn       17 ZIL7        0.0000 
      3 Zn         37.0130   28.0070  173.5230 Zn       11 ZIP7        0.0000 
      4 N          37.1270   25.1075  173.6925 N.am      2 SEC2        0.0000 
      5 N          37.9690   26.0730  173.4740 N.am     14 SEL2        0.0000 
      6 N          36.2850   24.1420  173.9110 N.am      8 SEP2        0.0000 
      7 NZ         39.8685   25.3525  176.3620 N.4       4 LYC4        0.0000 
      8 NZ         39.7440   26.2450  175.2740 N.4      16 LYL4        0.0000 
      9 NZ         39.9930   24.4600  177.4500 N.4      10 LYP4        0.0000 
     10 Zn         40.1085   27.2415  175.3730 Zn        5 ZIC7        0.0000 
     11 Zn         39.7440   26.2450  175.2740 Zn       17 ZIL7        0.0000 
     12 Zn         40.4730   28.2380  175.4720 Zn       11 ZIP7        0.0000 
     13 N          39.8685   25.3525  176.3620 N.am      2 SEC2        0.0000 
     14 N          39.7440   26.2450  175.2740 N.am     14 SEL2        0.0000 
     15 N          39.9930   24.4600  177.4500 N.am      8 SEP2        0.0000 
     16 NZ         39.9215   24.4745  175.5295 N.4       4 LYC4        0.0000 
     17 NZ         39.8500   24.4890  173.6090 N.4      16 LYL4        0.0000 
     18 N          39.1360   23.3745  174.3690 N.am      2 SEC2        0.0000 
     19 N          39.8500   24.4890  173.6090 N.am     14 SEL2        0.0000 
     20 N          38.4220   22.2600  175.1290 N.am      8 SEP2        0.0000 
     21 NZ         38.3540   29.7865  171.4035 N.4       4 LYC4        0.0000 
     22 NZ         38.5410   28.4770  172.0620 N.4      16 LYL4        0.0000 
     23 NZ         38.1670   31.0960  170.7450 N.4      10 LYP4        0.0000 
     24 Zn         37.7770   28.2420  172.7925 Zn        5 ZIC7        0.0000 
     25 Zn         38.5410   28.4770  172.0620 Zn       17 ZIL7        0.0000 
     26 N          38.3540   29.7865  171.4035 N.am      2 SEC2        0.0000 
     27 N          38.5410   28.4770  172.0620 N.am     14 SEL2        0.0000 
     28 N          38.1670   31.0960  170.7450 N.am      8 SEP2        0.0000 
     29 OD1        39.3525   27.9505  174.0950 O.co2     3 ASC3        0.0000 
     30 OD1        40.3440   26.9130  173.0190 O.co2    15 ASL3        0.0000 
     31 OD1        38.3610   28.9880  175.1710 O.co2     9 ASP3        0.0000 
     32 NZ         39.3230   31.2675  171.6245 N.4       4 LYC4        0.0000 
     33 NZ         40.4790   31.4390  172.5040 N.4      16 LYL4        0.0000 
     34 N          39.3230   31.2675  171.6245 N.am      2 SEC2        0.0000 
     35 N          40.4790   31.4390  172.5040 N.am     14 SEL2        0.0000 
     36 Zn         40.8235   28.9265  174.8040 Zn        5 ZIC7        0.0000 
     37 Zn         41.1740   29.6150  174.1360 Zn       17 ZIL7        0.0000 
     38 CA         46.5170   29.6845  172.1210 C.3       6 GLC5        0.0000 
     39 CA         44.9800   30.0300  173.2940 C.3      18 GLL5        0.0000 
     40 CA         48.0540   29.3390  170.9480 C.3      12 GLP5        0.0000 
     41 O          45.9760   29.0385  176.2670 O.2       1 ALC1        0.0000 
     42 O          44.7080   29.2850  175.6360 O.2      13 ALL1        0.0000 
     43 O          47.2440   28.7920  176.8980 O.2       7 ALP1        0.0000 
     44 CA         46.7460   30.9440  176.7670 C.3       6 GLC5        0.0000 
     45 CA         45.7590   31.4450  174.9940 C.3      18 GLL5        0.0000 
     46 CA         47.7330   30.4430  178.5400 C.3      12 GLP5        0.0000 
     47 CA         45.7040   32.5140  176.5700 C.3       6 GLC5        0.0000 
     48 CA         45.6490   33.5830  178.1460 C.3      12 GLP5        0.0000 
     49 O          47.1255   29.8045  176.1200 O.2       1 ALC1        0.0000 
     50 O          47.0070   30.8170  175.3420 O.2      13 ALL1        0.0000 
     51 CA         46.9795   30.7550  172.3055 C.3       6 GLC5        0.0000 
     52 CA         45.9050   32.1710  173.6630 C.3      18 GLL5        0.0000 
     53 CA         45.6200   32.4920  171.5705 C.3       6 GLC5        0.0000 
     54 CA         45.3350   32.8130  169.4780 C.3      12 GLP5        0.0000 
     55 CA         46.4765   33.2045  175.4650 C.3       6 GLC5        0.0000 
     56 CA         47.0480   34.2380  177.2670 C.3      12 GLP5        0.0000 
     57 N          42.1970   35.1300  174.2940 N.am      2 SEC2        0.0000 
     58 N          43.3570   34.8110  173.5400 N.am     14 SEL2        0.0000 
     59 N          41.0370   35.4490  175.0480 N.am      8 SEP2        0.0000 
     60 CA         42.8515   35.3660  175.1150 C.3       6 GLC5        0.0000 
     61 CA         44.5240   35.5230  173.7780 C.3      18 GLL5        0.0000 
     62 CA         41.1790   35.2090  176.4520 C.3      12 GLP5        0.0000 
     63 CA         45.8105   37.7290  175.7670 C.3       6 GLC5        0.0000 
     64 CA         44.7770   36.9020  173.9520 C.3      18 GLL5        0.0000 
     65 CA         46.8440   38.5560  177.5820 C.3      12 GLP5        0.0000 
     66 O          44.0810   39.3145  173.8970 O.2       1 ALC1        0.0000 
     67 O          43.8020   37.8130  173.9030 O.2      13 ALL1        0.0000 
     68 O          44.3600   40.8160  173.8910 O.2       7 ALP1        0.0000 
     69 N          46.7585   38.5630  174.8850 N.am      2 SEC2        0.0000 
     70 N          46.0840   37.2970  174.1780 N.am     14 SEL2        0.0000 
     71 N          47.4330   39.8290  175.5920 N.am      8 SEP2        0.0000 
     72 CA         48.1035   36.1335  172.5915 C.3       6 GLC5        0.0000 
     73 CA         47.0590   36.3700  174.2240 C.3      18 GLL5        0.0000 
     74 CA         49.1480   35.8970  170.9590 C.3      12 GLP5        0.0000 
     75 CA         46.4895   37.2970  172.4970 C.3       6 GLC5        0.0000 
     76 CA         45.9200   38.2240  170.7700 C.3      12 GLP5        0.0000 
     77 CA         46.9515   37.4630  175.9030 C.3       6 GLC5        0.0000 
     78 CA         47.0535   35.3040  175.7455 C.3       6 GLC5        0.0000 
     79 CA         44.1578   31.0240  171.3800 C.3       6 GLC5        0.0000 
     80 CA         43.9450   32.2890  169.8230 C.3      12 GLP5        0.0000 
     81 CA         45.2555   34.6935  171.8642 C.3       6 GLC5        0.0000 
     82 CA         45.6100   34.6830  173.8510 C.3      18 GLL5        0.0000 
     83 CA         45.4440   34.2840  169.9140 C.3      12 GLP5        0.0000 
     84 CA         45.2853   37.2182  172.3175 C.3       6 GLC5        0.0000 
     85 CA         43.2943   36.4308  172.4085 C.3       6 GLC5        0.0000 
     86 CA         41.9380   36.6490  170.9520 C.3      12 GLP5        0.0000 
     87 CA         46.0575   34.6705  175.5408 C.3       6 GLC5        0.0000 
@<TRIPOS>BOND
@<TRIPOS>SUBSTRUCTURE
     1 ALC1       41 GROUP        1 X    ALC  0     ROOT ALC X 1
     2 SEC2        4 GROUP        1 X    SEC  0     **** SEC X 2
     3 ASC3       29 GROUP        1 X    ASC  0     **** ASC X 3
     4 LYC4        7 GROUP        1 X    LYC  0     **** LYC X 4
     5 ZIC7        1 GROUP        1 X    ZIC  0     **** ZIC X 5
     6 GLC5       38 GROUP        1 X    GLC  0     **** GLC X 6
     7 ALP1       43 GROUP        1 Y    ALP  0     ROOT ALP Y 8
     8 SEP2        6 GROUP        1 Y    SEP  0     **** SEP Y 9
     9 ASP3       31 GROUP        1 Y    ASP  0     **** ASP Y 10
    10 LYP4        9 GROUP        1 Y    LYP  0     **** LYP Y 11
    11 ZIP7        3 GROUP        1 Y    ZIP  0     **** ZIP Y 12
    12 GLP5       40 GROUP        1 Y    GLP  0     **** GLP Y 13
    13 ALL1       42 GROUP        1 Z    ALL  0     ROOT ALL Z 15
    14 SEL2        5 GROUP        1 Z    SEL  0     **** SEL Z 16
    15 ASL3       30 GROUP        1 Z    ASL  0     **** ASL Z 17
    16 LYL4        8 GROUP        1 Z    LYL  0     **** LYL Z 18
    17 ZIL7        2 GROUP        1 Z    ZIL  0     **** ZIL Z 19
    18 GLL5       39 GROUP        1 Z    GLL  0     **** GLL Z 20
@<TRIPOS>SET

