#    Name: 1o6k_ANP_1_ligand
#    Modification time : Mon Mar 24 19:39:52 2014

@<TRIPOS>MOLECULE
1o6k_ANP_1_ligand
   43    45     1     0     0
SMALL
NO_CHARGES


@<TRIPOS>ATOM
      1 PG         39.4170   25.8470  173.8960 P.3       1 ANP1480     0.0000 
      2 O1G        37.9690   26.0730  173.4740 O.co2     1 ANP1480     0.0000 
      3 O2G        39.7440   26.2450  175.2740 O.co2     1 ANP1480     0.0000 
      4 O3G        39.8500   24.4890  173.6090 O.co2     1 ANP1480     0.0000 
      5 PB         39.8610   27.8910  171.7460 P.3       1 ANP1480     0.0000 
      6 O1B        39.9520   27.1250  170.5250 O.co2     1 ANP1480     0.0000 
      7 O2B        38.5410   28.4770  172.0620 O.co2     1 ANP1480     0.0000 
      8 N3B        40.3440   26.9130  173.0190 N.4       1 ANP1480     0.0000 
      9 PA         41.2390   30.2190  172.7760 P.3       1 ANP1480     0.0000 
     10 O1A        40.4790   31.4390  172.5040 O.co2     1 ANP1480     0.0000 
     11 O2A        41.1740   29.6150  174.1360 O.co2     1 ANP1480     0.0000 
     12 O3A        40.9380   29.0830  171.6600 O.3       1 ANP1480     0.0000 
     13 O5'        42.7740   30.5270  172.4250 O.3       1 ANP1480     0.0000 
     14 C5'        43.7610   29.4880  172.5800 C.3       1 ANP1480     0.0000 
     15 C4'        44.9800   30.0300  173.2940 C.3       1 ANP1480     0.0000 
     16 O4'        45.4240   31.2540  172.6620 O.3       1 ANP1480     0.0000 
     17 C3'        44.7010   30.4000  174.7430 C.3       1 ANP1480     0.0000 
     18 O3'        44.7080   29.2850  175.6360 O.3       1 ANP1480     0.0000 
     19 C2'        45.7590   31.4450  174.9940 C.3       1 ANP1480     0.0000 
     20 O2'        47.0070   30.8170  175.3420 O.3       1 ANP1480     0.0000 
     21 C1'        45.9050   32.1710  173.6630 C.3       1 ANP1480     0.0000 
     22 N9         45.1150   33.4140  173.6600 N.pl3     1 ANP1480     0.0000 
     23 C8         43.7520   33.5840  173.4780 C.2       1 ANP1480     0.0000 
     24 N7         43.3570   34.8110  173.5400 N.2       1 ANP1480     0.0000 
     25 C5         44.5240   35.5230  173.7780 C.ar      1 ANP1480     0.0000 
     26 C6         44.7770   36.9020  173.9520 C.ar      1 ANP1480     0.0000 
     27 N6         43.8020   37.8130  173.9030 N.pl3     1 ANP1480     0.0000 
     28 N1         46.0840   37.2970  174.1780 N.ar      1 ANP1480     0.0000 
     29 C2         47.0590   36.3700  174.2240 C.ar      1 ANP1480     0.0000 
     30 N3         46.9290   35.0380  174.0750 N.ar      1 ANP1480     0.0000 
     31 C4         45.6100   34.6830  173.8510 C.ar      1 ANP1480     0.0000 
     32 H          44.0789   29.0947  171.6060 H         1 ANP1480     0.0000 
     33 H          43.3643   28.6483  173.1649 H         1 ANP1480     0.0000 
     34 H          45.7684   29.3012  173.2764 H         1 ANP1480     0.0000 
     35 H          43.7398   30.9263  174.7346 H         1 ANP1480     0.0000 
     36 H          45.4166   32.1264  175.7186 H         1 ANP1480     0.0000 
     37 H          46.9451   32.3791  173.5145 H         1 ANP1480     0.0000 
     38 H          43.1594   32.7842  173.3137 H         1 ANP1480     0.0000 
     39 H          42.8809   37.4630  173.7323 H         1 ANP1480     0.0000 
     40 H          44.0805   38.7634  174.0414 H         1 ANP1480     0.0000 
     41 H          48.0727   36.7409  174.4028 H         1 ANP1480     0.0000 
     42 H          45.6431   29.2410  175.9876 H         1 ANP1480     0.0000 
     43 H          46.7604   30.0870  175.9793 H         1 ANP1480     0.0000 
@<TRIPOS>BOND
     1    2    1 ar   
     2    3    1 ar   
     3    4    1 ar   
     4    8    1 1    
     5    6    5 ar   
     6    7    5 ar   
     7    8    5 1    
     8   12    5 1    
     9   10    9 ar   
    10   11    9 ar   
    11   12    9 1    
    12   13    9 1    
    13   14   13 1    
    14   15   14 1    
    15   32   14 1    
    16   33   14 1    
    17   16   15 1    
    18   17   15 1    
    19   34   15 1    
    20   21   16 1    
    21   18   17 1    
    22   19   17 1    
    23   35   17 1    
    24   42   18 1    
    25   20   19 1    
    26   21   19 1    
    27   36   19 1    
    28   43   20 1    
    29   22   21 1    
    30   37   21 1    
    31   23   22 1    
    32   31   22 1    
    33   24   23 2    
    34   38   23 1    
    35   25   24 1    
    36   26   25 ar   
    37   31   25 ar   
    38   27   26 1    
    39   28   26 ar   
    40   39   27 1    
    41   40   27 1    
    42   29   28 ar   
    43   30   29 ar   
    44   41   29 1    
    45   31   30 ar   
@<TRIPOS>SUBSTRUCTURE
     1 ANP1480     1 GROUP   
@<TRIPOS>SET

