#    Name: 1bgq_RDC_1_INTS_M
#    Modification time : Mon Mar 24 19:32:22 2014

@<TRIPOS>MOLECULE
1bgq_RDC_1_INTS_M
   57     0     9     0     0
SMALL
NO_CHARGES


@<TRIPOS>ATOM
      1 CA         21.3900   -3.4425   -4.3705 C.3       3 GLC5        0.0000 
      2 CA         19.4790   -4.3160   -4.5800 C.3       9 GLL5        0.0000 
      3 CA         23.3010   -2.5690   -4.1610 C.3       6 GLP5        0.0000 
      4 CA         19.6925   -6.9705   -4.7645 C.3       3 GLC5        0.0000 
      5 CA         19.6000   -5.1560   -3.4760 C.3       9 GLL5        0.0000 
      6 CA         19.7850   -8.7850   -6.0530 C.3       6 GLP5        0.0000 
      7 CA         18.0845   -0.8545   -3.4620 C.3       3 GLC5        0.0000 
      8 CA         16.5890   -1.8830   -3.4010 C.3       9 GLL5        0.0000 
      9 CA         19.5800    0.1740   -3.5230 C.3       6 GLP5        0.0000 
     10 CA         16.4245   -0.7550   -1.5120 C.3       3 GLC5        0.0000 
     11 CA         16.2600    0.3730    0.3770 C.3       6 GLP5        0.0000 
     12 CA         15.5220   -5.3910   -3.7855 C.3       3 GLC5        0.0000 
     13 CA         14.5570   -3.4150   -4.0690 C.3       9 GLL5        0.0000 
     14 CA         16.4870   -7.3670   -3.5020 C.3       6 GLP5        0.0000 
     15 CA         15.1945   -6.5065   -5.4135 C.3       3 GLC5        0.0000 
     16 CA         14.1340   -4.7860   -6.0820 C.3       9 GLL5        0.0000 
     17 CA         16.2550   -8.2270   -4.7450 C.3       6 GLP5        0.0000 
     18 CA         14.7235   -6.0370   -8.7880 C.3       3 GLC5        0.0000 
     19 CA         14.7920   -4.2240   -8.5820 C.3       9 GLL5        0.0000 
     20 CA         14.6550   -7.8500   -8.9940 C.3       6 GLP5        0.0000 
     21 CA         16.5945   -4.9070   -9.1715 C.3       3 GLC5        0.0000 
     22 CA         18.3970   -5.5900   -9.7610 C.3       6 GLP5        0.0000 
     23 CA         14.6535   -4.2810  -10.7375 C.3       3 GLC5        0.0000 
     24 CA         14.5150   -4.3380  -12.8930 C.3       6 GLP5        0.0000 
     25 CA         17.4350   -3.9585   -9.2305 C.3       3 GLC5        0.0000 
     26 CA         16.4730   -2.3270   -8.7000 C.3       9 GLL5        0.0000 
     27 CA         18.1195   -3.3340   -8.0800 C.3       3 GLC5        0.0000 
     28 CA         17.0310   -1.4340   -7.6190 C.3       9 GLL5        0.0000 
     29 CA         19.2080   -5.2340   -8.5410 C.3       6 GLP5        0.0000 
     30 O          21.3410   -5.3670   -5.6405 O.2       1 ALC1        0.0000 
     31 O          20.3200   -4.5840   -5.6190 O.2       7 ALL1        0.0000 
     32 O          22.3620   -6.1500   -5.6620 O.2       4 ALP1        0.0000 
     33 CA         16.6760   -5.5605   -2.2170 C.3       3 GLC5        0.0000 
     34 CA         16.8650   -3.7540   -0.9320 C.3       9 GLL5        0.0000 
     35 CA         16.5625   -1.6905   -0.2775 C.3       3 GLC5        0.0000 
     36 CA         16.8780   -3.7360    0.5505 C.3       3 GLC5        0.0000 
     37 CA         16.8910   -3.7180    2.0330 C.3       6 GLP5        0.0000 
     38 N          13.3115   -4.0545  -10.5485 N.am      2 SEC2        0.0000 
     39 N          14.2030   -3.4490   -9.5650 N.am      8 SEL2        0.0000 
     40 N          12.4200   -4.6600  -11.5320 N.am      5 SEP2        0.0000 
     41 CA         19.1013   -4.5038   -6.5715 C.3       3 GLC5        0.0000 
     42 CA         18.5100   -3.2310   -4.6240 C.3       9 GLL5        0.0000 
     43 CA         18.8313   -1.4770   -3.7815 C.3       3 GLC5        0.0000 
     44 CA         18.0132   -6.0515   -3.7650 C.3       3 GLC5        0.0000 
     45 CA         20.0469   -4.3675   -1.3177 C.3       3 GLC5        0.0000 
     46 CA         17.8120   -3.9000   -2.3540 C.3       9 GLL5        0.0000 
     47 CA         21.5920   -4.2560    0.0030 C.3       6 GLP5        0.0000 
     48 CA         17.2316   -5.5473   -3.2055 C.3       3 GLC5        0.0000 
     49 CA         18.7830   -4.9600   -2.3700 C.3       9 GLL5        0.0000 
     50 CA         14.4140   -6.3725   -7.8665 C.3       3 GLC5        0.0000 
     51 CA         15.6310   -2.8803  -10.7420 C.3       3 GLC5        0.0000 
     52 CA         15.0290   -2.8100   -8.6020 C.3       9 GLL5        0.0000 
     53 CA         15.5110   -3.1920  -12.8330 C.3       6 GLP5        0.0000 
     54 CA         17.9310   -1.6767   -9.5508 C.3       3 GLC5        0.0000 
     55 CA         19.1100   -1.4730  -10.9420 C.3       6 GLP5        0.0000 
     56 CA         17.8310    0.4540   -6.5808 C.3       3 GLC5        0.0000 
     57 CA         19.0450    1.7400   -5.7480 C.3       6 GLP5        0.0000 
@<TRIPOS>BOND
@<TRIPOS>SUBSTRUCTURE
     1 ALC1       30 GROUP        1 X    ALC  0     ROOT ALC X 1
     2 SEC2       38 GROUP        1 X    SEC  0     **** SEC X 2
     3 GLC5        1 GROUP        1 X    GLC  0     **** GLC X 6
     4 ALP1       32 GROUP        1 Y    ALP  0     ROOT ALP Y 8
     5 SEP2       40 GROUP        1 Y    SEP  0     **** SEP Y 9
     6 GLP5        3 GROUP        1 Y    GLP  0     **** GLP Y 13
     7 ALL1       31 GROUP        1 Z    ALL  0     ROOT ALL Z 15
     8 SEL2       39 GROUP        1 Z    SEL  0     **** SEL Z 16
     9 GLL5        2 GROUP        1 Z    GLL  0     **** GLL Z 20
@<TRIPOS>SET

