#    Name: 1bgq_RDC_1_ligand
#    Modification time : Mon Mar 24 19:32:22 2014

@<TRIPOS>MOLECULE
1bgq_RDC_1_ligand
   42    44     1     0     0
SMALL
NO_CHARGES


@<TRIPOS>ATOM
      1 C1         18.4690   -2.4070   -5.8760 C.2       1 RDC300      0.0000 
      2 C2         18.5100   -3.2310   -4.6240 C.ar      1 RDC300      0.0000 
      3 C3         19.4790   -4.3160   -4.5800 C.ar      1 RDC300      0.0000 
      4 C4         19.6000   -5.1560   -3.4760 C.ar      1 RDC300      0.0000 
      5 C5         18.7830   -4.9600   -2.3700 C.ar      1 RDC300      0.0000 
      6 C6         17.8120   -3.9000   -2.3540 C.ar      1 RDC300      0.0000 
      7 C7         17.6550   -3.0250   -3.4560 C.ar      1 RDC300      0.0000 
      8 C8         16.5890   -1.8830   -3.4010 C.3       1 RDC300      0.0000 
      9 C9         15.0750   -2.2340   -3.3570 C.2       1 RDC300      0.0000 
     10 C10        14.5570   -3.4150   -4.0690 C.2       1 RDC300      0.0000 
     11 C11        14.6440   -3.6110   -5.3810 C.2       1 RDC300      0.0000 
     12 C12        14.1340   -4.7860   -6.0820 C.2       1 RDC300      0.0000 
     13 C13        14.2120   -5.0040   -7.3960 C.2       1 RDC300      0.0000 
     14 C14        14.7920   -4.2240   -8.5820 C.3       1 RDC300      0.0000 
     15 C15        15.0290   -2.8100   -8.6020 C.3       1 RDC300      0.0000 
     16 C16        16.4730   -2.3270   -8.7000 C.3       1 RDC300      0.0000 
     17 C17        17.0310   -1.4340   -7.6190 C.3       1 RDC300      0.0000 
     18 C18        16.2030   -0.2300   -7.2080 C.3       1 RDC300      0.0000 
     19 O1         17.2500   -2.2200   -6.3820 O.3       1 RDC300      0.0000 
     20 O2         19.4910   -1.9350   -6.4090 O.2       1 RDC300      0.0000 
     21 O3         20.3200   -4.5840   -5.6190 O.3       1 RDC300      0.0000 
     22 O4         18.8700   -5.7710   -1.2580 O.3       1 RDC300      0.0000 
     23 CL1        16.8650   -3.7540   -0.9320 Cl        1 RDC300      0.0000 
     24 O5         14.3110   -1.5570   -2.7190 O.2       1 RDC300      0.0000 
     25 O6         14.2030   -3.4490   -9.5650 O.3       1 RDC300      0.0000 
     26 H          20.2897   -5.9155   -3.4811 H         1 RDC300      0.0000 
     27 H          16.7648   -1.2075   -4.2817 H         1 RDC300      0.0000 
     28 H          16.8233   -1.2381   -2.5110 H         1 RDC300      0.0000 
     29 H          14.0898   -4.1295   -3.4380 H         1 RDC300      0.0000 
     30 H          15.1084   -2.8920   -6.0096 H         1 RDC300      0.0000 
     31 H          13.6665   -5.5049   -5.4449 H         1 RDC300      0.0000 
     32 H          13.7680   -5.9629   -7.7817 H         1 RDC300      0.0000 
     33 H          15.6913   -4.6160   -9.0422 H         1 RDC300      0.0000 
     34 H          14.3988   -2.4404   -7.8698 H         1 RDC300      0.0000 
     35 H          16.5990   -1.8081   -9.6954 H         1 RDC300      0.0000 
     36 H          17.1376   -3.2355   -8.7942 H         1 RDC300      0.0000 
     37 H          18.0206   -1.0642   -7.9373 H         1 RDC300      0.0000 
     38 H          16.6510    0.3007   -6.4885 H         1 RDC300      0.0000 
     39 H          16.0449    0.3914   -7.9753 H         1 RDC300      0.0000 
     40 H          15.3054   -0.4984   -6.8585 H         1 RDC300      0.0000 
     41 H          20.9931   -5.2240   -5.2485 H         1 RDC300      0.0000 
     42 H          19.4307   -6.5470   -1.5470 H         1 RDC300      0.0000 
@<TRIPOS>BOND
     1    2    1 1    
     2   19    1 1    
     3   20    1 2    
     4    3    2 ar   
     5    7    2 ar   
     6    4    3 ar   
     7   21    3 1    
     8    5    4 ar   
     9   26    4 1    
    10    6    5 ar   
    11   22    5 1    
    12    7    6 ar   
    13   23    6 1    
    14    8    7 1    
    15    9    8 1    
    16   27    8 1    
    17   28    8 1    
    18   10    9 1    
    19   24    9 2    
    20   11   10 2    
    21   29   10 1    
    22   12   11 1    
    23   30   11 1    
    24   13   12 2    
    25   31   12 1    
    26   14   13 1    
    27   32   13 1    
    28   15   14 1    
    29   25   14 1    
    30   33   14 1    
    31   16   15 1    
    32   25   15 1    
    33   34   15 1    
    34   17   16 1    
    35   35   16 1    
    36   36   16 1    
    37   18   17 1    
    38   19   17 1    
    39   37   17 1    
    40   38   18 1    
    41   39   18 1    
    42   40   18 1    
    43   41   21 1    
    44   42   22 1    
@<TRIPOS>SUBSTRUCTURE
     1 RDC300      1 GROUP   
@<TRIPOS>SET

