#    Name: 4kf1_HT5_2_INTS_M
#    Modification time : Tue Mar 25 07:47:19 2014

@<TRIPOS>MOLECULE
4kf1_HT5_2_INTS_M
   55     0     3     0     0
SMALL
NO_CHARGES


@<TRIPOS>ATOM
      1 CA         18.8940  -38.0700  -54.5625 C.3       1 GLC5        0.0000 
      2 CA         18.5170  -36.6530  -52.9220 C.3       3 GLL5        0.0000 
      3 CA         19.2710  -39.4870  -56.2030 C.3       2 GLP5        0.0000 
      4 CA         19.4970  -32.9730  -54.9760 C.3       1 GLC5        0.0000 
      5 CA         18.1170  -34.2900  -53.9960 C.3       3 GLL5        0.0000 
      6 CA         20.8770  -31.6560  -55.9560 C.3       2 GLP5        0.0000 
      7 CA         17.1825  -32.6090  -55.0070 C.3       1 GLC5        0.0000 
      8 CA         16.2480  -30.9280  -56.0180 C.3       2 GLP5        0.0000 
      9 CA         14.3160  -33.5030  -50.2040 C.3       1 GLC5        0.0000 
     10 CA         14.2980  -33.5850  -52.2760 C.3       3 GLL5        0.0000 
     11 CA         14.3340  -33.4210  -48.1320 C.3       2 GLP5        0.0000 
     12 CA         12.9460  -34.7710  -51.2110 C.3       1 GLC5        0.0000 
     13 CA         11.5940  -35.9570  -50.1460 C.3       2 GLP5        0.0000 
     14 CA         14.8895  -31.6585  -51.4055 C.3       1 GLC5        0.0000 
     15 CA         15.4810  -29.7320  -50.5350 C.3       2 GLP5        0.0000 
     16 CA         14.8465  -31.9135  -54.6770 C.3       1 GLC5        0.0000 
     17 CA         13.4450  -32.8990  -53.3360 C.3       3 GLL5        0.0000 
     18 CA         11.8465  -34.2130  -51.4545 C.3       1 GLC5        0.0000 
     19 CA         12.0990  -32.4690  -52.7630 C.3       3 GLL5        0.0000 
     20 CA         13.2975  -29.8100  -51.5365 C.3       1 GLC5        0.0000 
     21 CA         12.0140  -30.9520  -52.6740 C.3       3 GLL5        0.0000 
     22 CA         14.5810  -28.6680  -50.3990 C.3       2 GLP5        0.0000 
     23 CA         11.0955  -26.3105  -53.2225 C.3       1 GLC5        0.0000 
     24 CA         11.2670  -25.9090  -51.1900 C.3       3 GLL5        0.0000 
     25 CA         10.9240  -26.7120  -55.2550 C.3       2 GLP5        0.0000 
     26 CA          9.0415  -31.9480  -51.8545 C.3       1 GLC5        0.0000 
     27 CA         10.5670  -30.4810  -52.5920 C.3       3 GLL5        0.0000 
     28 CA          7.5160  -33.4150  -51.1170 C.3       2 GLP5        0.0000 
     29 CA          9.2110  -30.7050  -53.9315 C.3       1 GLC5        0.0000 
     30 CA          7.8550  -30.9290  -55.2710 C.3       2 GLP5        0.0000 
     31 CA          9.6845  -31.3780  -50.2430 C.3       1 GLC5        0.0000 
     32 CA         10.3550  -29.6060  -51.3630 C.3       3 GLL5        0.0000 
     33 CA          9.0140  -33.1500  -49.1230 C.3       2 GLP5        0.0000 
     34 CA         12.4680  -29.1370  -50.8810 C.3       1 GLC5        0.0000 
     35 CA         10.5890  -27.4235  -53.4995 C.3       1 GLC5        0.0000 
     36 CA         10.2540  -28.1350  -51.7440 C.3       3 GLL5        0.0000 
     37 CA         19.9155  -34.2270  -52.7266 C.3       1 GLC5        0.0000 
     38 CA         19.1210  -35.0390  -53.0150 C.3       3 GLL5        0.0000 
     39 CA         21.3630  -33.3860  -51.9710 C.3       2 GLP5        0.0000 
     40 CA         18.6670  -32.7257  -53.1723 C.3       1 GLC5        0.0000 
     41 CA         18.7150  -30.7870  -52.8390 C.3       2 GLP5        0.0000 
     42 CA         12.2977  -31.7643  -50.7677 C.3       1 GLC5        0.0000 
     43 CA         12.5390  -31.8180  -48.8170 C.3       2 GLP5        0.0000 
     44 CA         12.4085  -31.6715  -54.9129 C.3       1 GLC5        0.0000 
     45 CA         12.4240  -31.5250  -56.9640 C.3       2 GLP5        0.0000 
     46 CA         10.6010  -25.2163  -49.8045 C.3       1 GLC5        0.0000 
     47 CA         10.8110  -27.2440  -50.6400 C.3       3 GLL5        0.0000 
     48 CA         10.1630  -23.8560  -48.6940 C.3       2 GLP5        0.0000 
     49 CA         12.6050  -27.3997  -50.0300 C.3       1 GLC5        0.0000 
     50 CA         14.1710  -28.2230  -49.1450 C.3       2 GLP5        0.0000 
     51 CA         11.5000  -30.9308  -50.3972 C.3       1 GLC5        0.0000 
     52 CA          8.4627  -29.0373  -50.6987 C.3       1 GLC5        0.0000 
     53 CA          6.6210  -29.2040  -49.8440 C.3       2 GLP5        0.0000 
     54 CA         10.4109  -28.5514  -49.3307 C.3       1 GLC5        0.0000 
     55 CA         10.3780  -28.4550  -47.3840 C.3       2 GLP5        0.0000 
@<TRIPOS>BOND
@<TRIPOS>SUBSTRUCTURE
     1 GLC5        1 GROUP        1 X    GLC  0     ROOT GLC X 6
     2 GLP5        3 GROUP        1 Y    GLP  0     ROOT GLP Y 13
     3 GLL5        2 GROUP        1 Z    GLL  0     ROOT GLL Z 20
@<TRIPOS>SET

