#    Name: 4kf1_HT5_2_ligand
#    Modification time : Tue Mar 25 07:47:19 2014

@<TRIPOS>MOLECULE
4kf1_HT5_2_ligand
   43    43     1     0     0
SMALL
NO_CHARGES


@<TRIPOS>ATOM
      1 O1         16.6580  -33.3810  -52.3540 O.2       1 HT5403      0.0000 
      2 C10        15.6650  -33.8940  -52.8410 C.2       1 HT5403      0.0000 
      3 N2         15.7170  -34.7390  -53.8690 N.am      1 HT5403      0.0000 
      4 SD         18.5170  -36.6530  -52.9220 S.2       1 HT5403      0.0000 
      5 C11        16.9760  -35.2140  -54.4170 C.3       1 HT5403      0.0000 
      6 C12        17.3240  -36.5850  -53.9300 C.2       1 HT5403      0.0000 
      7 O2         16.6680  -37.6750  -54.3340 O.2       1 HT5403      0.0000 
      8 C13        18.1170  -34.2900  -53.9960 C.3       1 HT5403      0.0000 
      9 C14        19.1210  -35.0390  -53.0150 C.3       1 HT5403      0.0000 
     10 C9         14.2980  -33.5850  -52.2760 C.3       1 HT5403      0.0000 
     11 C2         13.4450  -32.8990  -53.3360 C.3       1 HT5403      0.0000 
     12 C1         12.0990  -32.4690  -52.7630 C.3       1 HT5403      0.0000 
     13 C50        12.0140  -30.9520  -52.6740 C.3       1 HT5403      0.0000 
     14 C8         11.2670  -25.9090  -51.1900 C.3       1 HT5403      0.0000 
     15 C6         10.8110  -27.2440  -50.6400 C.3       1 HT5403      0.0000 
     16 C3         10.5670  -30.4810  -52.5920 C.3       1 HT5403      0.0000 
     17 C4         10.3550  -29.6060  -51.3630 C.3       1 HT5403      0.0000 
     18 C5         10.2540  -28.1350  -51.7440 C.3       1 HT5403      0.0000 
     19 H          14.8539  -35.1017  -54.3318 H         1 HT5403      0.0000 
     20 H          16.9521  -35.2238  -55.4970 H         1 HT5403      0.0000 
     21 H          17.7268  -33.4268  -53.4723 H         1 HT5403      0.0000 
     22 H          18.6803  -33.9705  -54.8634 H         1 HT5403      0.0000 
     23 H          20.0654  -35.1167  -53.4352 H         1 HT5403      0.0000 
     24 H          19.0558  -34.6592  -52.0527 H         1 HT5403      0.0000 
     25 H          14.3969  -32.9275  -51.4165 H         1 HT5403      0.0000 
     26 H          13.8120  -34.5067  -51.9679 H         1 HT5403      0.0000 
     27 H          13.2791  -33.5871  -54.1657 H         1 HT5403      0.0000 
     28 H          13.9730  -32.0214  -53.7108 H         1 HT5403      0.0000 
     29 H          11.9788  -32.8964  -51.7688 H         1 HT5403      0.0000 
     30 H          11.3008  -32.8384  -53.4049 H         1 HT5403      0.0000 
     31 H          12.4856  -30.5120  -53.5552 H         1 HT5403      0.0000 
     32 H          12.5533  -30.6119  -51.7874 H         1 HT5403      0.0000 
     33 H          10.0367  -27.0824  -49.8865 H         1 HT5403      0.0000 
     34 H          11.6546  -27.7496  -50.1644 H         1 HT5403      0.0000 
     35 H           9.9092  -31.3470  -52.5355 H         1 HT5403      0.0000 
     36 H          10.3229  -29.9105  -53.4869 H         1 HT5403      0.0000 
     37 H          11.1912  -29.7433  -50.6750 H         1 HT5403      0.0000 
     38 H           9.4367  -29.9112  -50.8581 H         1 HT5403      0.0000 
     39 H          10.8146  -27.9615  -52.6633 H         1 HT5403      0.0000 
     40 H           9.2084  -27.8791  -51.9194 H         1 HT5403      0.0000 
     41 H          11.6320  -25.3166  -50.4718 H         1 HT5403      0.0000 
     42 H          11.9870  -26.0162  -51.8756 H         1 HT5403      0.0000 
     43 H          10.5175  -25.4119  -51.6272 H         1 HT5403      0.0000 
@<TRIPOS>BOND
     1    2    1 2    
     2    3    2 am   
     3   10    2 1    
     4    5    3 1    
     5   19    3 1    
     6    6    4 1    
     7    9    4 1    
     8    6    5 1    
     9    8    5 1    
    10   20    5 1    
    11    7    6 2    
    12    9    8 1    
    13   21    8 1    
    14   22    8 1    
    15   23    9 1    
    16   24    9 1    
    17   11   10 1    
    18   25   10 1    
    19   26   10 1    
    20   12   11 1    
    21   27   11 1    
    22   28   11 1    
    23   13   12 1    
    24   29   12 1    
    25   30   12 1    
    26   16   13 1    
    27   31   13 1    
    28   32   13 1    
    29   15   14 1    
    30   41   14 1    
    31   42   14 1    
    32   43   14 1    
    33   18   15 1    
    34   33   15 1    
    35   34   15 1    
    36   17   16 1    
    37   35   16 1    
    38   36   16 1    
    39   18   17 1    
    40   37   17 1    
    41   38   17 1    
    42   39   18 1    
    43   40   18 1    
@<TRIPOS>SUBSTRUCTURE
     1 HT5403      1 GROUP   
@<TRIPOS>SET

