#    Name: 3tub_FPU_1_INTS_M
#    Modification time : Mon Mar 24 20:57:01 2014

@<TRIPOS>MOLECULE
3tub_FPU_1_INTS_M
  104     0     9     0     0
SMALL
NO_CHARGES


@<TRIPOS>ATOM
      1 CA         18.5450  -10.3085   -4.6420 C.3       3 GLC5        0.0000 
      2 CA         18.1390   -9.8670   -6.5410 C.3       9 GLL5        0.0000 
      3 CA         18.9510  -10.7500   -2.7430 C.3       6 GLP5        0.0000 
      4 CA         18.8970  -11.7110   -6.2865 C.3       3 GLC5        0.0000 
      5 CA         19.6550  -13.5550   -6.0320 C.3       6 GLP5        0.0000 
      6 N          19.2445   -2.7765   -4.1570 N.am      2 SEC2        0.0000 
      7 N          19.8660   -3.8780   -4.9630 N.am      8 SEL2        0.0000 
      8 N          18.6230   -1.6750   -3.3510 N.am      5 SEP2        0.0000 
      9 CA         18.6120   -9.2245   -4.1775 C.3       3 GLC5        0.0000 
     10 CA         18.2730   -7.6990   -5.6120 C.3       9 GLL5        0.0000 
     11 O          26.7410   -5.5325  -11.6090 O.2       1 ALC1        0.0000 
     12 O          25.3890   -5.0780  -11.3500 O.2       7 ALL1        0.0000 
     13 O          28.0930   -5.9870  -11.8680 O.2       4 ALP1        0.0000 
     14 O          27.2385   -4.8815  -12.4555 O.2       1 ALC1        0.0000 
     15 O          26.3840   -3.7760  -13.0430 O.2       7 ALL1        0.0000 
     16 N          23.2595   -3.3860  -13.4535 N.am      2 SEC2        0.0000 
     17 N          24.1770   -3.4060  -12.4590 N.am      8 SEL2        0.0000 
     18 N          22.3420   -3.3660  -14.4480 N.am      5 SEP2        0.0000 
     19 CA         20.7640   -2.5510   -3.7185 C.3       3 GLC5        0.0000 
     20 CA         20.9760   -3.5340   -5.5960 C.3       9 GLL5        0.0000 
     21 CA         20.5520   -1.5680   -1.8410 C.3       6 GLP5        0.0000 
     22 CA         19.1795   -2.4720   -5.5175 C.3       3 GLC5        0.0000 
     23 CA         17.3830   -1.4100   -5.4390 C.3       6 GLP5        0.0000 
     24 CA         15.6530   -5.9355   -5.2960 C.3       3 GLC5        0.0000 
     25 CA         17.6180   -6.7420   -4.7780 C.3       9 GLL5        0.0000 
     26 CA         13.6880   -5.1290   -5.8140 C.3       6 GLP5        0.0000 
     27 CA         17.0860   -8.8925   -1.9025 C.3       3 GLC5        0.0000 
     28 CA         16.3540   -7.7850   -3.1380 C.3       9 GLL5        0.0000 
     29 CA         17.8180  -10.0000   -0.6670 C.3       6 GLP5        0.0000 
     30 CA         23.6450   -8.5845   -7.5940 C.3       3 GLC5        0.0000 
     31 CA         23.8220   -6.9300   -8.5980 C.3       9 GLL5        0.0000 
     32 CA         23.4680  -10.2390   -6.5900 C.3       6 GLP5        0.0000 
     33 CA         20.5565   -4.4710   -9.1050 C.3       3 GLC5        0.0000 
     34 CA         22.4760   -5.0190   -9.2320 C.3       9 GLL5        0.0000 
     35 CA         18.6370   -3.9230   -8.9780 C.3       6 GLP5        0.0000 
     36 CA         21.4610   -3.9500  -10.6335 C.3       3 GLC5        0.0000 
     37 CA         20.4460   -2.8810  -12.0350 C.3       6 GLP5        0.0000 
     38 CA         26.7355   -4.1795  -15.8080 C.3       3 GLC5        0.0000 
     39 CA         26.2840   -2.9380  -14.2050 C.3       9 GLL5        0.0000 
     40 CA         27.1870   -5.4210  -17.4110 C.3       6 GLP5        0.0000 
     41 CA         28.6745   -0.8520  -15.6665 C.3       3 GLC5        0.0000 
     42 CA         27.4930   -2.1360  -14.6490 C.3       9 GLL5        0.0000 
     43 CA         29.8560    0.4320  -16.6840 C.3       6 GLP5        0.0000 
     44 CA         28.4300   -3.1490  -15.9790 C.3       3 GLC5        0.0000 
     45 CA         29.3670   -4.1620  -17.3090 C.3       6 GLP5        0.0000 
     46 CA         24.2095    1.9090  -13.2585 C.3       3 GLC5        0.0000 
     47 CA         24.2590   -0.0560  -14.2560 C.3       9 GLL5        0.0000 
     48 CA         24.1600    3.8740  -12.2610 C.3       6 GLP5        0.0000 
     49 CA         21.6236   -7.5220   -5.5083 C.3       3 GLC5        0.0000 
     50 CA         21.2140   -5.6560   -6.6720 C.3       9 GLL5        0.0000 
     51 CA         22.7700   -8.8440   -4.6180 C.3       6 GLP5        0.0000 
     52 CA         22.0697   -4.4697   -4.5168 C.3       3 GLC5        0.0000 
     53 CA         21.7150   -4.3990   -6.4490 C.3       9 GLL5        0.0000 
     54 CA         22.7940   -4.9730   -3.0110 C.3       6 GLP5        0.0000 
     55 CA         22.2488   -2.3373   -7.0032 C.3       3 GLC5        0.0000 
     56 CA         23.1520   -0.7080   -7.9840 C.3       6 GLP5        0.0000 
     57 CA         23.2557   -3.5197   -5.7553 C.3       3 GLC5        0.0000 
     58 CA         25.1660   -3.0730   -5.4880 C.3       6 GLP5        0.0000 
     59 CA         19.9913   -3.9447   -7.5002 C.3       3 GLC5        0.0000 
     60 CA         21.3993   -5.2479   -4.3874 C.3       3 GLC5        0.0000 
     61 CA         20.0200   -6.0990   -6.0270 C.3       9 GLL5        0.0000 
     62 CA         18.8595   -4.7672   -2.9668 C.3       3 GLC5        0.0000 
     63 CA         19.3920   -5.1680   -5.1780 C.3       9 GLL5        0.0000 
     64 CA         18.9370   -4.1920   -1.0770 C.3       6 GLP5        0.0000 
     65 CA         18.0825   -3.3763   -5.1478 C.3       3 GLC5        0.0000 
     66 CA         18.1720   -5.5170   -4.5350 C.3       9 GLL5        0.0000 
     67 CA         19.3207   -4.7229   -7.3709 C.3       3 GLC5        0.0000 
     68 CA         18.7435   -7.3493   -3.1517 C.3       3 GLC5        0.0000 
     69 CA         19.5920   -8.5690   -1.6470 C.3       6 GLP5        0.0000 
     70 CA         26.0940   -7.6898   -9.1687 C.3       3 GLC5        0.0000 
     71 CA         27.9200   -8.6240   -9.2410 C.3       6 GLP5        0.0000 
     72 CA         25.1692   -5.0378   -8.4378 C.3       3 GLC5        0.0000 
     73 CA         24.7140   -6.5810   -9.5950 C.3       9 GLL5        0.0000 
     74 CA         25.7580   -4.0690   -6.8910 C.3       6 GLP5        0.0000 
     75 CA         24.3124   -4.9221   -7.8795 C.3       3 GLC5        0.0000 
     76 CA         22.6930   -6.1330   -8.4100 C.3       9 GLL5        0.0000 
     77 CA         28.4258   -3.7370  -13.6595 C.3       3 GLC5        0.0000 
     78 CA         29.9630   -4.9370  -12.8920 C.3       6 GLP5        0.0000 
     79 CA         24.9100   -2.8028  -15.3982 C.3       3 GLC5        0.0000 
     80 CA         26.3000   -1.4130  -14.0520 C.3       9 GLL5        0.0000 
     81 CA         23.5280   -3.4300  -16.6680 C.3       6 GLP5        0.0000 
     82 CA         27.6971   -1.4070  -12.7837 C.3       3 GLC5        0.0000 
     83 CA         28.8000   -0.8390  -11.3280 C.3       6 GLP5        0.0000 
     84 CA         26.2370    0.9935  -16.0622 C.3       3 GLC5        0.0000 
     85 CA         25.3360   -0.6790  -14.8860 C.3       9 GLL5        0.0000 
     86 CA         27.0830    2.6500  -16.5450 C.3       6 GLP5        0.0000 
     87 CA         24.4595   -2.0465  -16.1238 C.3       3 GLC5        0.0000 
     88 CA         25.4460   -0.6470  -16.2730 C.3       9 GLL5        0.0000 
     89 CA         25.5062    1.4732  -16.6303 C.3       3 GLC5        0.0000 
     90 CA         24.4700   -0.0070  -17.0280 C.3       9 GLL5        0.0000 
     91 CA         23.3227    1.7477  -17.8798 C.3       3 GLC5        0.0000 
     92 CA         22.7160    3.1990  -19.0440 C.3       6 GLP5        0.0000 
     93 CA         22.4817   -0.2518  -17.8038 C.3       3 GLC5        0.0000 
     94 CA         23.3890    0.6000  -16.4030 C.3       9 GLL5        0.0000 
     95 CA         21.0340   -0.8000  -18.8920 C.3       6 GLP5        0.0000 
     96 CA         23.7287   -1.5668  -16.6917 C.3       3 GLC5        0.0000 
     97 CA         22.9145    2.3317  -14.9423 C.3       3 GLC5        0.0000 
     98 CA         22.4890    4.0720  -14.1750 C.3       6 GLP5        0.0000 
     99 CA         21.3965    0.7628  -15.8637 C.3       3 GLC5        0.0000 
    100 CA         23.2910    0.5830  -15.0160 C.3       9 GLL5        0.0000 
    101 CA         19.4530    0.9340  -16.0180 C.3       6 GLP5        0.0000 
    102 CA         22.3100   -0.8077  -13.8730 C.3       3 GLC5        0.0000 
    103 CA         20.8450   -1.8790  -13.1100 C.3       6 GLP5        0.0000 
    104 CA         23.6515   -1.5833  -15.6520 C.3       3 GLC5        0.0000 
@<TRIPOS>BOND
@<TRIPOS>SUBSTRUCTURE
     1 ALC1       11 GROUP        1 X    ALC  0     ROOT ALC X 1
     2 SEC2        6 GROUP        1 X    SEC  0     **** SEC X 2
     3 GLC5        1 GROUP        1 X    GLC  0     **** GLC X 6
     4 ALP1       13 GROUP        1 Y    ALP  0     ROOT ALP Y 8
     5 SEP2        8 GROUP        1 Y    SEP  0     **** SEP Y 9
     6 GLP5        3 GROUP        1 Y    GLP  0     **** GLP Y 13
     7 ALL1       12 GROUP        1 Z    ALL  0     ROOT ALL Z 15
     8 SEL2        7 GROUP        1 Z    SEL  0     **** SEL Z 16
     9 GLL5        2 GROUP        1 Z    GLL  0     **** GLL Z 20
@<TRIPOS>SET

