#    Name: 3tub_FPU_1_ligand
#    Modification time : Mon Mar 24 20:57:01 2014

@<TRIPOS>MOLECULE
3tub_FPU_1_ligand
   58    62     1     0     0
SMALL
NO_CHARGES


@<TRIPOS>ATOM
      1 C1         18.1390   -9.8670   -6.5410 C.3       1 FPU999      0.0000 
      2 N1         19.8660   -3.8780   -4.9630 N.ar      1 FPU999      0.0000 
      3 O1         17.5990   -8.8790   -5.7020 O.3       1 FPU999      0.0000 
      4 C2         18.2730   -7.6990   -5.6120 C.ar      1 FPU999      0.0000 
      5 N2         23.3410   -4.6420  -10.1960 N.ar      1 FPU999      0.0000 
      6 O2         16.3590   -7.0020   -4.3050 O.3       1 FPU999      0.0000 
      7 C3         19.4610   -7.3890   -6.2230 C.ar      1 FPU999      0.0000 
      8 N3         25.3890   -5.0780  -11.3500 N.am      1 FPU999      0.0000 
      9 O3         21.7890   -6.5920   -7.4850 O.3       1 FPU999      0.0000 
     10 C4         20.0200   -6.0990   -6.0270 C.ar      1 FPU999      0.0000 
     11 N4         26.3840   -3.7760  -13.0430 N.am      1 FPU999      0.0000 
     12 O4         24.1770   -3.4060  -12.4590 O.2       1 FPU999      0.0000 
     13 C5         21.2140   -5.6560   -6.6720 C.ar      1 FPU999      0.0000 
     14 C6         21.7150   -4.3990   -6.4490 C.ar      1 FPU999      0.0000 
     15 C7         20.9760   -3.5340   -5.5960 C.ar      1 FPU999      0.0000 
     16 C8         19.3920   -5.1680   -5.1780 C.ar      1 FPU999      0.0000 
     17 C9         18.1720   -5.5170   -4.5350 C.ar      1 FPU999      0.0000 
     18 C10        17.6180   -6.7420   -4.7780 C.ar      1 FPU999      0.0000 
     19 C11        16.3540   -7.7850   -3.1380 C.3       1 FPU999      0.0000 
     20 C12        22.6930   -6.1330   -8.4100 C.ar      1 FPU999      0.0000 
     21 C13        23.8220   -6.9300   -8.5980 C.ar      1 FPU999      0.0000 
     22 C14        24.7140   -6.5810   -9.5950 C.ar      1 FPU999      0.0000 
     23 C15        24.4470   -5.4320  -10.3740 C.ar      1 FPU999      0.0000 
     24 C16        22.4760   -5.0190   -9.2320 C.ar      1 FPU999      0.0000 
     25 C17        25.2220   -4.0150  -12.2830 C.2       1 FPU999      0.0000 
     26 C18        26.2840   -2.9380  -14.2050 C.3       1 FPU999      0.0000 
     27 C19        27.4930   -2.1360  -14.6490 C.3       1 FPU999      0.0000 
     28 C20        26.3000   -1.4130  -14.0520 C.3       1 FPU999      0.0000 
     29 C21        25.3360   -0.6790  -14.8860 C.ar      1 FPU999      0.0000 
     30 C22        25.4460   -0.6470  -16.2730 C.ar      1 FPU999      0.0000 
     31 C23        24.4700   -0.0070  -17.0280 C.ar      1 FPU999      0.0000 
     32 C24        23.3890    0.6000  -16.4030 C.ar      1 FPU999      0.0000 
     33 C25        23.2910    0.5830  -15.0160 C.ar      1 FPU999      0.0000 
     34 C26        24.2590   -0.0560  -14.2560 C.ar      1 FPU999      0.0000 
     35 H          19.9525   -8.0599   -6.8135 H         1 FPU999      0.0000 
     36 H          26.2838   -5.6302  -11.4042 H         1 FPU999      0.0000 
     37 H          27.2715   -4.1783  -12.7873 H         1 FPU999      0.0000 
     38 H          22.5774   -4.0761   -6.8653 H         1 FPU999      0.0000 
     39 H          21.3751   -2.5520   -5.4850 H         1 FPU999      0.0000 
     40 H          17.7357   -4.8424   -3.9041 H         1 FPU999      0.0000 
     41 H          23.9803   -7.7473   -8.0127 H         1 FPU999      0.0000 
     42 H          25.5502   -7.1309   -9.7757 H         1 FPU999      0.0000 
     43 H          21.5932   -4.4667   -9.0730 H         1 FPU999      0.0000 
     44 H          25.7712   -3.0913  -15.0377 H         1 FPU999      0.0000 
     45 H          27.4498   -2.0409  -15.5915 H         1 FPU999      0.0000 
     46 H          28.1559   -2.2105  -13.9751 H         1 FPU999      0.0000 
     47 H          26.5164   -1.2676  -13.1097 H         1 FPU999      0.0000 
     48 H          26.2453   -1.0946  -16.7361 H         1 FPU999      0.0000 
     49 H          24.5497    0.0166  -18.0550 H         1 FPU999      0.0000 
     50 H          22.6616    1.0616  -16.9639 H         1 FPU999      0.0000 
     51 H          22.4960    1.0471  -14.5532 H         1 FPU999      0.0000 
     52 H          24.1862   -0.0724  -13.2317 H         1 FPU999      0.0000 
     53 H          19.0576  -10.1375   -6.2528 H         1 FPU999      0.0000 
     54 H          17.5783  -10.6950   -6.5483 H         1 FPU999      0.0000 
     55 H          18.2096   -9.5524   -7.4876 H         1 FPU999      0.0000 
     56 H          16.7896   -8.6731   -3.2847 H         1 FPU999      0.0000 
     57 H          16.8437   -7.3385   -2.3891 H         1 FPU999      0.0000 
     58 H          15.4247   -7.9642   -2.8150 H         1 FPU999      0.0000 
@<TRIPOS>BOND
     1    3    1 1    
     2   53    1 1    
     3   54    1 1    
     4   55    1 1    
     5   15    2 ar   
     6   16    2 ar   
     7    4    3 1    
     8    7    4 ar   
     9   18    4 ar   
    10   23    5 ar   
    11   24    5 ar   
    12   18    6 1    
    13   19    6 1    
    14   10    7 ar   
    15   35    7 1    
    16   23    8 1    
    17   25    8 am   
    18   36    8 1    
    19   13    9 1    
    20   20    9 1    
    21   13   10 ar   
    22   16   10 ar   
    23   25   11 am   
    24   26   11 1    
    25   37   11 1    
    26   25   12 2    
    27   14   13 ar   
    28   15   14 ar   
    29   38   14 1    
    30   39   15 1    
    31   17   16 ar   
    32   18   17 ar   
    33   40   17 1    
    34   56   19 1    
    35   57   19 1    
    36   58   19 1    
    37   21   20 ar   
    38   24   20 ar   
    39   22   21 ar   
    40   41   21 1    
    41   23   22 ar   
    42   42   22 1    
    43   43   24 1    
    44   27   26 1    
    45   28   26 1    
    46   44   26 1    
    47   28   27 1    
    48   45   27 1    
    49   46   27 1    
    50   29   28 1    
    51   47   28 1    
    52   30   29 ar   
    53   34   29 ar   
    54   31   30 ar   
    55   48   30 1    
    56   32   31 ar   
    57   49   31 1    
    58   33   32 ar   
    59   50   32 1    
    60   34   33 ar   
    61   51   33 1    
    62   52   34 1    
@<TRIPOS>SUBSTRUCTURE
     1 FPU999      1 GROUP   
@<TRIPOS>SET

