#    Name: 1w5w_BE4_1_INTS_M
#    Modification time : Tue Mar 25 08:40:12 2014

@<TRIPOS>MOLECULE
1w5w_BE4_1_INTS_M
  130     0     9     0     0
SMALL
NO_CHARGES


@<TRIPOS>ATOM
      1 CA         11.4165   21.6055    2.7565 C.3       3 GLC5        0.0000 
      2 CA         11.3380   23.3620    2.2490 C.3       9 GLL5        0.0000 
      3 CA         11.4950   19.8490    3.2640 C.3       6 GLP5        0.0000 
      4 CA         10.0790   23.3575    0.4245 C.3       3 GLC5        0.0000 
      5 CA          8.8200   23.3530   -1.4000 C.3       6 GLP5        0.0000 
      6 CA         11.6920   21.9745    3.9450 C.3       3 GLC5        0.0000 
      7 CA         11.8890   24.1000    4.6260 C.3       9 GLL5        0.0000 
      8 CA         16.8385   24.0400    5.3300 C.3       3 GLC5        0.0000 
      9 CA         15.1920   22.8530    6.0190 C.3       9 GLL5        0.0000 
     10 CA         18.4850   25.2270    4.6410 C.3       6 GLP5        0.0000 
     11 O          17.3270   21.7985    5.3000 O.2       1 ALC1        0.0000 
     12 O          16.3030   20.7060    5.4450 O.2       7 ALL1        0.0000 
     13 O          18.3510   22.8910    5.1550 O.2       4 ALP1        0.0000 
     14 CA         15.0410   24.2535    9.5335 C.3       3 GLC5        0.0000 
     15 CA         16.0160   23.2960    8.3780 C.3       9 GLL5        0.0000 
     16 CA         14.0660   25.2110   10.6890 C.3       6 GLP5        0.0000 
     17 N          15.4820   25.4575    3.5085 N.am      2 SEC2        0.0000 
     18 N          14.8000   24.8910    4.5700 N.am      8 SEL2        0.0000 
     19 N          16.1640   26.0240    2.4470 N.am      5 SEP2        0.0000 
     20 O          15.1780   25.5455    5.7400 O.2       1 ALC1        0.0000 
     21 O          14.8000   24.8910    4.5700 O.2       7 ALL1        0.0000 
     22 O          15.5560   26.2000    6.9100 O.2       4 ALP1        0.0000 
     23 O          14.3355   25.6180    6.7445 O.2       1 ALC1        0.0000 
     24 O          13.1150   25.0360    6.5790 O.2       7 ALL1        0.0000 
     25 O          10.6985   26.4105    4.4355 O.2       1 ALC1        0.0000 
     26 O           9.9890   25.4230    5.4150 O.2       7 ALL1        0.0000 
     27 O          11.4080   27.3980    3.4560 O.2       4 ALP1        0.0000 
     28 CA          6.6250   26.4885    9.3490 C.3       3 GLC5        0.0000 
     29 CA          7.9520   27.2730    7.7780 C.3       9 GLL5        0.0000 
     30 CA          5.2980   25.7040   10.9200 C.3       6 GLP5        0.0000 
     31 CA         12.2015   26.2220   10.1020 C.3       3 GLC5        0.0000 
     32 CA         10.3370   27.2330    9.5150 C.3       9 GLL5        0.0000 
     33 CA          7.9635   28.9530   11.5125 C.3       3 GLC5        0.0000 
     34 CA          9.1820   28.0890    9.8330 C.3       9 GLL5        0.0000 
     35 CA          6.7450   29.8170   13.1920 C.3       6 GLP5        0.0000 
     36 N           9.1490   28.9140    5.2865 N.am      2 SEC2        0.0000 
     37 N           8.4330   27.6510    4.8380 N.am      8 SEL2        0.0000 
     38 N           9.8650   30.1770    5.7350 N.am      5 SEP2        0.0000 
     39 O           7.3985   28.7235    4.4590 O.2       1 ALC1        0.0000 
     40 O           8.4330   27.6510    4.8380 O.2       7 ALL1        0.0000 
     41 O           6.3640   29.7960    4.0800 O.2       4 ALP1        0.0000 
     42 CA          6.4525   27.6270   10.1485 C.3       3 GLC5        0.0000 
     43 CA          7.9800   28.1230    8.9790 C.3       9 GLL5        0.0000 
     44 CA          4.9250   27.1310   11.3180 C.3       6 GLP5        0.0000 
     45 CA          7.2640   29.1540    6.1245 C.3       3 GLC5        0.0000 
     46 CA          6.8910   27.1130    6.7550 C.3       9 GLL5        0.0000 
     47 CA          7.6370   31.1950    5.4940 C.3       6 GLP5        0.0000 
     48 CA         13.4740   19.6395    2.9845 C.3       3 GLC5        0.0000 
     49 CA         15.4530   19.4300    2.7050 C.3       9 GLL5        0.0000 
     50 N          19.4485   20.1215    3.9815 N.am      2 SEC2        0.0000 
     51 N          18.7870   19.7730    5.3210 N.am      8 SEL2        0.0000 
     52 N          20.1100   20.4700    2.6420 N.am      5 SEP2        0.0000 
     53 O          18.5690   21.3320    5.2380 O.2       1 ALC1        0.0000 
     54 O          18.7870   19.7730    5.3210 O.2       7 ALL1        0.0000 
     55 CA         17.1120   15.3500    2.2875 C.3       3 GLC5        0.0000 
     56 CA         17.3850   17.2460    2.1300 C.3       9 GLL5        0.0000 
     57 CA         16.8390   13.4540    2.4450 C.3       6 GLP5        0.0000 
     58 CA         19.8920   18.1165    3.9665 C.3       3 GLC5        0.0000 
     59 CA         17.9840   17.4790    4.7430 C.3       9 GLL5        0.0000 
     60 CA         21.8000   18.7540    3.1900 C.3       6 GLP5        0.0000 
     61 CA          6.0970   24.5635    0.1020 C.3       3 GLC5        0.0000 
     62 CA          5.7710   25.3180    2.1170 C.3       9 GLL5        0.0000 
     63 CA          6.4230   23.8090   -1.9130 C.3       6 GLP5        0.0000 
     64 CA         14.2455   23.1075   10.2015 C.3       3 GLC5        0.0000 
     65 CA         14.4250   21.0040    9.7140 C.3       9 GLL5        0.0000 
     66 CA         12.7575   20.5655   10.0180 C.3       3 GLC5        0.0000 
     67 CA         11.0900   20.1270   10.3220 C.3       6 GLP5        0.0000 
     68 CA          7.6360   20.5480    2.5105 C.3       3 GLC5        0.0000 
     69 CA          9.0560   21.6000    3.0860 C.3       9 GLL5        0.0000 
     70 CA          6.2160   19.4960    1.9350 C.3       6 GLP5        0.0000 
     71 CA         17.8777   21.4050   10.6195 C.3       3 GLC5        0.0000 
     72 CA         18.6650   20.4460    8.8960 C.3       9 GLL5        0.0000 
     73 CA         17.4730   22.9070   12.0260 C.3       6 GLP5        0.0000 
     74 CA          9.0780   23.3468    0.5248 C.3       3 GLC5        0.0000 
     75 CA          9.8880   23.7850    2.2390 C.3       9 GLL5        0.0000 
     76 CA         11.4470   22.3263    1.1095 C.3       3 GLC5        0.0000 
     77 CA         12.2810   21.0790   -0.0250 C.3       6 GLP5        0.0000 
     78 CA          6.8890   21.8190    1.8028 C.3       3 GLC5        0.0000 
     79 CA          8.7840   22.8960    2.6600 C.3       9 GLL5        0.0000 
     80 CA          5.6960   20.4890    0.9630 C.3       6 GLP5        0.0000 
     81 CA          8.0352   23.7275    0.4970 C.3       3 GLC5        0.0000 
     82 CA          7.3800   23.4020    2.6250 C.3       9 GLL5        0.0000 
     83 CA         10.1898   26.0333    0.7014 C.3       3 GLC5        0.0000 
     84 CA          8.2690   25.6600    1.7500 C.3       9 GLL5        0.0000 
     85 CA         11.3720   27.0040   -0.4810 C.3       6 GLP5        0.0000 
     86 CA          8.8782   24.3778    0.1865 C.3       3 GLC5        0.0000 
     87 CA          9.6040   25.1450    1.7960 C.3       9 GLL5        0.0000 
     88 CA         18.0726   23.8030    8.4081 C.3       3 GLC5        0.0000 
     89 CA         19.4880   25.0520    8.2900 C.3       6 GLP5        0.0000 
     90 CA         17.0651   22.7305   10.2761 C.3       3 GLC5        0.0000 
     91 CA         18.0150   21.6930    8.5450 C.3       9 GLL5        0.0000 
     92 CA         10.4145   27.4372    6.2935 C.3       3 GLC5        0.0000 
     93 CA          9.0860   26.4100    7.4320 C.3       9 GLL5        0.0000 
     94 CA         11.8960   28.8340    5.7840 C.3       6 GLP5        0.0000 
     95 CA         10.1070   25.2638   10.0442 C.3       3 GLC5        0.0000 
     96 CA         10.2930   26.3740    8.2900 C.3       9 GLL5        0.0000 
     97 CA          9.8990   23.7240   11.1860 C.3       6 GLP5        0.0000 
     98 CA         10.7123   27.2355   11.3695 C.3       3 GLC5        0.0000 
     99 CA         11.6650   26.8100   13.0650 C.3       6 GLP5        0.0000 
    100 CA          8.5542   26.6770   11.0520 C.3       3 GLC5        0.0000 
    101 CA          7.3490   25.6930   12.4300 C.3       6 GLP5        0.0000 
    102 CA         11.2138   28.0761    8.2304 C.3       3 GLC5        0.0000 
    103 CA         12.6790   28.7060    7.0930 C.3       6 GLP5        0.0000 
    104 CA          8.3730   29.9860    9.8065 C.3       3 GLC5        0.0000 
    105 CA          8.1650   31.8660   10.2070 C.3       6 GLP5        0.0000 
    106 CA         17.5468   20.2698    3.2435 C.3       3 GLC5        0.0000 
    107 CA         16.4110   19.2780    5.2440 C.3       9 GLL5        0.0000 
    108 CA         18.2860   22.0860    2.4930 C.3       6 GLP5        0.0000 
    109 CA         16.6763   15.7465    3.7700 C.3       3 GLC5        0.0000 
    110 CA         17.2530   17.8230    3.4810 C.3       9 GLL5        0.0000 
    111 CA         15.7340   13.8420    3.4280 C.3       6 GLP5        0.0000 
    112 CA         13.8950   20.1127    0.9948 C.3       3 GLC5        0.0000 
    113 CA         15.1053   16.5463    1.4240 C.3       3 GLC5        0.0000 
    114 CA         16.5300   17.7860    1.0740 C.3       9 GLL5        0.0000 
    115 CA         14.1630   14.7680    1.6490 C.3       6 GLP5        0.0000 
    116 CA         16.6732   20.2416    1.4271 C.3       3 GLC5        0.0000 
    117 CA         17.3270   22.0170    1.3100 C.3       6 GLP5        0.0000 
    118 CA         18.3708   17.0945    0.4820 C.3       3 GLC5        0.0000 
    119 CA         19.7840   16.6730   -0.6380 C.3       6 GLP5        0.0000 
    120 CA         15.8786   17.0136    0.0953 C.3       3 GLC5        0.0000 
    121 CA         15.0410   16.2420   -1.4740 C.3       6 GLP5        0.0000 
    122 CA         14.9446   20.0601   11.2944 C.3       3 GLC5        0.0000 
    123 CA         15.8100   20.8220    9.4490 C.3       9 GLL5        0.0000 
    124 CA         14.6100   19.5230   12.9180 C.3       6 GLP5        0.0000 
    125 CA         16.3761   21.7521   10.8484 C.3       3 GLC5        0.0000 
    126 CA         14.0811   19.2861    8.7284 C.3       3 GLC5        0.0000 
    127 CA         12.8830   17.9750    7.7860 C.3       6 GLP5        0.0000 
    128 CA          8.1875   21.8068    4.4601 C.3       3 GLC5        0.0000 
    129 CA          7.8060   21.2390    6.0560 C.3       6 GLP5        0.0000 
    130 CA         10.3455   21.1596    3.0159 C.3       3 GLC5        0.0000 
@<TRIPOS>BOND
@<TRIPOS>SUBSTRUCTURE
     1 ALC1       11 GROUP        1 X    ALC  0     ROOT ALC X 1
     2 SEC2       17 GROUP        1 X    SEC  0     **** SEC X 2
     3 GLC5        1 GROUP        1 X    GLC  0     **** GLC X 6
     4 ALP1       13 GROUP        1 Y    ALP  0     ROOT ALP Y 8
     5 SEP2       19 GROUP        1 Y    SEP  0     **** SEP Y 9
     6 GLP5        3 GROUP        1 Y    GLP  0     **** GLP Y 13
     7 ALL1       12 GROUP        1 Z    ALL  0     ROOT ALL Z 15
     8 SEL2       18 GROUP        1 Z    SEL  0     **** SEL Z 16
     9 GLL5        2 GROUP        1 Z    GLL  0     **** GLL Z 20
@<TRIPOS>SET

