#    Name: 1w5w_BE4_1_ligand
#    Modification time : Tue Mar 25 08:40:12 2014

@<TRIPOS>MOLECULE
1w5w_BE4_1_ligand
   88    93     1     0     0
SMALL
NO_CHARGES


@<TRIPOS>ATOM
      1 C01        16.5820   21.9310    8.8040 C.ar      1 BE41100     0.0000 
      2 C02        18.0150   21.6930    8.5450 C.ar      1 BE41100     0.0000 
      3 C03        18.6650   20.4460    8.8960 C.ar      1 BE41100     0.0000 
      4 C04        17.9000   19.3600    9.5300 C.ar      1 BE41100     0.0000 
      5 C05        16.4570   19.5590    9.8060 C.ar      1 BE41100     0.0000 
      6 C06        15.8100   20.8220    9.4490 C.ar      1 BE41100     0.0000 
      7 C07         9.8880   23.7850    2.2390 C.ar      1 BE41100     0.0000 
      8 C08         8.7840   22.8960    2.6600 C.ar      1 BE41100     0.0000 
      9 C09         7.3800   23.4020    2.6250 C.ar      1 BE41100     0.0000 
     10 C10         7.1210   24.8020    2.1630 C.ar      1 BE41100     0.0000 
     11 C11         8.2690   25.6600    1.7500 C.ar      1 BE41100     0.0000 
     12 C12         9.6040   25.1450    1.7960 C.ar      1 BE41100     0.0000 
     13 C13        11.3380   23.3620    2.2490 C.3       1 BE41100     0.0000 
     14 O14        11.8420   23.0150    3.5620 O.3       1 BE41100     0.0000 
     15 C15        11.8890   24.1000    4.6260 C.3       1 BE41100     0.0000 
     16 C16        12.9460   23.8690    5.6740 C.3       1 BE41100     0.0000 
     17 C17        14.2490   23.6340    5.0210 C.3       1 BE41100     0.0000 
     18 C18        15.1920   22.8530    6.0190 C.3       1 BE41100     0.0000 
     19 C19        15.1570   21.3490    5.8340 C.2       1 BE41100     0.0000 
     20 O20        14.1050   20.7100    6.0550 O.2       1 BE41100     0.0000 
     21 N21        16.3030   20.7060    5.4450 N.am      1 BE41100     0.0000 
     22 O22        14.8980   23.1810    7.4420 O.3       1 BE41100     0.0000 
     23 C23        16.0160   23.2960    8.3780 C.3       1 BE41100     0.0000 
     24 O24        14.8000   24.8910    4.5700 O.3       1 BE41100     0.0000 
     25 O25        13.1150   25.0360    6.5790 O.3       1 BE41100     0.0000 
     26 C26        10.6680   24.2460    5.4690 C.2       1 BE41100     0.0000 
     27 O27        10.3060   23.2750    6.1790 O.2       1 BE41100     0.0000 
     28 N28         9.9890   25.4230    5.4150 N.am      1 BE41100     0.0000 
     29 C29         8.7800   25.6710    6.1740 C.3       1 BE41100     0.0000 
     30 C30         9.0860   26.4100    7.4320 C.ar      1 BE41100     0.0000 
     31 C31         7.9520   27.2730    7.7780 C.ar      1 BE41100     0.0000 
     32 C32        10.2930   26.3740    8.2900 C.ar      1 BE41100     0.0000 
     33 C33        10.3370   27.2330    9.5150 C.ar      1 BE41100     0.0000 
     34 C34         9.1820   28.0890    9.8330 C.ar      1 BE41100     0.0000 
     35 C35         7.7220   26.6120    5.5360 C.3       1 BE41100     0.0000 
     36 O36         8.4330   27.6510    4.8380 O.3       1 BE41100     0.0000 
     37 C37         7.9800   28.1230    8.9790 C.ar      1 BE41100     0.0000 
     38 C38         6.8910   27.1130    6.7550 C.3       1 BE41100     0.0000 
     39 C39        16.4110   19.2780    5.2440 C.3       1 BE41100     0.0000 
     40 C40        16.3130   18.8900    3.7700 C.ar      1 BE41100     0.0000 
     41 C41        17.2530   17.8230    3.4810 C.ar      1 BE41100     0.0000 
     42 C42        15.4530   19.4300    2.7050 C.ar      1 BE41100     0.0000 
     43 C43        15.5650   18.8630    1.3240 C.ar      1 BE41100     0.0000 
     44 C44        16.5300   17.7860    1.0740 C.ar      1 BE41100     0.0000 
     45 C45        17.8180   18.7330    5.6140 C.3       1 BE41100     0.0000 
     46 O46        18.7870   19.7730    5.3210 O.3       1 BE41100     0.0000 
     47 C47        17.3850   17.2460    2.1300 C.ar      1 BE41100     0.0000 
     48 C48        17.9840   17.4790    4.7430 C.3       1 BE41100     0.0000 
     49 F49         5.7710   25.3180    2.1170 F         1 BE41100     0.0000 
     50 F50        18.5370   18.1490    9.8660 F         1 BE41100     0.0000 
     51 F51        14.4250   21.0040    9.7140 F         1 BE41100     0.0000 
     52 F52         9.0560   21.6000    3.0860 F         1 BE41100     0.0000 
     53 H          18.5563   22.4369    8.1042 H         1 BE41100     0.0000 
     54 H          19.6463   20.3121    8.7089 H         1 BE41100     0.0000 
     55 H          15.9321   18.8235   10.2373 H         1 BE41100     0.0000 
     56 H           6.6309   22.8223    2.9026 H         1 BE41100     0.0000 
     57 H           8.0776   26.5985    1.4426 H         1 BE41100     0.0000 
     58 H          10.3879   25.7386    1.5126 H         1 BE41100     0.0000 
     59 H          11.9405   24.1870    1.8062 H         1 BE41100     0.0000 
     60 H          11.4512   22.5034    1.5491 H         1 BE41100     0.0000 
     61 H          12.1010   25.0672    4.1731 H         1 BE41100     0.0000 
     62 H          12.6868   22.9991    6.2580 H         1 BE41100     0.0000 
     63 H          14.0866   22.9617    4.1698 H         1 BE41100     0.0000 
     64 H          16.2245   23.1904    5.7999 H         1 BE41100     0.0000 
     65 H          17.1816   21.2634    5.2730 H         1 BE41100     0.0000 
     66 H          16.8412   23.8781    7.9316 H         1 BE41100     0.0000 
     67 H          15.7068   23.8323    9.2922 H         1 BE41100     0.0000 
     68 H          10.3244   26.2068    4.8099 H         1 BE41100     0.0000 
     69 H           8.2630   24.7668    6.4562 H         1 BE41100     0.0000 
     70 H          11.0601   25.7948    8.0633 H         1 BE41100     0.0000 
     71 H          11.1382   27.2181   10.0976 H         1 BE41100     0.0000 
     72 H           9.2128   28.6721   10.6625 H         1 BE41100     0.0000 
     73 H           7.1055   26.0202    4.9213 H         1 BE41100     0.0000 
     74 H           7.2131   28.7028    9.2089 H         1 BE41100     0.0000 
     75 H           6.4536   28.0366    6.5033 H         1 BE41100     0.0000 
     76 H           6.2054   26.3607    7.0228 H         1 BE41100     0.0000 
     77 H          15.6991   18.7075    5.7835 H         1 BE41100     0.0000 
     78 H          14.8067   20.1570    2.8874 H         1 BE41100     0.0000 
     79 H          14.9911   19.2181    0.5996 H         1 BE41100     0.0000 
     80 H          16.6050   17.4031    0.1319 H         1 BE41100     0.0000 
     81 H          17.7926   18.4556    6.6307 H         1 BE41100     0.0000 
     82 H          18.0289   16.5218    1.9513 H         1 BE41100     0.0000 
     83 H          19.0170   17.3240    4.5481 H         1 BE41100     0.0000 
     84 H          17.5251   16.6533    5.2295 H         1 BE41100     0.0000 
     85 H          15.0396   25.3835    5.4067 H         1 BE41100     0.0000 
     86 H          14.0790   25.2891    6.4975 H         1 BE41100     0.0000 
     87 H           7.7356   28.3273    4.6007 H         1 BE41100     0.0000 
     88 H          18.2409   20.5865    5.1212 H         1 BE41100     0.0000 
@<TRIPOS>BOND
     1    2    1 ar   
     2    6    1 ar   
     3   23    1 1    
     4    3    2 ar   
     5   53    2 1    
     6    4    3 ar   
     7   54    3 1    
     8    5    4 ar   
     9   50    4 1    
    10    6    5 ar   
    11   55    5 1    
    12   51    6 1    
    13    8    7 ar   
    14   12    7 ar   
    15   13    7 1    
    16    9    8 ar   
    17   52    8 1    
    18   10    9 ar   
    19   56    9 1    
    20   11   10 ar   
    21   49   10 1    
    22   12   11 ar   
    23   57   11 1    
    24   58   12 1    
    25   14   13 1    
    26   59   13 1    
    27   60   13 1    
    28   15   14 1    
    29   16   15 1    
    30   26   15 1    
    31   61   15 1    
    32   17   16 1    
    33   25   16 1    
    34   62   16 1    
    35   18   17 1    
    36   24   17 1    
    37   63   17 1    
    38   19   18 1    
    39   22   18 1    
    40   64   18 1    
    41   20   19 2    
    42   21   19 am   
    43   39   21 1    
    44   65   21 1    
    45   23   22 1    
    46   66   23 1    
    47   67   23 1    
    48   85   24 1    
    49   86   25 1    
    50   27   26 2    
    51   28   26 am   
    52   29   28 1    
    53   68   28 1    
    54   30   29 1    
    55   35   29 1    
    56   69   29 1    
    57   31   30 ar   
    58   32   30 ar   
    59   37   31 ar   
    60   38   31 1    
    61   33   32 ar   
    62   70   32 1    
    63   34   33 ar   
    64   71   33 1    
    65   37   34 ar   
    66   72   34 1    
    67   36   35 1    
    68   38   35 1    
    69   73   35 1    
    70   87   36 1    
    71   74   37 1    
    72   75   38 1    
    73   76   38 1    
    74   40   39 1    
    75   45   39 1    
    76   77   39 1    
    77   41   40 ar   
    78   42   40 ar   
    79   47   41 ar   
    80   48   41 1    
    81   43   42 ar   
    82   78   42 1    
    83   44   43 ar   
    84   79   43 1    
    85   47   44 ar   
    86   80   44 1    
    87   46   45 1    
    88   48   45 1    
    89   81   45 1    
    90   88   46 1    
    91   82   47 1    
    92   83   48 1    
    93   84   48 1    
@<TRIPOS>SUBSTRUCTURE
     1 BE41100     1 GROUP   
@<TRIPOS>SET

