#    Name: 1s0z_EB1_1_INTS_M
#    Modification time : Tue Mar 25 01:42:30 2014

@<TRIPOS>MOLECULE
1s0z_EB1_1_INTS_M
  127     0     9     0     0
SMALL
NO_CHARGES


@<TRIPOS>ATOM
      1 N          17.9815   17.0715   35.0500 N.am      2 SEC2        0.0000 
      2 N          16.9910   18.1040   34.5460 N.am      8 SEL2        0.0000 
      3 N          18.9720   16.0390   35.5540 N.am      5 SEP2        0.0000 
      4 O          17.9480   18.9800   33.9575 O.2       1 ALC1        0.0000 
      5 O          16.9910   18.1040   34.5460 O.2       7 ALL1        0.0000 
      6 O          18.9050   19.8560   33.3690 O.2       4 ALP1        0.0000 
      7 CA         14.3860   17.8210   37.5085 C.3       3 GLC5        0.0000 
      8 CA         14.1730   18.0340   35.5540 C.3       9 GLL5        0.0000 
      9 CA         14.5990   17.6080   39.4630 C.3       6 GLP5        0.0000 
     10 CA         15.6595   19.1940   36.4040 C.3       3 GLC5        0.0000 
     11 CA         17.1460   20.3540   37.2540 C.3       6 GLP5        0.0000 
     12 CA         16.1845   16.0035   35.9535 C.3       3 GLC5        0.0000 
     13 CA         14.8860   16.9180   34.7320 C.3       9 GLL5        0.0000 
     14 CA         17.4830   15.0890   37.1750 C.3       6 GLP5        0.0000 
     15 CA         17.1985   16.2925   32.9450 C.3       3 GLC5        0.0000 
     16 CA         15.9250   17.5950   33.7620 C.3       9 GLL5        0.0000 
     17 CA         18.4720   14.9900   32.1280 C.3       6 GLP5        0.0000 
     18 CA         17.9095   18.2560   33.3760 C.3       3 GLC5        0.0000 
     19 CA         19.8940   18.9170   32.9900 C.3       6 GLP5        0.0000 
     20 CA         14.8450   17.1700   31.7245 C.3       3 GLC5        0.0000 
     21 CA         15.3460   18.7890   32.9310 C.3       9 GLL5        0.0000 
     22 CA         14.3440   15.5510   30.5180 C.3       6 GLP5        0.0000 
     23 CA         13.4810   18.2015   32.2125 C.3       3 GLC5        0.0000 
     24 CA         11.6160   17.6140   31.4940 C.3       6 GLP5        0.0000 
     25 CA         15.7145   24.3655   33.9565 C.3       3 GLC5        0.0000 
     26 CA         14.0020   23.4790   33.6500 C.3       9 GLL5        0.0000 
     27 CA         17.4270   25.2520   34.2630 C.3       6 GLP5        0.0000 
     28 CA         15.9760   24.5160   32.5325 C.3       3 GLC5        0.0000 
     29 CA         14.3530   23.9540   32.1960 C.3       9 GLL5        0.0000 
     30 CA         17.5990   25.0780   32.8690 C.3       6 GLP5        0.0000 
     31 CA         12.5670   18.3805   33.1120 C.3       3 GLC5        0.0000 
     32 CA         13.5180   19.1470   34.7300 C.3       9 GLL5        0.0000 
     33 CA         14.8780   20.3220   35.7620 C.3       3 GLC5        0.0000 
     34 CA         16.2380   21.4970   36.7940 C.3       6 GLP5        0.0000 
     35 CA         11.7390   24.0035   30.1510 C.3       3 GLC5        0.0000 
     36 CA         13.1570   24.6190   31.4570 C.3       9 GLL5        0.0000 
     37 CA         10.3210   23.3880   28.8450 C.3       6 GLP5        0.0000 
     38 CA         15.2135   25.3760   31.7325 C.3       3 GLC5        0.0000 
     39 CA         17.2700   26.1330   32.0080 C.3       6 GLP5        0.0000 
     40 CA         10.8340   25.6295   30.7160 C.3       3 GLC5        0.0000 
     41 CA         12.3250   25.5940   32.3430 C.3       9 GLL5        0.0000 
     42 CA          9.3430   25.6650   29.0890 C.3       6 GLP5        0.0000 
     43 CA         15.1395   25.5070   34.6565 C.3       3 GLC5        0.0000 
     44 CA         13.3440   24.5760   34.4970 C.3       9 GLL5        0.0000 
     45 CA         16.9350   26.4380   34.8160 C.3       6 GLP5        0.0000 
     46 CA         14.5700   22.9170   36.3995 C.3       3 GLC5        0.0000 
     47 CA         12.9020   24.3370   36.0050 C.3       9 GLL5        0.0000 
     48 CA          9.2945   22.8690   33.9430 C.3       3 GLC5        0.0000 
     49 CA         10.9630   23.9330   33.6220 C.3       9 GLL5        0.0000 
     50 CA          7.6260   21.8050   34.2640 C.3       6 GLP5        0.0000 
     51 CA         11.5480   19.2165   33.1745 C.3       3 GLC5        0.0000 
     52 CA         12.1900   19.4790   34.8610 C.3       9 GLL5        0.0000 
     53 CA         10.9060   18.9540   31.4880 C.3       6 GLP5        0.0000 
     54 CA         11.0160   18.1135   35.7020 C.3       3 GLC5        0.0000 
     55 CA          9.8420   16.7480   36.5430 C.3       6 GLP5        0.0000 
     56 CA          8.4695   29.1265   34.2465 C.3       3 GLC5        0.0000 
     57 CA         10.3050   28.4320   35.2580 C.3       9 GLL5        0.0000 
     58 CA          6.6340   29.8210   33.2350 C.3       6 GLP5        0.0000 
     59 CA          9.6460   29.8500   36.1175 C.3       3 GLC5        0.0000 
     60 CA          8.9870   31.2680   36.9770 C.3       6 GLP5        0.0000 
     61 CA          7.7120   27.2605   36.5120 C.3       3 GLC5        0.0000 
     62 CA          9.1060   26.3350   35.0660 C.3       9 GLL5        0.0000 
     63 CA          6.3180   28.1860   37.9580 C.3       6 GLP5        0.0000 
     64 N          13.2910   16.2010   37.1105 N.am      2 SEC2        0.0000 
     65 N          13.2390   17.4470   36.4160 N.am      8 SEL2        0.0000 
     66 N          13.3430   14.9550   37.8050 N.am      5 SEP2        0.0000 
     67 O          11.9875   17.1120   35.9285 O.2       1 ALC1        0.0000 
     68 O          13.2390   17.4470   36.4160 O.2       7 ALL1        0.0000 
     69 O          10.7360   16.7770   35.4410 O.2       4 ALP1        0.0000 
     70 CA          2.7530   27.7330   32.4465 C.3       3 GLC5        0.0000 
     71 CA          3.7620   25.9120   32.7660 C.3       9 GLL5        0.0000 
     72 CA          1.7440   29.5540   32.1270 C.3       6 GLP5        0.0000 
     73 N           4.9765   28.1655   34.5115 N.am      2 SEC2        0.0000 
     74 N           4.2700   26.9800   34.9160 N.am      8 SEL2        0.0000 
     75 N           5.6830   29.3510   34.1070 N.am      5 SEP2        0.0000 
     76 N           4.7995   27.1345   36.2725 N.am      2 SEC2        0.0000 
     77 N           5.3290   27.2890   37.6290 N.am      5 SEP2        0.0000 
     78 CA          4.0610   22.9160   31.2895 C.3       3 GLC5        0.0000 
     79 CA          3.8770   24.5700   31.8820 C.3       9 GLL5        0.0000 
     80 CA          4.2450   21.2620   30.6970 C.3       6 GLP5        0.0000 
     81 CA          6.1630   24.4975   37.6725 C.3       3 GLC5        0.0000 
     82 CA          4.4970   24.4640   36.2880 C.3       9 GLL5        0.0000 
     83 CA          7.8290   24.5310   39.0570 C.3       6 GLP5        0.0000 
     84 CA          5.4075   26.3250   37.1230 C.3       3 GLC5        0.0000 
     85 CA         14.8747   16.4038   32.3825 C.3       3 GLC5        0.0000 
     86 CA         16.5983   18.3195   31.6992 C.3       3 GLC5        0.0000 
     87 CA         17.5610   18.4470   30.0520 C.3       6 GLP5        0.0000 
     88 CA         13.2365   20.2360   32.2690 C.3       3 GLC5        0.0000 
     89 CA         14.5310   19.7870   33.7580 C.3       9 GLL5        0.0000 
     90 CA         11.7990   20.0310   30.8910 C.3       6 GLP5        0.0000 
     91 CA         15.4560   20.9690   35.2205 C.3       3 GLC5        0.0000 
     92 CA         16.3717   22.4395   33.8845 C.3       3 GLC5        0.0000 
     93 CA         14.8170   21.0950   33.5360 C.3       9 GLL5        0.0000 
     94 CA         18.2300   23.2000   33.9090 C.3       6 GLP5        0.0000 
     95 CA         15.1720   22.1840   35.3555 C.3       3 GLC5        0.0000 
     96 CA         14.2100   22.2630   34.1840 C.3       9 GLL5        0.0000 
     97 CA         14.5935   24.4217   30.0817 C.3       3 GLC5        0.0000 
     98 CA         15.4320   24.5570   28.3370 C.3       6 GLP5        0.0000 
     99 CA         11.9780   20.2705   36.3352 C.3       3 GLC5        0.0000 
    100 CA         11.1020   21.2280   37.8750 C.3       6 GLP5        0.0000 
    101 CA         12.7720   27.0467   31.2565 C.3       3 GLC5        0.0000 
    102 CA         12.8030   28.9870   30.6130 C.3       6 GLP5        0.0000 
    103 CA         11.7242   23.0412   37.0087 C.3       3 GLC5        0.0000 
    104 CA         11.7910   25.3720   36.2800 C.3       9 GLL5        0.0000 
    105 CA         12.4848   25.2043   38.2163 C.3       3 GLC5        0.0000 
    106 CA         12.6230   25.5540   40.2900 C.3       6 GLP5        0.0000 
    107 CA         12.8857   27.2582   35.9483 C.3       3 GLC5        0.0000 
    108 CA         14.0350   28.7610   36.3040 C.3       6 GLP5        0.0000 
    109 CA         10.5485   28.8570   33.3065 C.3       3 GLC5        0.0000 
    110 CA         10.3610   27.0000   34.6620 C.3       9 GLL5        0.0000 
    111 CA         10.7640   29.9980   31.6530 C.3       6 GLP5        0.0000 
    112 CA         12.1840   28.2385   35.6320 C.3       3 GLC5        0.0000 
    113 CA          7.6218   23.8740   34.2240 C.3       3 GLC5        0.0000 
    114 CA          8.2460   26.2570   34.0580 C.3       9 GLL5        0.0000 
    115 CA          6.6999   27.8960   33.5743 C.3       3 GLC5        0.0000 
    116 CA          5.9140   25.9990   33.6430 C.3       9 GLL5        0.0000 
    117 CA          5.1405   22.7220   35.7867 C.3       3 GLC5        0.0000 
    118 CA          3.9690   24.5980   34.8750 C.3       9 GLL5        0.0000 
    119 CA          6.0480   20.9130   35.9920 C.3       6 GLP5        0.0000 
    120 CA          2.5230   23.3660   35.4592 C.3       3 GLC5        0.0000 
    121 CA          0.8130   22.2010   35.3370 C.3       6 GLP5        0.0000 
    122 CA          3.7640   23.6120   37.1178 C.3       3 GLC5        0.0000 
    123 CA          3.2950   22.6930   38.6540 C.3       6 GLP5        0.0000 
    124 CA          3.2982   25.8150   30.8920 C.3       3 GLC5        0.0000 
    125 CA          2.7770   26.3890   29.4600 C.3       6 GLP5        0.0000 
    126 CA          2.0777   24.7000   31.8860 C.3       3 GLC5        0.0000 
    127 CA          0.3360   24.1590   31.4480 C.3       6 GLP5        0.0000 
@<TRIPOS>BOND
@<TRIPOS>SUBSTRUCTURE
     1 ALC1        4 GROUP        1 X    ALC  0     ROOT ALC X 1
     2 SEC2        1 GROUP        1 X    SEC  0     **** SEC X 2
     3 GLC5        7 GROUP        1 X    GLC  0     **** GLC X 6
     4 ALP1        6 GROUP        1 Y    ALP  0     ROOT ALP Y 8
     5 SEP2        3 GROUP        1 Y    SEP  0     **** SEP Y 9
     6 GLP5        9 GROUP        1 Y    GLP  0     **** GLP Y 13
     7 ALL1        5 GROUP        1 Z    ALL  0     ROOT ALL Z 15
     8 SEL2        2 GROUP        1 Z    SEL  0     **** SEL Z 16
     9 GLL5        8 GROUP        1 Z    GLL  0     **** GLL Z 20
@<TRIPOS>SET

