#    Name: 1s0z_EB1_1_ligand
#    Modification time : Tue Mar 25 01:42:30 2014

@<TRIPOS>MOLECULE
1s0z_EB1_1_ligand
   77    79     1     0     0
SMALL
NO_CHARGES


@<TRIPOS>ATOM
      1 O2         16.9910   18.1040   34.5460 O.3       1 EB1510      0.0000 
      2 C1         14.1730   18.0340   35.5540 C.3       1 EB1510      0.0000 
      3 C2         14.8860   16.9180   34.7320 C.3       1 EB1510      0.0000 
      4 C3         15.9250   17.5950   33.7620 C.3       1 EB1510      0.0000 
      5 C4         15.3460   18.7890   32.9310 C.3       1 EB1510      0.0000 
      6 C5         14.5310   19.7870   33.7580 C.2       1 EB1510      0.0000 
      7 C6         14.8170   21.0950   33.5360 C.2       1 EB1510      0.0000 
      8 C7         14.2100   22.2630   34.1840 C.2       1 EB1510      0.0000 
      9 C8         14.0020   23.4790   33.6500 C.2       1 EB1510      0.0000 
     10 C9         14.3530   23.9540   32.1960 C.3       1 EB1510      0.0000 
     11 C10        13.5180   19.1470   34.7300 C.2       1 EB1510      0.0000 
     12 C11        13.1570   24.6190   31.4570 C.3       1 EB1510      0.0000 
     13 C12        12.3250   25.5940   32.3430 C.3       1 EB1510      0.0000 
     14 C13        12.0310   25.0920   33.7940 C.3       1 EB1510      0.0000 
     15 C14        13.3440   24.5760   34.4970 C.3       1 EB1510      0.0000 
     16 C15        12.9020   24.3370   36.0050 C.3       1 EB1510      0.0000 
     17 C16        11.7910   25.3720   36.2800 C.3       1 EB1510      0.0000 
     18 C17        11.6820   26.1390   34.9050 C.3       1 EB1510      0.0000 
     19 C18        10.9630   23.9330   33.6220 C.3       1 EB1510      0.0000 
     20 C19        12.1900   19.4790   34.8610 C.2       1 EB1510      0.0000 
     21 C20        10.3610   27.0000   34.6620 C.3       1 EB1510      0.0000 
     22 C21        10.3050   28.4320   35.2580 C.3       1 EB1510      0.0000 
     23 C22         9.1060   26.3350   35.0660 C.2       1 EB1510      0.0000 
     24 C23         8.2460   26.2570   34.0580 C.2       1 EB1510      0.0000 
     25 C24         6.9890   25.6290   34.3100 C.2       1 EB1510      0.0000 
     26 C25         5.9140   25.9990   33.6430 C.2       1 EB1510      0.0000 
     27 C27         4.4960   25.8450   34.0820 C.3       1 EB1510      0.0000 
     28 O1         13.2390   17.4470   36.4160 O.3       1 EB1510      0.0000 
     29 C26         3.9690   24.5980   34.8750 C.3       1 EB1510      0.0000 
     30 C28         3.7620   25.9120   32.7660 C.3       1 EB1510      0.0000 
     31 O3          4.2700   26.9800   34.9160 O.3       1 EB1510      0.0000 
     32 C30         3.8770   24.5700   31.8820 C.3       1 EB1510      0.0000 
     33 C31         4.4970   24.4640   36.2880 C.3       1 EB1510      0.0000 
     34 H          14.9756   18.5167   36.1650 H         1 EB1510      0.0000 
     35 H          14.1620   16.3881   34.1473 H         1 EB1510      0.0000 
     36 H          15.4107   16.2643   35.3985 H         1 EB1510      0.0000 
     37 H          16.2748   16.8468   33.0737 H         1 EB1510      0.0000 
     38 H          14.7156   18.3747   32.1327 H         1 EB1510      0.0000 
     39 H          16.1860   19.3104   32.4526 H         1 EB1510      0.0000 
     40 H          15.5693   21.3465   32.8091 H         1 EB1510      0.0000 
     41 H          13.9120   22.0791   35.2041 H         1 EB1510      0.0000 
     42 H          14.6895   23.0880   31.6210 H         1 EB1510      0.0000 
     43 H          15.1768   24.6692   32.2553 H         1 EB1510      0.0000 
     44 H          12.4919   23.8315   31.0825 H         1 EB1510      0.0000 
     45 H          13.5409   25.1727   30.5917 H         1 EB1510      0.0000 
     46 H          11.3646   25.7922   31.8418 H         1 EB1510      0.0000 
     47 H          12.8608   26.5540   32.4085 H         1 EB1510      0.0000 
     48 H          13.9992   25.4790   34.5092 H         1 EB1510      0.0000 
     49 H          13.7365   24.5197   36.6306 H         1 EB1510      0.0000 
     50 H          12.5166   23.3543   36.0884 H         1 EB1510      0.0000 
     51 H          12.0998   26.0477   37.0205 H         1 EB1510      0.0000 
     52 H          10.8809   24.8858   36.4690 H         1 EB1510      0.0000 
     53 H          12.5496   26.8591   34.9071 H         1 EB1510      0.0000 
     54 H          10.2898   27.1488   33.5385 H         1 EB1510      0.0000 
     55 H           9.0003   26.0212   35.9772 H         1 EB1510      0.0000 
     56 H           8.4302   26.6160   33.1248 H         1 EB1510      0.0000 
     57 H           6.9722   24.8829   35.0311 H         1 EB1510      0.0000 
     58 H           5.9975   26.4648   32.6790 H         1 EB1510      0.0000 
     59 H           4.2298   23.6964   34.2920 H         1 EB1510      0.0000 
     60 H           2.8657   24.6549   34.8926 H         1 EB1510      0.0000 
     61 H           4.1495   26.7302   32.1472 H         1 EB1510      0.0000 
     62 H           2.6923   26.0914   32.9274 H         1 EB1510      0.0000 
     63 H          11.3114   23.1884   33.0526 H         1 EB1510      0.0000 
     64 H          10.7040   23.5331   34.5012 H         1 EB1510      0.0000 
     65 H          10.1230   24.2629   33.1913 H         1 EB1510      0.0000 
     66 H          10.4027   28.4242   36.2532 H         1 EB1510      0.0000 
     67 H          11.0338   29.0135   34.8965 H         1 EB1510      0.0000 
     68 H           9.4383   28.8863   35.0521 H         1 EB1510      0.0000 
     69 H           4.8266   24.3570   31.6520 H         1 EB1510      0.0000 
     70 H           3.5067   23.7754   32.3632 H         1 EB1510      0.0000 
     71 H           3.3772   24.6495   31.0195 H         1 EB1510      0.0000 
     72 H           5.4939   24.3870   36.3062 H         1 EB1510      0.0000 
     73 H           4.2536   25.2532   36.8518 H         1 EB1510      0.0000 
     74 H           4.1320   23.6532   36.7455 H         1 EB1510      0.0000 
     75 H          17.4609   18.7564   33.9514 H         1 EB1510      0.0000 
     76 H          12.4307   17.2849   35.8500 H         1 EB1510      0.0000 
     77 H           3.4690   27.5253   35.1636 H         1 EB1510      0.0000 
@<TRIPOS>BOND
     1    4    1 1    
     2   75    1 1    
     3    3    2 1    
     4   11    2 1    
     5   28    2 1    
     6   34    2 1    
     7    4    3 1    
     8   35    3 1    
     9   36    3 1    
    10    5    4 1    
    11   37    4 1    
    12    6    5 1    
    13   38    5 1    
    14   39    5 1    
    15    7    6 2    
    16   11    6 1    
    17    8    7 1    
    18   40    7 1    
    19    9    8 2    
    20   41    8 1    
    21   10    9 1    
    22   15    9 1    
    23   12   10 1    
    24   42   10 1    
    25   43   10 1    
    26   20   11 2    
    27   13   12 1    
    28   44   12 1    
    29   45   12 1    
    30   14   13 1    
    31   46   13 1    
    32   47   13 1    
    33   15   14 1    
    34   18   14 1    
    35   19   14 1    
    36   16   15 1    
    37   48   15 1    
    38   17   16 1    
    39   49   16 1    
    40   50   16 1    
    41   18   17 1    
    42   51   17 1    
    43   52   17 1    
    44   21   18 1    
    45   53   18 1    
    46   63   19 1    
    47   64   19 1    
    48   65   19 1    
    49   22   21 1    
    50   23   21 1    
    51   54   21 1    
    52   66   22 1    
    53   67   22 1    
    54   68   22 1    
    55   24   23 2    
    56   55   23 1    
    57   25   24 1    
    58   56   24 1    
    59   26   25 2    
    60   57   25 1    
    61   27   26 1    
    62   58   26 1    
    63   29   27 1    
    64   30   27 1    
    65   31   27 1    
    66   76   28 1    
    67   33   29 1    
    68   59   29 1    
    69   60   29 1    
    70   32   30 1    
    71   61   30 1    
    72   62   30 1    
    73   77   31 1    
    74   69   32 1    
    75   70   32 1    
    76   71   32 1    
    77   72   33 1    
    78   73   33 1    
    79   74   33 1    
@<TRIPOS>SUBSTRUCTURE
     1 EB1510      1 GROUP   
@<TRIPOS>SET

