#    Name: 4hmb_PZZ_1_INTS_M
#    Modification time : Tue Mar 25 01:12:29 2014

@<TRIPOS>MOLECULE
4hmb_PZZ_1_INTS_M
   39     0     6     0     0
SMALL
NO_CHARGES


@<TRIPOS>ATOM
      1 CA         19.8590    3.1060    6.9440 C.3       2 GLC5        0.0000 
      2 CA         20.6800    5.0330    6.4840 C.3       6 GLL5        0.0000 
      3 CA         19.0380    1.1790    7.4040 C.3       4 GLP5        0.0000 
      4 CA         20.1125    3.9780    3.9945 C.3       2 GLC5        0.0000 
      5 CA         21.1600    5.2910    5.1880 C.3       6 GLL5        0.0000 
      6 CA         19.0650    2.6650    2.8010 C.3       4 GLP5        0.0000 
      7 CA         19.9340    7.0275    7.4480 C.3       2 GLC5        0.0000 
      8 CA         21.4280    5.4680    7.5800 C.3       6 GLL5        0.0000 
      9 CA         18.4400    8.5870    7.3160 C.3       4 GLP5        0.0000 
     10 CA         19.0560    3.1595    9.1325 C.3       2 GLC5        0.0000 
     11 CA         20.0450    4.7080    9.7710 C.3       6 GLL5        0.0000 
     12 CA         18.0670    1.6110    8.4940 C.3       4 GLP5        0.0000 
     13 CA         19.4185    8.1045    9.7860 C.3       2 GLC5        0.0000 
     14 CA         19.8020    6.7310   11.1920 C.3       6 GLL5        0.0000 
     15 CA         19.0350    9.4780    8.3800 C.3       4 GLP5        0.0000 
     16 CA         18.2215    3.2240   10.0190 C.3       2 GLC5        0.0000 
     17 CA         18.3760    4.8370   11.5440 C.3       6 GLL5        0.0000 
     18 CA         26.9790    5.6540    4.6620 C.3       2 GLC5        0.0000 
     19 CA         25.3410    6.7540    4.4680 C.3       6 GLL5        0.0000 
     20 CA         28.6170    4.5540    4.8560 C.3       4 GLP5        0.0000 
     21 CA         25.8215    9.6160    2.3670 C.3       2 GLC5        0.0000 
     22 CA         25.7810    7.8630    3.4740 C.3       6 GLL5        0.0000 
     23 CA         25.8620   11.3690    1.2600 C.3       4 GLP5        0.0000 
     24 O          26.1525    9.8805    3.1440 O.2       1 ALC1        0.0000 
     25 O          26.9390    8.7050    3.8020 O.2       5 ALL1        0.0000 
     26 O          25.3660   11.0560    2.4860 O.2       3 ALP1        0.0000 
     27 CA         22.0440    3.4002    7.1995 C.3       2 GLC5        0.0000 
     28 CA         23.0340    1.5500    7.3670 C.3       4 GLP5        0.0000 
     29 CA         20.3945    7.2185    5.6967 C.3       2 GLC5        0.0000 
     30 CA         19.1480    8.8650    6.0050 C.3       4 GLP5        0.0000 
     31 CA         24.7290    5.6365    7.3460 C.3       2 GLC5        0.0000 
     32 CA         23.1880    6.4690    5.9710 C.3       6 GLL5        0.0000 
     33 CA         26.5100    4.9300    8.0130 C.3       4 GLP5        0.0000 
     34 CA         25.7130    5.9620    6.5407 C.3       2 GLC5        0.0000 
     35 CA         24.4910    7.2340    5.6690 C.3       6 GLL5        0.0000 
     36 CA         23.9035    7.8763    2.9460 C.3       2 GLC5        0.0000 
     37 CA         22.2460    8.4440    1.9210 C.3       4 GLP5        0.0000 
     38 CA         27.0150    6.3848    2.8110 C.3       2 GLC5        0.0000 
     39 CA         28.4690    5.4610    1.6510 C.3       4 GLP5        0.0000 
@<TRIPOS>BOND
@<TRIPOS>SUBSTRUCTURE
     1 ALC1       24 GROUP        1 X    ALC  0     ROOT ALC X 1
     2 GLC5        1 GROUP        1 X    GLC  0     **** GLC X 6
     3 ALP1       26 GROUP        1 Y    ALP  0     ROOT ALP Y 8
     4 GLP5        3 GROUP        1 Y    GLP  0     **** GLP Y 13
     5 ALL1       25 GROUP        1 Z    ALL  0     ROOT ALL Z 15
     6 GLL5        2 GROUP        1 Z    GLL  0     **** GLL Z 20
@<TRIPOS>SET

