#    Name: 4hmb_PZZ_1_ligand
#    Modification time : Tue Mar 25 01:12:30 2014

@<TRIPOS>MOLECULE
4hmb_PZZ_1_ligand
   38    39     1     0     0
SMALL
NO_CHARGES


@<TRIPOS>ATOM
      1 C2         22.3150    6.0240    9.6140 C.2       1 PZZ201      0.0000 
      2 C3         21.2150    5.3640    9.0530 C.2       1 PZZ201      0.0000 
      3 N1         23.1490    6.5040    8.6360 N.pl3     1 PZZ201      0.0000 
      4 C4         20.6800    5.0330    6.4840 C.ar      1 PZZ201      0.0000 
      5 C5         21.1600    5.2910    5.1880 C.ar      1 PZZ201      0.0000 
      6 C6         22.3620    5.9820    4.9410 C.ar      1 PZZ201      0.0000 
      7 C7         23.1880    6.4690    5.9710 C.ar      1 PZZ201      0.0000 
      8 C8         21.4280    5.4680    7.5800 C.ar      1 PZZ201      0.0000 
      9 C9         22.7080    6.2170    7.3870 C.ar      1 PZZ201      0.0000 
     10 C10        20.0450    4.7080    9.7710 C.3       1 PZZ201      0.0000 
     11 N11        19.7420    5.2460   11.1320 N.4       1 PZZ201      0.0000 
     12 C12        19.8020    6.7310   11.1920 C.3       1 PZZ201      0.0000 
     13 C13        18.3760    4.8370   11.5440 C.3       1 PZZ201      0.0000 
     14 C14        24.4910    7.2340    5.6690 C.3       1 PZZ201      0.0000 
     15 C15        25.3410    6.7540    4.4680 C.3       1 PZZ201      0.0000 
     16 C16        25.7810    7.8630    3.4740 C.3       1 PZZ201      0.0000 
     17 O17        26.9390    8.7050    3.8020 O.3       1 PZZ201      0.0000 
     18 H          22.4546    6.1206   10.5669 H         1 PZZ201      0.0000 
     19 H          23.9787    7.0035    8.8302 H         1 PZZ201      0.0000 
     20 H          19.8018    4.5373    6.6166 H         1 PZZ201      0.0000 
     21 H          20.6018    4.9561    4.3725 H         1 PZZ201      0.0000 
     22 H          22.6522    6.1394    3.9518 H         1 PZZ201      0.0000 
     23 H          20.2459    3.6150    9.8419 H         1 PZZ201      0.0000 
     24 H          19.1416    4.8020    9.1268 H         1 PZZ201      0.0000 
     25 H          20.4494    4.8359   11.8465 H         1 PZZ201      0.0000 
     26 H          25.1327    7.2130    6.5808 H         1 PZZ201      0.0000 
     27 H          24.2412    8.3094    5.5117 H         1 PZZ201      0.0000 
     28 H          24.7675    5.9920    3.9108 H         1 PZZ201      0.0000 
     29 H          26.2455    6.2506    4.8535 H         1 PZZ201      0.0000 
     30 H          24.8733    8.5120    3.2894 H         1 PZZ201      0.0000 
     31 H          25.9432    7.3577    2.4752 H         1 PZZ201      0.0000 
     32 H          20.7088    7.0761   10.9499 H         1 PZZ201      0.0000 
     33 H          19.1497    7.1547   10.5636 H         1 PZZ201      0.0000 
     34 H          19.5925    7.0745   12.1075 H         1 PZZ201      0.0000 
     35 H          18.2791    3.8421   11.5729 H         1 PZZ201      0.0000 
     36 H          18.1440    5.1807   12.4540 H         1 PZZ201      0.0000 
     37 H          17.6795    5.1812   10.9144 H         1 PZZ201      0.0000 
     38 H          26.7167    9.6066    3.4309 H         1 PZZ201      0.0000 
@<TRIPOS>BOND
     1    2    1 2    
     2    3    1 1    
     3   18    1 1    
     4    8    2 1    
     5   10    2 1    
     6    9    3 1    
     7   19    3 1    
     8    5    4 ar   
     9    8    4 ar   
    10   20    4 1    
    11    6    5 ar   
    12   21    5 1    
    13    7    6 ar   
    14   22    6 1    
    15    9    7 ar   
    16   14    7 1    
    17    9    8 ar   
    18   11   10 1    
    19   23   10 1    
    20   24   10 1    
    21   12   11 1    
    22   13   11 1    
    23   25   11 1    
    24   32   12 1    
    25   33   12 1    
    26   34   12 1    
    27   35   13 1    
    28   36   13 1    
    29   37   13 1    
    30   15   14 1    
    31   26   14 1    
    32   27   14 1    
    33   16   15 1    
    34   28   15 1    
    35   29   15 1    
    36   17   16 1    
    37   30   16 1    
    38   31   16 1    
    39   38   17 1    
@<TRIPOS>SUBSTRUCTURE
     1 PZZ201      1 GROUP   
@<TRIPOS>SET

