#    Name: 3eq1_DPM_2_INTS_M
#    Modification time : Tue Mar 25 02:20:07 2014

@<TRIPOS>MOLECULE
3eq1_DPM_2_INTS_M
   79     0     9     0     0
SMALL
NO_CHARGES


@<TRIPOS>ATOM
      1 CA         -0.9030   13.8835   38.9855 C.3       3 GLC5        0.0000 
      2 CA         -0.5500   15.2100   37.2200 C.3       9 GLL5        0.0000 
      3 CA         -1.2560   12.5570   40.7510 C.3       6 GLP5        0.0000 
      4 CA         -3.1285   15.9510   35.2760 C.3       3 GLC5        0.0000 
      5 CA         -2.0090   15.6660   37.0880 C.3       9 GLL5        0.0000 
      6 CA         -4.2480   16.2360   33.4640 C.3       6 GLP5        0.0000 
      7 CA          1.0500   16.3905   40.1700 C.3       3 GLC5        0.0000 
      8 CA         -0.4110   15.2490   39.7990 C.3       9 GLL5        0.0000 
      9 CA          2.5110   17.5320   40.5410 C.3       6 GLP5        0.0000 
     10 CA         -0.8335   13.9030   40.2750 C.3       3 GLC5        0.0000 
     11 NZ          0.2570   18.0075   36.8565 N.4       2 LYC4        0.0000 
     12 NZ         -1.0340   17.8100   36.8190 N.4       8 LYL4        0.0000 
     13 NZ          1.5480   18.2050   36.8940 N.4       5 LYP4        0.0000 
     14 NZ         -1.5765   18.9955   36.2690 N.4       2 LYC4        0.0000 
     15 NZ         -3.0470   20.8620   36.3690 N.4       5 LYP4        0.0000 
     16 N           0.2570   18.0075   36.8565 N.am      1 SEC2        0.0000 
     17 N          -1.0340   17.8100   36.8190 N.am      7 SEL2        0.0000 
     18 N           1.5480   18.2050   36.8940 N.am      4 SEP2        0.0000 
     19 N          -1.5765   18.9955   36.2690 N.am      1 SEC2        0.0000 
     20 N          -2.1190   20.1810   35.7190 N.am      4 SEP2        0.0000 
     21 NZ         -2.6855   18.9260   36.3495 N.4       2 LYC4        0.0000 
     22 NZ         -3.2520   17.6710   36.9800 N.4       8 LYL4        0.0000 
     23 N          -3.9595   17.4475   35.6840 N.am      1 SEC2        0.0000 
     24 N          -3.2520   17.6710   36.9800 N.am      7 SEL2        0.0000 
     25 N          -4.6670   17.2240   34.3880 N.am      4 SEP2        0.0000 
     26 N          -3.5330   18.9585   37.1210 N.am      1 SEC2        0.0000 
     27 N          -3.8140   20.2460   37.2620 N.am      4 SEP2        0.0000 
     28 N          -2.6855   18.9260   36.3495 N.am      1 SEC2        0.0000 
     29 NZ          0.6605   13.3735   30.5535 N.4       2 LYC4        0.0000 
     30 NZ          0.4840   14.2840   31.8620 N.4       8 LYL4        0.0000 
     31 NZ          0.8370   12.4630   29.2450 N.4       5 LYP4        0.0000 
     32 NZ         -0.5660   12.6300   31.1895 N.4       2 LYC4        0.0000 
     33 NZ         -1.6130   13.5950   32.1340 N.4       8 LYL4        0.0000 
     34 N          -2.7730   13.5030   30.9880 N.am      1 SEC2        0.0000 
     35 N          -1.6130   13.5950   32.1340 N.am      7 SEL2        0.0000 
     36 N          -3.9330   13.4110   29.8420 N.am      4 SEP2        0.0000 
     37 N          -0.5660   12.6300   31.1895 N.am      1 SEC2        0.0000 
     38 N           0.4810   11.6650   30.2450 N.am      4 SEP2        0.0000 
     39 CA          6.2890   16.3300   39.0805 C.3       3 GLC5        0.0000 
     40 CA          5.3830   16.2820   37.4450 C.3       9 GLL5        0.0000 
     41 CA          7.1950   16.3780   40.7160 C.3       6 GLP5        0.0000 
     42 CA          8.1330   16.5580   34.8235 C.3       3 GLC5        0.0000 
     43 CA          6.4110   17.7340   35.6160 C.3       9 GLL5        0.0000 
     44 CA          9.8550   15.3820   34.0310 C.3       6 GLP5        0.0000 
     45 CA          7.0985   21.1230   36.0175 C.3       3 GLC5        0.0000 
     46 CA          6.1560   19.1110   36.2420 C.3       9 GLL5        0.0000 
     47 CA          8.0410   23.1350   35.7930 C.3       6 GLP5        0.0000 
     48 N           4.8640   14.4190   38.7190 N.am      1 SEC2        0.0000 
     49 N           4.4540   15.3330   37.5600 N.am      7 SEL2        0.0000 
     50 N           5.2740   13.5050   39.8780 N.am      4 SEP2        0.0000 
     51 N           3.3130   18.9775   32.0000 N.am      1 SEC2        0.0000 
     52 N           3.3780   17.5470   32.3700 N.am      7 SEL2        0.0000 
     53 N           3.2480   20.4080   31.6300 N.am      4 SEP2        0.0000 
     54 NZ          2.1460   17.9765   35.6910 N.4       2 LYC4        0.0000 
     55 NZ          2.7440   17.7480   34.4880 N.4       8 LYL4        0.0000 
     56 NZ          1.7135   18.7925   33.9995 N.4       2 LYC4        0.0000 
     57 NZ         -0.3890   19.2370   33.0200 N.4       5 LYP4        0.0000 
     58 N           2.1460   17.9765   35.6910 N.am      1 SEC2        0.0000 
     59 N           2.7440   17.7480   34.4880 N.am      7 SEL2        0.0000 
     60 N           1.7135   18.7925   33.9995 N.am      1 SEC2        0.0000 
     61 N           0.6830   19.8370   33.5110 N.am      4 SEP2        0.0000 
     62 N           5.5690   21.1855   38.9895 N.am      1 SEC2        0.0000 
     63 N           5.6090   19.8660   38.4320 N.am      7 SEL2        0.0000 
     64 N           5.5290   22.5050   39.5470 N.am      4 SEP2        0.0000 
     65 N           7.7155   17.3500   38.9470 N.am      1 SEC2        0.0000 
     66 N           7.2970   18.4250   38.2350 N.am      7 SEL2        0.0000 
     67 N           8.1340   16.2750   39.6590 N.am      4 SEP2        0.0000 
     68 N           8.6785   19.0510   37.7140 N.am      1 SEC2        0.0000 
     69 N          10.0600   19.6770   37.1930 N.am      4 SEP2        0.0000 
     70 CA          1.0243   16.2773   37.3788 C.3       3 GLC5        0.0000 
     71 CA          0.3270   14.8830   36.1970 C.3       9 GLL5        0.0000 
     72 CA          2.1600   17.5080   38.0490 C.3       6 GLP5        0.0000 
     73 CA          2.1675   15.9030   37.2430 C.3       3 GLC5        0.0000 
     74 CA          1.5330   14.5180   36.8000 C.3       9 GLL5        0.0000 
     75 CA          3.6757   16.8990   37.3390 C.3       3 GLC5        0.0000 
     76 CA          5.1842   19.5983   34.9125 C.3       3 GLC5        0.0000 
     77 CA          4.0850   20.7740   33.8960 C.3       6 GLP5        0.0000 
     78 CA          7.5922   19.1227   34.3825 C.3       3 GLC5        0.0000 
     79 CA          8.9010   19.8230   32.8360 C.3       6 GLP5        0.0000 
@<TRIPOS>BOND
@<TRIPOS>SUBSTRUCTURE
     1 SEC2       16 GROUP        1 X    SEC  0     ROOT SEC X 2
     2 LYC4       11 GROUP        1 X    LYC  0     **** LYC X 4
     3 GLC5        1 GROUP        1 X    GLC  0     **** GLC X 6
     4 SEP2       18 GROUP        1 Y    SEP  0     ROOT SEP Y 9
     5 LYP4       13 GROUP        1 Y    LYP  0     **** LYP Y 11
     6 GLP5        3 GROUP        1 Y    GLP  0     **** GLP Y 13
     7 SEL2       17 GROUP        1 Z    SEL  0     ROOT SEL Z 16
     8 LYL4       12 GROUP        1 Z    LYL  0     **** LYL Z 18
     9 GLL5        2 GROUP        1 Z    GLL  0     **** GLL Z 20
@<TRIPOS>SET

