#    Name: 3eq1_DPM_2_ligand
#    Modification time : Tue Mar 25 02:20:07 2014

@<TRIPOS>MOLECULE
3eq1_DPM_2_ligand
   50    51     1     0     0
SMALL
NO_CHARGES


@<TRIPOS>ATOM
      1 C1A         0.1570   15.0160   38.3930 C.2       1 DPM401      0.0000 
      2 C2A        -0.5500   15.2100   37.2200 C.2       1 DPM401      0.0000 
      3 C3A         0.3270   14.8830   36.1970 C.2       1 DPM401      0.0000 
      4 C4A         1.5330   14.5180   36.8000 C.3       1 DPM401      0.0000 
      5 C5A        -2.0090   15.6660   37.0880 C.3       1 DPM401      0.0000 
      6 C6A        -2.1040   17.1790   36.9500 C.2       1 DPM401      0.0000 
      7 C7A         0.0240   14.9500   34.6970 C.3       1 DPM401      0.0000 
      8 C8A        -0.1770   13.5930   34.0330 C.3       1 DPM401      0.0000 
      9 C9A        -0.4590   13.8350   32.5480 C.2       1 DPM401      0.0000 
     10 CHA        -0.4110   15.2490   39.7990 C.3       1 DPM401      0.0000 
     11 NA          1.3930   14.6060   38.1250 N.2       1 DPM401      0.0000 
     12 O1A        -1.0340   17.8100   36.8190 O.co2     1 DPM401      0.0000 
     13 O2A        -3.2520   17.6710   36.9800 O.co2     1 DPM401      0.0000 
     14 O3A         0.4840   14.2840   31.8620 O.co2     1 DPM401      0.0000 
     15 O4A        -1.6130   13.5950   32.1340 O.co2     1 DPM401      0.0000 
     16 C1B         3.9170   15.0900   36.3680 C.2       1 DPM401      0.0000 
     17 C2B         4.5340   15.9280   35.4530 C.2       1 DPM401      0.0000 
     18 C3B         5.4660   16.6680   36.1730 C.2       1 DPM401      0.0000 
     19 C4B         5.3830   16.2820   37.4450 C.3       1 DPM401      0.0000 
     20 C5B         4.2530   15.9930   33.9410 C.3       1 DPM401      0.0000 
     21 C6B         3.3850   17.2010   33.5700 C.2       1 DPM401      0.0000 
     22 C7B         6.4110   17.7340   35.6160 C.3       1 DPM401      0.0000 
     23 C8B         6.1560   19.1110   36.2420 C.3       1 DPM401      0.0000 
     24 C9B         6.3690   19.1270   37.7680 C.2       1 DPM401      0.0000 
     25 CHB         2.8170   14.0780   36.0740 C.3       1 DPM401      0.0000 
     26 NB          4.4540   15.3330   37.5600 N.2       1 DPM401      0.0000 
     27 O1B         3.3780   17.5470   32.3700 O.co2     1 DPM401      0.0000 
     28 O2B         2.7440   17.7480   34.4880 O.co2     1 DPM401      0.0000 
     29 O3B         5.6090   19.8660   38.4320 O.co2     1 DPM401      0.0000 
     30 O4B         7.2970   18.4250   38.2350 O.co2     1 DPM401      0.0000 
     31 H           1.9631   15.8965   36.7525 H         1 DPM401      0.0000 
     32 H          -2.5617   15.3465   37.9721 H         1 DPM401      0.0000 
     33 H          -2.4504   15.1928   36.2103 H         1 DPM401      0.0000 
     34 H           0.8516   15.4787   34.1917 H         1 DPM401      0.0000 
     35 H          -0.8826   15.5624   34.5457 H         1 DPM401      0.0000 
     36 H          -1.0184   13.0920   34.4797 H         1 DPM401      0.0000 
     37 H           0.7176   13.0033   34.1356 H         1 DPM401      0.0000 
     38 H           5.1506   17.1566   38.1178 H         1 DPM401      0.0000 
     39 H           6.3810   15.9163   37.8217 H         1 DPM401      0.0000 
     40 H           3.7433   15.0771   33.6353 H         1 DPM401      0.0000 
     41 H           5.2028   16.0554   33.4061 H         1 DPM401      0.0000 
     42 H           6.2758   17.8041   34.5338 H         1 DPM401      0.0000 
     43 H           7.4440   17.4380   35.8150 H         1 DPM401      0.0000 
     44 H           5.1265   19.4183   36.0254 H         1 DPM401      0.0000 
     45 H           6.8296   19.8438   35.7832 H         1 DPM401      0.0000 
     46 H           2.6280   14.0430   35.0120 H         1 DPM401      0.0000 
     47 H           3.1111   13.1044   36.4352 H         1 DPM401      0.0000 
     48 H           0.2644   15.0522   40.5097 H         1 DPM401      0.0000 
     49 H          -0.7053   16.1959   39.9284 H         1 DPM401      0.0000 
     50 H          -1.2046   14.6681   39.9799 H         1 DPM401      0.0000 
@<TRIPOS>BOND
     1    2    1 1    
     2   10    1 1    
     3   11    1 2    
     4    3    2 2    
     5    5    2 1    
     6    4    3 1    
     7    7    3 1    
     8   11    4 1    
     9   25    4 1    
    10   31    4 1    
    11    6    5 1    
    12   32    5 1    
    13   33    5 1    
    14   12    6 ar   
    15   13    6 ar   
    16    8    7 1    
    17   34    7 1    
    18   35    7 1    
    19    9    8 1    
    20   36    8 1    
    21   37    8 1    
    22   14    9 ar   
    23   15    9 ar   
    24   48   10 1    
    25   49   10 1    
    26   50   10 1    
    27   17   16 1    
    28   25   16 1    
    29   26   16 2    
    30   18   17 2    
    31   20   17 1    
    32   19   18 1    
    33   22   18 1    
    34   26   19 1    
    35   38   19 1    
    36   39   19 1    
    37   21   20 1    
    38   40   20 1    
    39   41   20 1    
    40   27   21 ar   
    41   28   21 ar   
    42   23   22 1    
    43   42   22 1    
    44   43   22 1    
    45   24   23 1    
    46   44   23 1    
    47   45   23 1    
    48   29   24 ar   
    49   30   24 ar   
    50   46   25 1    
    51   47   25 1    
@<TRIPOS>SUBSTRUCTURE
     1 DPM401      1 GROUP   
@<TRIPOS>SET

