#    Name: 3S6T_1_CAVITY_N1_6.mol2
#    Modification time : Mon Mar 10 23:00:49 2014

@<TRIPOS>MOLECULE
3S6T_1_CAVITY_N1_6.mol2
  110     0     6     0     0
SMALL
NO_CHARGES


@<TRIPOS>ATOM
      1 CZ         42.5295   -1.1901   12.1412 C.ar      4 PHE5        0.0000 
      2 CA         42.0003   -1.1943   13.5448 C.3       5 GLY6        0.0000 
      3 NZ         41.4712   -1.1984   14.9483 N.2       3 LYS4        0.0000 
      4 CZ         42.1702   -2.3462   10.3993 C.ar      4 PHE5        0.0000 
      5 CZ         41.6411   -2.3504   11.8028 C.ar      4 PHE5        0.0000 
      6 O          41.1119   -2.3545   13.2064 O.2       2 ALA2        0.0000 
      7 CZ         40.5827   -2.3587   14.6099 C.ar      4 PHE5        0.0000 
      8 NZ         41.2818   -3.5065   10.0609 N.2       3 LYS4        0.0000 
      9 OG         40.7527   -3.5106   11.4644 O.2       1 SER1        0.0000 
     10 CZ         40.2235   -3.5148   12.8680 C.ar      4 PHE5        0.0000 
     11 NZ         40.3934   -4.6667    9.7225 N.2       3 LYS4        0.0000 
     12 OG         39.8643   -4.6709   11.1261 O.2       1 SER1        0.0000 
     13 O          35.2913    2.2017    6.2163 O.2       2 ALA2        0.0000 
     14 CA         34.4029    1.0414    5.8779 C.3       5 GLY6        0.0000 
     15 N          36.9265    4.7151   13.2525 N.2       2 ALA2        0.0000 
     16 N          36.0381    3.5549   12.9141 N.2       2 ALA2        0.0000 
     17 CA         35.5089    3.5507   14.3177 C.3       5 GLY6        0.0000 
     18 O          37.2663    2.4113    6.9615 O.2       2 ALA2        0.0000 
     19 CA         36.2080    2.4029    9.7686 C.3       5 GLY6        0.0000 
     20 O          36.3779    1.2510    6.6231 O.2       2 ALA2        0.0000 
     21 CA         35.8488    1.2468    8.0267 C.3       5 GLY6        0.0000 
     22 CA         35.4895    0.0907    6.2847 C.3       5 GLY6        0.0000 
     23 CA         34.9604    0.0866    7.6883 C.3       5 GLY6        0.0000 
     24 CZ         38.9015    4.9247   13.9978 C.ar      4 PHE5        0.0000 
     25 N          40.6589    3.7853    6.6416 N.2       2 ALA2        0.0000 
     26 O          40.1298    3.7812    8.0451 O.2       2 ALA2        0.0000 
     27 NZ         38.5423    3.7687   12.2558 N.2       3 LYS4        0.0000 
     28 N          38.0131    3.7645   13.6594 N.2       2 ALA2        0.0000 
     29 CA         37.4840    3.7603   15.0629 C.3       5 GLY6        0.0000 
     30 N          39.7705    2.6251    6.3032 N.2       2 ALA2        0.0000 
     31 CA         39.2413    2.6209    7.7067 C.3       5 GLY6        0.0000 
     32 CA         38.7122    2.6167    9.1103 C.3       5 GLY6        0.0000 
     33 NZ         38.1830    2.6126   10.5139 N.2       3 LYS4        0.0000 
     34 N          37.6539    2.6084   11.9174 N.2       2 ALA2        0.0000 
     35 CA         37.1247    2.6042   13.3210 C.3       5 GLY6        0.0000 
     36 CA         36.5955    2.6000   14.7245 C.3       5 GLY6        0.0000 
     37 N          38.8821    1.4648    5.9648 N.2       2 ALA2        0.0000 
     38 N          38.3529    1.4606    7.3684 N.2       2 ALA2        0.0000 
     39 CA         37.8238    1.4565    8.7719 C.3       5 GLY6        0.0000 
     40 CA         37.2946    1.4523   10.1755 C.3       5 GLY6        0.0000 
     41 DU         36.7655    1.4481   11.5790 H         6 CUB7        0.0000 
     42 DU         36.2363    1.4439   12.9826 H         6 CUB7        0.0000 
     43 CA         35.7071    1.4398   14.3861 C.3       5 GLY6        0.0000 
     44 CA         37.4645    0.3004    7.0300 C.3       5 GLY6        0.0000 
     45 DU         36.9354    0.2962    8.4335 H         6 CUB7        0.0000 
     46 DU         36.4062    0.2920    9.8371 H         6 CUB7        0.0000 
     47 DU         35.8771    0.2878   11.2406 H         6 CUB7        0.0000 
     48 CA         36.5761   -0.8599    6.6916 C.3       5 GLY6        0.0000 
     49 CA         36.0470   -0.8641    8.0951 C.3       5 GLY6        0.0000 
     50 CZ         35.5178   -0.8683    9.4987 C.ar      4 PHE5        0.0000 
     51 O          39.9881    3.9741   14.4046 O.2       2 ALA2        0.0000 
     52 O          39.4590    3.9699   15.8082 O.2       2 ALA2        0.0000 
     53 O          38.9298    3.9657   17.2117 O.2       2 ALA2        0.0000 
     54 CA         39.0997    2.8138   14.0662 C.3       5 GLY6        0.0000 
     55 CA         38.5706    2.8096   15.4698 C.3       5 GLY6        0.0000 
     56 NZ         39.7988    1.6661    9.5171 N.2       3 LYS4        0.0000 
     57 NZ         38.7405    1.6577   12.3243 N.2       3 LYS4        0.0000 
     58 CA         38.2113    1.6535   13.7278 C.3       5 GLY6        0.0000 
     59 N          39.4396    0.5100    7.7752 N.2       2 ALA2        0.0000 
     60 NZ         38.9104    0.5058    9.1788 N.2       3 LYS4        0.0000 
     61 NZ         38.3812    0.5016   10.5823 N.2       3 LYS4        0.0000 
     62 DU         37.8521    0.4975   11.9859 H         6 CUB7        0.0000 
     63 O          37.3229    0.4933   13.3894 O.2       2 ALA2        0.0000 
     64 N          39.0803   -0.6461    6.0333 N.2       2 ALA2        0.0000 
     65 N          38.5511   -0.6503    7.4368 N.2       2 ALA2        0.0000 
     66 DU         38.0220   -0.6545    8.8404 H         6 CUB7        0.0000 
     67 CZ         37.4928   -0.6586   10.2439 C.ar      4 PHE5        0.0000 
     68 CZ         36.9637   -0.6628   11.6475 C.ar      4 PHE5        0.0000 
     69 CZ         36.4345   -0.6670   13.0510 C.ar      4 PHE5        0.0000 
     70 O          37.6627   -1.8106    7.0984 O.2       2 ALA2        0.0000 
     71 CZ         37.1336   -1.8147    8.5020 C.ar      4 PHE5        0.0000 
     72 CZ         36.6044   -1.8189    9.9055 C.ar      4 PHE5        0.0000 
     73 CZ         36.0753   -1.8231   11.3091 C.ar      4 PHE5        0.0000 
     74 O          36.7743   -2.9708    6.7600 O.2       2 ALA2        0.0000 
     75 CZ         36.2452   -2.9750    8.1636 C.ar      4 PHE5        0.0000 
     76 NZ         41.0747    3.0234   14.8114 N.2       3 LYS4        0.0000 
     77 O          40.5456    3.0193   16.2150 O.2       2 ALA2        0.0000 
     78 O          40.0164    3.0151   17.6186 O.2       2 ALA2        0.0000 
     79 CA         40.1863    1.8632   14.4730 C.3       5 GLY6        0.0000 
     80 NZ         40.8854    0.7154    9.9240 N.2       3 LYS4        0.0000 
     81 NZ         40.3563    0.7112   11.3275 N.2       3 LYS4        0.0000 
     82 NZ         39.8271    0.7071   12.7311 N.2       3 LYS4        0.0000 
     83 O          39.2979    0.7029   14.1347 O.2       2 ALA2        0.0000 
     84 N          39.9970   -0.4449    9.5856 N.2       2 ALA2        0.0000 
     85 NZ         39.4678   -0.4490   10.9892 N.2       3 LYS4        0.0000 
     86 O          38.9387   -0.4532   12.3927 O.2       2 ALA2        0.0000 
     87 NZ         39.6378   -1.6010    7.8436 N.2       3 LYS4        0.0000 
     88 NZ         39.1086   -1.6051    9.2472 N.2       3 LYS4        0.0000 
     89 CZ         38.5794   -1.6093   10.6508 C.ar      4 PHE5        0.0000 
     90 CZ         38.0503   -1.6135   12.0543 C.ar      4 PHE5        0.0000 
     91 CZ         37.5211   -1.6177   13.4579 C.ar      4 PHE5        0.0000 
     92 CA         38.7494   -2.7612    7.5053 C.3       5 GLY6        0.0000 
     93 CZ         38.2202   -2.7654    8.9088 C.ar      4 PHE5        0.0000 
     94 NZ         41.6322    2.0686   16.6218 N.2       3 LYS4        0.0000 
     95 NZ         41.1030    2.0644   18.0254 N.2       3 LYS4        0.0000 
     96 NZ         41.2730    0.9125   14.8799 N.2       3 LYS4        0.0000 
     97 O          40.7438    0.9083   16.2834 O.2       2 ALA2        0.0000 
     98 O          41.9720   -0.2353   10.3308 O.2       2 ALA2        0.0000 
     99 NZ         41.4429   -0.2394   11.7344 N.2       3 LYS4        0.0000 
    100 NZ         40.9137   -0.2436   13.1379 N.2       3 LYS4        0.0000 
    101 O          40.3845   -0.2478   14.5415 O.2       2 ALA2        0.0000 
    102 DU         40.5545   -1.3997   11.3960 H         6 CUB7        0.0000 
    103 DU         40.0253   -1.4039   12.7996 H         6 CUB7        0.0000 
    104 O          39.4961   -1.4080   14.2031 O.2       2 ALA2        0.0000 
    105 NZ         40.1952   -2.5558    9.6540 N.2       3 LYS4        0.0000 
    106 CZ         39.6661   -2.5600   11.0576 C.ar      4 PHE5        0.0000 
    107 CZ         39.1369   -2.5641   12.4612 C.ar      4 PHE5        0.0000 
    108 CZ         38.6077   -2.5683   13.8647 C.ar      4 PHE5        0.0000 
    109 CZ         39.3068   -3.7161    9.3157 C.ar      4 PHE5        0.0000 
    110 CZ         38.7776   -3.7202   10.7192 C.ar      4 PHE5        0.0000 
@<TRIPOS>BOND
@<TRIPOS>SUBSTRUCTURE
     1 SER1        9 GROUP   
     2 ALA2        6 GROUP   
     3 LYS4        3 GROUP   
     4 PHE5        1 GROUP   
     5 GLY6        2 GROUP   
     6 CUB7       41 GROUP   
@<TRIPOS>SET

