#    Name: 3s6t_OAN_1_INTS_M
#    Modification time : Mon Apr  7 22:05:51 2014

@<TRIPOS>MOLECULE
3s6t_OAN_1_INTS_M
   44     0     9     0     0
SMALL
NO_CHARGES


@<TRIPOS>ATOM
      1 CA         40.3755   -4.7300    7.7635 C.3       3 GLC5        0.0000 
      2 CA         40.5970   -5.3000    9.5820 C.3       9 GLL5        0.0000 
      3 CA         40.1540   -4.1600    5.9450 C.3       6 GLP5        0.0000 
      4 CA         41.3295   -6.7950    8.8370 C.3       3 GLC5        0.0000 
      5 CA         42.0620   -8.2900    8.0920 C.3       6 GLP5        0.0000 
      6 CA         38.8660   -5.7995    9.7365 C.3       3 GLC5        0.0000 
      7 CA         37.1350   -6.2990    9.8910 C.3       6 GLP5        0.0000 
      8 CA         42.3065   -5.0355   10.5785 C.3       3 GLC5        0.0000 
      9 CA         44.0160   -4.7710   11.5750 C.3       6 GLP5        0.0000 
     10 N          40.4075   -5.3440   12.4700 N.am      2 SEC2        0.0000 
     11 N          40.4970   -4.2380   11.7260 N.am      8 SEL2        0.0000 
     12 N          40.3180   -6.4500   13.2140 N.am      5 SEP2        0.0000 
     13 O          41.1290   -2.9085    8.4550 O.2       1 ALC1        0.0000 
     14 O          40.5070   -2.8900    9.8720 O.2       7 ALL1        0.0000 
     15 O          41.7510   -2.9270    7.0380 O.2       4 ALP1        0.0000 
     16 N          44.0630    0.0615   10.4565 N.am      2 SEC2        0.0000 
     17 N          42.6720   -0.5540    9.9190 N.am      8 SEL2        0.0000 
     18 N          45.4540    0.6770   10.9940 N.am      5 SEP2        0.0000 
     19 N          43.4045    0.6805    9.7860 N.am      2 SEC2        0.0000 
     20 N          44.1370    1.9150    9.6530 N.am      5 SEP2        0.0000 
     21 N          44.4005    0.2420   11.7960 N.am      2 SEC2        0.0000 
     22 N          43.3470   -0.1930   12.5980 N.am      8 SEL2        0.0000 
     23 O          43.9250    0.7795   13.9215 O.2       1 ALC1        0.0000 
     24 O          43.3470   -0.1930   12.5980 O.2       7 ALL1        0.0000 
     25 O          44.5030    1.7520   15.2450 O.2       4 ALP1        0.0000 
     26 O          43.5265    1.1010   13.0030 O.2       1 ALC1        0.0000 
     27 O          43.7060    2.3950   13.4080 O.2       4 ALP1        0.0000 
     28 CA         40.6560   -3.1770   14.2275 C.3       3 GLC5        0.0000 
     29 CA         41.2650   -1.2310   13.3150 C.3       9 GLL5        0.0000 
     30 CA         40.0470   -5.1230   15.1400 C.3       6 GLP5        0.0000 
     31 CA         39.5205    0.0965   15.6925 C.3       3 GLC5        0.0000 
     32 CA         41.2730   -0.5150   14.6680 C.3       9 GLL5        0.0000 
     33 CA         37.7680    0.7080   16.7170 C.3       6 GLP5        0.0000 
     34 N          39.3765   -0.9220   15.9375 N.am      2 SEC2        0.0000 
     35 N          40.6540   -1.3530   15.6530 N.am      8 SEL2        0.0000 
     36 N          38.0990   -0.4910   16.2220 N.am      5 SEP2        0.0000 
     37 O          41.4785   -1.3065   16.7780 O.2       1 ALC1        0.0000 
     38 O          40.6540   -1.3530   15.6530 O.2       7 ALL1        0.0000 
     39 O          42.3030   -1.2600   17.9030 O.2       4 ALP1        0.0000 
     40 CA         43.3338   -1.9710   12.3793 C.3       3 GLC5        0.0000 
     41 CA         41.9850   -0.4150   12.2420 C.3       9 GLL5        0.0000 
     42 CA         44.6970   -3.1160   13.1510 C.3       6 GLP5        0.0000 
     43 CA         42.8230   -1.8380   14.2442 C.3       3 GLC5        0.0000 
     44 CA         44.3770   -2.8030   14.4970 C.3       6 GLP5        0.0000 
@<TRIPOS>BOND
@<TRIPOS>SUBSTRUCTURE
     1 ALC1       13 GROUP        1 X    ALC  0     ROOT ALC X 1
     2 SEC2       10 GROUP        1 X    SEC  0     **** SEC X 2
     3 GLC5        1 GROUP        1 X    GLC  0     **** GLC X 6
     4 ALP1       15 GROUP        1 Y    ALP  0     ROOT ALP Y 8
     5 SEP2       12 GROUP        1 Y    SEP  0     **** SEP Y 9
     6 GLP5        3 GROUP        1 Y    GLP  0     **** GLP Y 13
     7 ALL1       14 GROUP        1 Z    ALL  0     ROOT ALL Z 15
     8 SEL2       11 GROUP        1 Z    SEL  0     **** SEL Z 16
     9 GLL5        2 GROUP        1 Z    GLL  0     **** GLL Z 20
@<TRIPOS>SET

