#    Name: 3s6t_OAN_1_ligand
#    Modification time : Mon Apr  7 22:05:51 2014

@<TRIPOS>MOLECULE
3s6t_OAN_1_ligand
   44    45     1     0     0
SMALL
NO_CHARGES


@<TRIPOS>ATOM
      1 CAH        40.5970   -5.3000    9.5820 C.3       1 OAN1        0.0000 
      2 CAG        40.5330   -4.0850   10.5060 C.2       1 OAN1        0.0000 
      3 OAN        40.4970   -4.2380   11.7260 O.2       1 OAN1        0.0000 
      4 NAI        40.5070   -2.8900    9.8720 N.am      1 OAN1        0.0000 
      5 CAB        40.4950   -1.5640   10.5380 C.3       1 OAN1        0.0000 
      6 CAC        41.9560   -1.2370   10.9730 C.3       1 OAN1        0.0000 
      7 OAJ        42.6720   -0.5540    9.9190 O.3       1 OAN1        0.0000 
      8 CAD        41.9850   -0.4150   12.2420 C.3       1 OAN1        0.0000 
      9 OAK        43.3470   -0.1930   12.5980 O.3       1 OAN1        0.0000 
     10 CAE        41.2650   -1.2310   13.3150 C.3       1 OAN1        0.0000 
     11 CAF        41.2730   -0.5150   14.6680 C.3       1 OAN1        0.0000 
     12 OAM        40.6540   -1.3530   15.6530 O.3       1 OAN1        0.0000 
     13 OAL        39.8820   -1.4520   12.9270 O.3       1 OAN1        0.0000 
     14 CAA        39.5310   -1.4570   11.5940 C.2       1 OAN1        0.0000 
     15 NAY        38.2480   -1.3500   11.2680 N.2       1 OAN1        0.0000 
     16 OAQ        37.2750   -1.2090   12.4880 O.3       1 OAN1        0.0000 
     17 CAP        35.9580   -1.0590   12.1510 C.2       1 OAN1        0.0000 
     18 OAR        35.6490   -0.5530   11.0690 O.2       1 OAN1        0.0000 
     19 NAO        35.0210   -1.4590   13.0430 N.am      1 OAN1        0.0000 
     20 CAS        33.7020   -1.3900   12.7840 C.ar      1 OAN1        0.0000 
     21 CAT        33.0510   -0.1780   12.5160 C.ar      1 OAN1        0.0000 
     22 CAU        31.6760   -0.1620   12.2630 C.ar      1 OAN1        0.0000 
     23 CAV        30.9430   -1.3520   12.2870 C.ar      1 OAN1        0.0000 
     24 CAW        31.5820   -2.5640   12.5630 C.ar      1 OAN1        0.0000 
     25 CAX        32.9580   -2.5770   12.8130 C.ar      1 OAN1        0.0000 
     26 H          40.4933   -2.8429    8.8137 H         1 OAN1        0.0000 
     27 H          40.2654   -0.8099    9.7393 H         1 OAN1        0.0000 
     28 H          42.4416   -2.1988   11.1865 H         1 OAN1        0.0000 
     29 H          41.4495    0.4862   12.0769 H         1 OAN1        0.0000 
     30 H          41.7740   -2.1756   13.4315 H         1 OAN1        0.0000 
     31 H          40.7390    0.4318   14.5486 H         1 OAN1        0.0000 
     32 H          42.3129   -0.2917   14.9222 H         1 OAN1        0.0000 
     33 H          35.3411   -1.8394   13.9773 H         1 OAN1        0.0000 
     34 H          33.5853    0.6975   12.5058 H         1 OAN1        0.0000 
     35 H          31.2033    0.7267   12.0589 H         1 OAN1        0.0000 
     36 H          29.9333   -1.3356   12.1015 H         1 OAN1        0.0000 
     37 H          31.0475   -3.4356   12.5821 H         1 OAN1        0.0000 
     38 H          33.4308   -3.4685   13.0209 H         1 OAN1        0.0000 
     39 H          40.6218   -5.0330    8.6186 H         1 OAN1        0.0000 
     40 H          41.4113   -5.8546    9.7536 H         1 OAN1        0.0000 
     41 H          39.8046   -5.8985    9.7000 H         1 OAN1        0.0000 
     42 H          43.0812   -1.2827    9.3699 H         1 OAN1        0.0000 
     43 H          43.3790    0.7527   12.9213 H         1 OAN1        0.0000 
     44 H          41.2468   -1.2897   16.4559 H         1 OAN1        0.0000 
@<TRIPOS>BOND
     1    2    1 1    
     2   39    1 1    
     3   40    1 1    
     4   41    1 1    
     5    3    2 2    
     6    4    2 am   
     7    5    4 1    
     8   26    4 1    
     9    6    5 1    
    10   14    5 1    
    11   27    5 1    
    12    7    6 1    
    13    8    6 1    
    14   28    6 1    
    15   42    7 1    
    16    9    8 1    
    17   10    8 1    
    18   29    8 1    
    19   43    9 1    
    20   11   10 1    
    21   13   10 1    
    22   30   10 1    
    23   12   11 1    
    24   31   11 1    
    25   32   11 1    
    26   44   12 1    
    27   14   13 1    
    28   15   14 2    
    29   16   15 1    
    30   17   16 1    
    31   18   17 2    
    32   19   17 am   
    33   20   19 1    
    34   33   19 1    
    35   21   20 ar   
    36   25   20 ar   
    37   22   21 ar   
    38   34   21 1    
    39   23   22 ar   
    40   35   22 1    
    41   24   23 ar   
    42   36   23 1    
    43   25   24 ar   
    44   37   24 1    
    45   38   25 1    
@<TRIPOS>SUBSTRUCTURE
     1 OAN1        1 GROUP   
@<TRIPOS>SET

