#    Name: 3kcf_JZO_4_INTS_M
#    Modification time : Mon Mar 24 19:15:48 2014

@<TRIPOS>MOLECULE
3kcf_JZO_4_INTS_M
   78     0     6     0     0
SMALL
NO_CHARGES


@<TRIPOS>ATOM
      1 CA         84.0495   63.2490   69.0020 C.3       2 GLC5        0.0000 
      2 CA         84.0530   61.1130   69.6400 C.3       6 GLL5        0.0000 
      3 CA         84.0460   65.3850   68.3640 C.3       4 GLP5        0.0000 
      4 CA         82.6240   61.9355   68.9590 C.3       2 GLC5        0.0000 
      5 CA         81.1950   62.7580   68.2780 C.3       4 GLP5        0.0000 
      6 CA         83.2945   61.0450   71.0260 C.3       2 GLC5        0.0000 
      7 CA         82.5360   60.9770   72.4120 C.3       4 GLP5        0.0000 
      8 CA         85.6155   62.2025   70.3140 C.3       2 GLC5        0.0000 
      9 CA         87.1780   63.2920   70.9880 C.3       4 GLP5        0.0000 
     10 CA         87.5635   58.4895   69.7035 C.3       2 GLC5        0.0000 
     11 CA         87.3770   59.4130   67.7470 C.3       6 GLL5        0.0000 
     12 CA         87.7500   57.5660   71.6600 C.3       4 GLP5        0.0000 
     13 CA         89.8660   57.9030   68.1190 C.3       2 GLC5        0.0000 
     14 CA         88.3500   58.6710   67.0150 C.3       6 GLL5        0.0000 
     15 CA         91.3820   57.1350   69.2230 C.3       4 GLP5        0.0000 
     16 CA         90.1415   59.2770   64.5230 C.3       2 GLC5        0.0000 
     17 CA         88.4460   58.8260   65.5960 C.3       6 GLL5        0.0000 
     18 CA         91.8370   59.7280   63.4500 C.3       4 GLP5        0.0000 
     19 CA         85.9175   57.9190   61.9420 C.3       2 GLC5        0.0000 
     20 CA         87.7360   59.0220   62.3730 C.3       6 GLL5        0.0000 
     21 CA         84.0990   56.8160   61.5110 C.3       4 GLP5        0.0000 
     22 CA         86.7975   57.5935   59.7995 C.3       2 GLC5        0.0000 
     23 CA         87.8750   59.2130   59.7840 C.3       6 GLL5        0.0000 
     24 CA         85.7200   55.9740   59.8150 C.3       4 GLP5        0.0000 
     25 CA         86.2860   62.2955   58.9910 C.3       2 GLC5        0.0000 
     26 CA         87.7630   62.1800   60.4300 C.3       6 GLL5        0.0000 
     27 CA         84.8090   62.4110   57.5520 C.3       4 GLP5        0.0000 
     28 CA         86.5150   63.5540   61.0860 C.3       2 GLC5        0.0000 
     29 CA         85.2670   64.9280   61.7420 C.3       4 GLP5        0.0000 
     30 N          87.7960   63.3240   64.2465 N.am      1 SEC2        0.0000 
     31 N          87.5560   62.3780   63.3520 N.am      5 SEL2        0.0000 
     32 N          88.0360   64.2700   65.1410 N.am      3 SEP2        0.0000 
     33 CA         85.0250   54.2470   63.0025 C.3       2 GLC5        0.0000 
     34 CA         86.9170   55.3430   63.2530 C.3       6 GLL5        0.0000 
     35 CA         83.1330   53.1510   62.7520 C.3       4 GLP5        0.0000 
     36 N          86.9255   52.1845   62.6730 N.am      1 SEC2        0.0000 
     37 N          87.9080   53.3000   62.4310 N.am      5 SEL2        0.0000 
     38 N          85.9430   51.0690   62.9150 N.am      3 SEP2        0.0000 
     39 CA         87.0545   51.5735   61.6895 C.3       2 GLC5        0.0000 
     40 CA         88.8050   52.6130   61.6560 C.3       6 GLL5        0.0000 
     41 CA         85.3040   50.5340   61.7230 C.3       4 GLP5        0.0000 
     42 CA         90.6370   54.6310   62.1875 C.3       2 GLC5        0.0000 
     43 CA         88.7750   55.3850   61.6490 C.3       6 GLL5        0.0000 
     44 CA         92.4990   53.8770   62.7260 C.3       4 GLP5        0.0000 
     45 CA         87.3903   62.1100   66.8050 C.3       2 GLC5        0.0000 
     46 CA         86.4990   60.3060   67.0570 C.3       6 GLL5        0.0000 
     47 CA         88.7940   63.5170   66.1830 C.3       4 GLP5        0.0000 
     48 CA         85.4957   58.7850   67.7270 C.3       2 GLC5        0.0000 
     49 CA         85.4740   61.1000   67.7970 C.3       6 GLL5        0.0000 
     50 CA         85.0050   56.8670   68.0270 C.3       4 GLP5        0.0000 
     51 CA         85.2130   59.3535   65.4705 C.3       2 GLC5        0.0000 
     52 CA         83.8810   58.3250   64.5880 C.3       4 GLP5        0.0000 
     53 CA         87.4464   61.1165   69.1660 C.3       2 GLC5        0.0000 
     54 CA         88.2110   62.1750   70.7450 C.3       4 GLP5        0.0000 
     55 CA         86.4342   57.9545   67.7040 C.3       2 GLC5        0.0000 
     56 CA         88.6815   56.7077   66.2812 C.3       2 GLC5        0.0000 
     57 CA         88.9650   54.6670   66.2570 C.3       4 GLP5        0.0000 
     58 CA         89.4474   60.2065   66.9928 C.3       2 GLC5        0.0000 
     59 CA         90.7400   61.4790   67.4970 C.3       4 GLP5        0.0000 
     60 CA         87.9347   61.8038   65.7293 C.3       2 GLC5        0.0000 
     61 CA         87.5600   59.7230   64.9020 C.3       6 GLL5        0.0000 
     62 CA         85.7410   59.0760   64.3720 C.3       2 GLC5        0.0000 
     63 CA         89.7630   59.6022   63.1707 C.3       2 GLC5        0.0000 
     64 CA         87.6420   59.9310   63.4100 C.3       6 GLL5        0.0000 
     65 CA         86.9903   56.5647   60.9260 C.3       2 GLC5        0.0000 
     66 CA         88.7390   56.7990   61.6400 C.3       6 GLL5        0.0000 
     67 CA         85.3880   57.1917   63.9177 C.3       2 GLC5        0.0000 
     68 CA         85.4970   56.4373   62.3792 C.3       2 GLC5        0.0000 
     69 CA         86.8730   56.7740   63.2420 C.3       6 GLL5        0.0000 
     70 CA         88.1705   55.0124   64.5541 C.3       2 GLC5        0.0000 
     71 CA         87.0180   55.4975   60.9335 C.3       2 GLC5        0.0000 
     72 CA         87.8570   54.6570   62.4550 C.3       6 GLL5        0.0000 
     73 CA         90.8785   53.4285   61.9922 C.3       2 GLC5        0.0000 
     74 CA         89.7110   53.3470   60.8610 C.3       6 GLL5        0.0000 
     75 CA         88.5360   53.0330   59.3092 C.3       2 GLC5        0.0000 
     76 CA         87.8140   53.0860   57.3600 C.3       4 GLP5        0.0000 
     77 CA         90.2599   56.7876   62.8405 C.3       2 GLC5        0.0000 
     78 CA         92.0020   57.3050   63.8380 C.3       4 GLP5        0.0000 
@<TRIPOS>BOND
@<TRIPOS>SUBSTRUCTURE
     1 SEC2       30 GROUP        1 X    SEC  0     ROOT SEC X 2
     2 GLC5        1 GROUP        1 X    GLC  0     **** GLC X 6
     3 SEP2       32 GROUP        1 Y    SEP  0     ROOT SEP Y 9
     4 GLP5        3 GROUP        1 Y    GLP  0     **** GLP Y 13
     5 SEL2       31 GROUP        1 Z    SEL  0     ROOT SEL Z 16
     6 GLL5        2 GROUP        1 Z    GLL  0     **** GLL Z 20
@<TRIPOS>SET

