#    Name: 3kcf_JZO_4_ligand
#    Modification time : Mon Mar 24 19:15:48 2014

@<TRIPOS>MOLECULE
3kcf_JZO_4_ligand
   47    50     1     0     0
SMALL
NO_CHARGES


@<TRIPOS>ATOM
      1 C1         84.0530   61.1130   69.6400 C.3       1 JZO4        0.0000 
      2 O2         85.0370   60.3770   68.9250 O.3       1 JZO4        0.0000 
      3 C3         85.4740   61.1000   67.7970 C.3       1 JZO4        0.0000 
      4 C4         86.4990   60.3060   67.0570 C.ar      1 JZO4        0.0000 
      5 C5         87.3770   59.4130   67.7470 C.ar      1 JZO4        0.0000 
      6 C6         88.3500   58.6710   67.0150 C.ar      1 JZO4        0.0000 
      7 C7         88.4460   58.8260   65.5960 C.ar      1 JZO4        0.0000 
      8 C8         87.5600   59.7230   64.9020 C.ar      1 JZO4        0.0000 
      9 C9         86.5910   60.4580   65.6490 C.ar      1 JZO4        0.0000 
     10 C10        87.6420   59.9310   63.4100 C.2       1 JZO4        0.0000 
     11 C11        87.7360   59.0220   62.3730 C.2       1 JZO4        0.0000 
     12 N12        87.7830   59.7550   61.1650 N.pl3     1 JZO4        0.0000 
     13 C13        87.8750   59.2130   59.7840 C.3       1 JZO4        0.0000 
     14 N14        87.7280   61.1080   61.4440 N.am      1 JZO4        0.0000 
     15 C15        87.7630   62.1800   60.4300 C.3       1 JZO4        0.0000 
     16 C16        87.6330   61.2880   62.7650 C.2       1 JZO4        0.0000 
     17 O17        87.5560   62.3780   63.3520 O.2       1 JZO4        0.0000 
     18 C18        87.7820   57.5120   62.4340 C.ar      1 JZO4        0.0000 
     19 C19        86.8730   56.7740   63.2420 C.ar      1 JZO4        0.0000 
     20 C20        86.9170   55.3430   63.2530 C.ar      1 JZO4        0.0000 
     21 C21        87.8570   54.6570   62.4550 C.ar      1 JZO4        0.0000 
     22 N22        87.9080   53.3000   62.4310 N.ar      1 JZO4        0.0000 
     23 C23        88.8050   52.6130   61.6560 C.ar      1 JZO4        0.0000 
     24 C24        89.7110   53.3470   60.8610 C.ar      1 JZO4        0.0000 
     25 N25        89.6710   54.7020   60.8800 N.ar      1 JZO4        0.0000 
     26 C26        88.7750   55.3850   61.6490 C.ar      1 JZO4        0.0000 
     27 C27        88.7390   56.7990   61.6400 C.ar      1 JZO4        0.0000 
     28 H          85.9229   62.0652   68.0810 H         1 JZO4        0.0000 
     29 H          84.6432   61.3202   67.1078 H         1 JZO4        0.0000 
     30 H          87.3066   59.3090   68.7533 H         1 JZO4        0.0000 
     31 H          88.9746   58.0332   67.4980 H         1 JZO4        0.0000 
     32 H          89.1413   58.3023   65.0726 H         1 JZO4        0.0000 
     33 H          85.9604   61.0976   65.1630 H         1 JZO4        0.0000 
     34 H          86.1878   57.2610   63.8154 H         1 JZO4        0.0000 
     35 H          86.2643   54.8272   63.8414 H         1 JZO4        0.0000 
     36 H          88.8326   51.5951   61.6407 H         1 JZO4        0.0000 
     37 H          90.3867   52.8347   60.2804 H         1 JZO4        0.0000 
     38 H          89.3991   57.3256   61.0638 H         1 JZO4        0.0000 
     39 H          84.4053   61.9936   69.9568 H         1 JZO4        0.0000 
     40 H          83.2498   61.3044   69.0760 H         1 JZO4        0.0000 
     41 H          83.7328   60.6177   70.4476 H         1 JZO4        0.0000 
     42 H          88.7026   58.6670   59.6537 H         1 JZO4        0.0000 
     43 H          87.0975   58.6240   59.5636 H         1 JZO4        0.0000 
     44 H          87.8939   59.9418   59.0995 H         1 JZO4        0.0000 
     45 H          88.6039   62.1526   59.8894 H         1 JZO4        0.0000 
     46 H          86.9995   62.1091   59.7881 H         1 JZO4        0.0000 
     47 H          87.7121   63.0875   60.8470 H         1 JZO4        0.0000 
@<TRIPOS>BOND
     1    2    1 1    
     2   39    1 1    
     3   40    1 1    
     4   41    1 1    
     5    3    2 1    
     6    4    3 1    
     7   28    3 1    
     8   29    3 1    
     9    5    4 ar   
    10    9    4 ar   
    11    6    5 ar   
    12   30    5 1    
    13    7    6 ar   
    14   31    6 1    
    15    8    7 ar   
    16   32    7 1    
    17    9    8 ar   
    18   10    8 1    
    19   33    9 1    
    20   11   10 2    
    21   16   10 1    
    22   12   11 1    
    23   18   11 1    
    24   13   12 1    
    25   14   12 1    
    26   42   13 1    
    27   43   13 1    
    28   44   13 1    
    29   15   14 1    
    30   16   14 am   
    31   45   15 1    
    32   46   15 1    
    33   47   15 1    
    34   17   16 2    
    35   19   18 ar   
    36   27   18 ar   
    37   20   19 ar   
    38   34   19 1    
    39   21   20 ar   
    40   35   20 1    
    41   22   21 ar   
    42   26   21 ar   
    43   23   22 ar   
    44   24   23 ar   
    45   36   23 1    
    46   25   24 ar   
    47   37   24 1    
    48   26   25 ar   
    49   27   26 ar   
    50   38   27 1    
@<TRIPOS>SUBSTRUCTURE
     1 JZO4        1 GROUP   
@<TRIPOS>SET

