#    Name: 1ykd_CMP_1_INTS_M
#    Modification time : Tue Mar 25 11:05:43 2014

@<TRIPOS>MOLECULE
1ykd_CMP_1_INTS_M
   47     0     9     0     0
SMALL
NO_CHARGES


@<TRIPOS>ATOM
      1 N          10.2835  -26.2940    3.9585 N.am      2 SEC2        0.0000 
      2 N           9.7010  -27.1330    2.8120 N.am      8 SEL2        0.0000 
      3 N          10.8660  -25.4550    5.1050 N.am      5 SEP2        0.0000 
      4 N          10.4705  -26.2375    2.0705 N.am      2 SEC2        0.0000 
      5 N          11.2400  -25.3420    1.3290 N.am      5 SEP2        0.0000 
      6 N          10.8490  -28.8495    4.4785 N.am      2 SEC2        0.0000 
      7 N          10.3470  -29.5440    3.3520 N.am      8 SEL2        0.0000 
      8 N          11.3510  -28.1550    5.6050 N.am      5 SEP2        0.0000 
      9 CA          6.2635  -27.0315    3.5040 C.3       3 GLC5        0.0000 
     10 CA          7.0410  -28.2830    1.9090 C.3       9 GLL5        0.0000 
     11 CA          5.4860  -25.7800    5.0990 C.3       6 GLP5        0.0000 
     12 CA          6.0060  -29.1275    3.3645 C.3       3 GLC5        0.0000 
     13 CA          4.9710  -29.9720    4.8200 C.3       6 GLP5        0.0000 
     14 CA          8.3575  -30.5680    0.8200 C.3       3 GLC5        0.0000 
     15 CA          7.4110  -28.6420    0.4720 C.3       9 GLL5        0.0000 
     16 CA          9.3040  -32.4940    1.1680 C.3       6 GLP5        0.0000 
     17 O          10.1385  -29.9725   -2.8025 O.2       1 ALC1        0.0000 
     18 O           9.3920  -29.6960   -1.4920 O.2       7 ALL1        0.0000 
     19 O          10.8850  -30.2490   -4.1130 O.2       4 ALP1        0.0000 
     20 N           7.4215  -23.5350   -3.6630 N.am      2 SEC2        0.0000 
     21 N           7.3600  -24.8660   -3.2740 N.am      8 SEL2        0.0000 
     22 N           7.4830  -22.2040   -4.0520 N.am      5 SEP2        0.0000 
     23 CA          6.9185  -25.5330   -7.4425 C.3       3 GLC5        0.0000 
     24 CA          6.2670  -25.2830   -5.4990 C.3       9 GLL5        0.0000 
     25 CA          7.5700  -25.7830   -9.3860 C.3       6 GLP5        0.0000 
     26 O           5.5035  -23.9830   -7.2985 O.2       1 ALC1        0.0000 
     27 O           6.2640  -24.0560   -6.0180 O.2       7 ALL1        0.0000 
     28 O           4.7430  -23.9100   -8.5790 O.2       4 ALP1        0.0000 
     29 O           6.8735  -23.1300   -5.0350 O.2       1 ALC1        0.0000 
     30 O           7.4830  -22.2040   -4.0520 O.2       4 ALP1        0.0000 
     31 N           5.4465  -26.8020   -7.7890 N.am      2 SEC2        0.0000 
     32 N           5.7320  -26.3050   -6.2490 N.am      8 SEL2        0.0000 
     33 N           5.1610  -27.2990   -9.3290 N.am      5 SEP2        0.0000 
     34 CA          6.6435  -26.6995   -7.5710 C.3       3 GLC5        0.0000 
     35 CA          5.7170  -27.6160   -5.7560 C.3       9 GLL5        0.0000 
     36 CA          4.7525  -26.2420   -4.4720 C.3       3 GLC5        0.0000 
     37 CA          3.7880  -24.8680   -3.1880 C.3       6 GLP5        0.0000 
     38 CA          6.0100  -29.2350   -6.6545 C.3       3 GLC5        0.0000 
     39 CA          6.3030  -30.8540   -7.5530 C.3       6 GLP5        0.0000 
     40 CA         10.8635  -28.0718   -0.2607 C.3       3 GLC5        0.0000 
     41 CA          8.9150  -28.3550   -1.2910 C.3       9 GLL5        0.0000 
     42 CA         12.8680  -27.9190    0.0250 C.3       6 GLP5        0.0000 
     43 CA          9.1582  -27.4250   -3.2050 C.3       3 GLC5        0.0000 
     44 CA         10.1360  -26.5880   -4.8700 C.3       6 GLP5        0.0000 
     45 CA          5.2134  -25.5184   -3.7610 C.3       3 GLC5        0.0000 
     46 CA          6.7880  -25.5860   -4.2390 C.3       9 GLL5        0.0000 
     47 CA          8.3874  -26.3784   -4.6020 C.3       3 GLC5        0.0000 
@<TRIPOS>BOND
@<TRIPOS>SUBSTRUCTURE
     1 ALC1       17 GROUP        1 X    ALC  0     ROOT ALC X 1
     2 SEC2        1 GROUP        1 X    SEC  0     **** SEC X 2
     3 GLC5        9 GROUP        1 X    GLC  0     **** GLC X 6
     4 ALP1       19 GROUP        1 Y    ALP  0     ROOT ALP Y 8
     5 SEP2        3 GROUP        1 Y    SEP  0     **** SEP Y 9
     6 GLP5       11 GROUP        1 Y    GLP  0     **** GLP Y 13
     7 ALL1       18 GROUP        1 Z    ALL  0     ROOT ALL Z 15
     8 SEL2        2 GROUP        1 Z    SEL  0     **** SEL Z 16
     9 GLL5       10 GROUP        1 Z    GLL  0     **** GLL Z 20
@<TRIPOS>SET

