#    Name: 1ykd_CMP_1_ligand
#    Modification time : Tue Mar 25 11:05:43 2014

@<TRIPOS>MOLECULE
1ykd_CMP_1_ligand
   33    36     1     0     0
SMALL
NO_CHARGES


@<TRIPOS>ATOM
      1 P           9.5440  -28.5820    2.5780 P.3       1 CMP501      0.0000 
      2 O1P         9.7010  -27.1330    2.8120 O.co2     1 CMP501      0.0000 
      3 O2P        10.3470  -29.5440    3.3520 O.co2     1 CMP501      0.0000 
      4 O5'         7.9900  -28.9170    2.7800 O.3       1 CMP501      0.0000 
      5 C5'         7.0410  -28.2830    1.9090 C.3       1 CMP501      0.0000 
      6 C4'         7.4110  -28.6420    0.4720 C.3       1 CMP501      0.0000 
      7 O4'         6.6500  -27.9730   -0.5760 O.3       1 CMP501      0.0000 
      8 C3'         8.8030  -28.0940    0.1980 C.3       1 CMP501      0.0000 
      9 O3'         9.7720  -28.8040    1.0130 O.3       1 CMP501      0.0000 
     10 C2'         8.9150  -28.3550   -1.2910 C.3       1 CMP501      0.0000 
     11 O2'         9.3920  -29.6960   -1.4920 O.3       1 CMP501      0.0000 
     12 C1'         7.4460  -28.1690   -1.7890 C.3       1 CMP501      0.0000 
     13 N9          7.2990  -26.9390   -2.5940 N.pl3     1 CMP501      0.0000 
     14 C8          7.6680  -25.6920   -2.2680 C.2       1 CMP501      0.0000 
     15 N7          7.3600  -24.8660   -3.2740 N.2       1 CMP501      0.0000 
     16 C5          6.7880  -25.5860   -4.2390 C.ar      1 CMP501      0.0000 
     17 C6          6.2670  -25.2830   -5.4990 C.ar      1 CMP501      0.0000 
     18 N6          6.2640  -24.0560   -6.0180 N.pl3     1 CMP501      0.0000 
     19 N1          5.7320  -26.3050   -6.2490 N.ar      1 CMP501      0.0000 
     20 C2          5.7170  -27.6160   -5.7560 C.ar      1 CMP501      0.0000 
     21 N3          6.2180  -27.8780   -4.5530 N.ar      1 CMP501      0.0000 
     22 C4          6.7500  -26.9030   -3.7990 C.ar      1 CMP501      0.0000 
     23 H           7.0671  -27.1998    2.0038 H         1 CMP501      0.0000 
     24 H           6.0276  -28.6320    2.0939 H         1 CMP501      0.0000 
     25 H           7.4459  -29.6837    0.3280 H         1 CMP501      0.0000 
     26 H           8.7764  -27.0534    0.3665 H         1 CMP501      0.0000 
     27 H           9.5090  -27.6106   -1.7246 H         1 CMP501      0.0000 
     28 H           7.1458  -29.0238   -2.3034 H         1 CMP501      0.0000 
     29 H           8.0928  -25.4308   -1.4310 H         1 CMP501      0.0000 
     30 H           6.6935  -23.3429   -5.4640 H         1 CMP501      0.0000 
     31 H           5.8325  -23.9586   -6.9148 H         1 CMP501      0.0000 
     32 H           5.3085  -28.3585   -6.3534 H         1 CMP501      0.0000 
     33 H           9.8327  -29.6820   -2.3895 H         1 CMP501      0.0000 
@<TRIPOS>BOND
     1    2    1 ar   
     2    3    1 ar   
     3    4    1 1    
     4    9    1 1    
     5    5    4 1    
     6    6    5 1    
     7   23    5 1    
     8   24    5 1    
     9    7    6 1    
    10    8    6 1    
    11   25    6 1    
    12   12    7 1    
    13    9    8 1    
    14   10    8 1    
    15   26    8 1    
    16   11   10 1    
    17   12   10 1    
    18   27   10 1    
    19   33   11 1    
    20   13   12 1    
    21   28   12 1    
    22   14   13 1    
    23   22   13 1    
    24   15   14 2    
    25   29   14 1    
    26   16   15 1    
    27   17   16 ar   
    28   22   16 ar   
    29   18   17 1    
    30   19   17 ar   
    31   30   18 1    
    32   31   18 1    
    33   20   19 ar   
    34   21   20 ar   
    35   32   20 1    
    36   22   21 ar   
@<TRIPOS>SUBSTRUCTURE
     1 CMP501      1 GROUP   
@<TRIPOS>SET

