#    Name: 2x8e_X8E_1_INTS_M
#    Modification time : Tue Mar 25 05:27:59 2014

@<TRIPOS>MOLECULE
2x8e_X8E_1_INTS_M
   39     0     9     0     0
SMALL
NO_CHARGES


@<TRIPOS>ATOM
      1 CA          3.0180   -7.6365   18.2640 C.3       3 GLC5        0.0000 
      2 CA          2.6590   -5.5920   17.9370 C.3       9 GLL5        0.0000 
      3 CA          3.3770   -9.6810   18.5910 C.3       6 GLP5        0.0000 
      4 CA         -0.3375    0.0695   21.9710 C.3       3 GLC5        0.0000 
      5 CA         -0.7300   -1.8750   21.4510 C.3       9 GLL5        0.0000 
      6 CA          0.0550    2.0140   22.4910 C.3       6 GLP5        0.0000 
      7 CA          3.5715   -5.7955   19.9590 C.3       3 GLC5        0.0000 
      8 CA          3.8420   -4.8910   18.0220 C.3       9 GLL5        0.0000 
      9 CA          3.3010   -6.7000   21.8960 C.3       6 GLP5        0.0000 
     10 CA          3.3455   -3.3705   16.6245 C.3       3 GLC5        0.0000 
     11 CA          2.8490   -1.8500   15.2270 C.3       6 GLP5        0.0000 
     12 CA          5.5630   -4.7220   19.8545 C.3       3 GLC5        0.0000 
     13 CA          3.8890   -3.7770   18.8260 C.3       9 GLL5        0.0000 
     14 CA          7.2370   -5.6670   20.8830 C.3       6 GLP5        0.0000 
     15 CA          4.1705   -8.1015   17.5215 C.3       3 GLC5        0.0000 
     16 CA          4.9640   -6.5220   16.4520 C.3       9 GLL5        0.0000 
     17 O           7.3380   -0.2310   19.9705 O.2       1 ALC1        0.0000 
     18 O           6.8050   -1.6440   19.3400 O.2       7 ALL1        0.0000 
     19 O           7.8710    1.1820   20.6010 O.2       4 ALP1        0.0000 
     20 N           4.4710    0.2410   20.7745 N.am      2 SEC2        0.0000 
     21 N           4.7270   -1.1320   20.3510 N.am      8 SEL2        0.0000 
     22 N           4.2150    1.6140   21.1980 N.am      5 SEP2        0.0000 
     23 CA          0.9990   -4.8320   22.0852 C.3       3 GLC5        0.0000 
     24 CA          0.4490   -3.5910   20.2270 C.3       9 GLL5        0.0000 
     25 CA          2.0220   -5.6350   23.7750 C.3       6 GLP5        0.0000 
     26 CA          3.7305   -4.0812   21.0577 C.3       3 GLC5        0.0000 
     27 CA          2.7850   -3.3640   19.5330 C.3       9 GLL5        0.0000 
     28 CA          4.1240   -4.5920   22.9360 C.3       6 GLP5        0.0000 
     29 CA          4.1135   -2.2732   17.7987 C.3       3 GLC5        0.0000 
     30 CA          4.8900   -0.9760   16.4180 C.3       6 GLP5        0.0000 
     31 CA          2.5759   -5.7119   20.3822 C.3       3 GLC5        0.0000 
     32 CA          1.5980   -4.0610   19.4480 C.3       9 GLL5        0.0000 
     33 CA          5.2487   -2.9718   16.8918 C.3       3 GLC5        0.0000 
     34 CA          6.1790   -4.6280   17.4340 C.3       9 GLL5        0.0000 
     35 CA          6.8339   -6.2139   17.9244 C.3       3 GLC5        0.0000 
     36 CA          5.0360   -5.3070   17.2970 C.3       9 GLL5        0.0000 
     37 CA          8.3820   -6.6830   18.9400 C.3       6 GLP5        0.0000 
     38 CA         -0.8906   -1.9272   19.4737 C.3       3 GLC5        0.0000 
     39 CA         -1.5220   -0.8710   18.1100 C.3       6 GLP5        0.0000 
@<TRIPOS>BOND
@<TRIPOS>SUBSTRUCTURE
     1 ALC1       17 GROUP        1 X    ALC  0     ROOT ALC X 1
     2 SEC2       20 GROUP        1 X    SEC  0     **** SEC X 2
     3 GLC5        1 GROUP        1 X    GLC  0     **** GLC X 6
     4 ALP1       19 GROUP        1 Y    ALP  0     ROOT ALP Y 8
     5 SEP2       22 GROUP        1 Y    SEP  0     **** SEP Y 9
     6 GLP5        3 GROUP        1 Y    GLP  0     **** GLP Y 13
     7 ALL1       18 GROUP        1 Z    ALL  0     ROOT ALL Z 15
     8 SEL2       21 GROUP        1 Z    SEL  0     **** SEL Z 16
     9 GLL5        2 GROUP        1 Z    GLL  0     **** GLL Z 20
@<TRIPOS>SET

