#    Name: 2x8e_X8E_1_ligand
#    Modification time : Tue Mar 25 05:27:59 2014

@<TRIPOS>MOLECULE
2x8e_X8E_1_ligand
   33    36     1     0     0
SMALL
NO_CHARGES


@<TRIPOS>ATOM
      1 C13         1.5480   -5.1810   18.6410 C.ar      1 X8E1271     0.0000 
      2 C12         2.6590   -5.5920   17.9370 C.ar      1 X8E1271     0.0000 
      3 C17        -0.4970   -4.4670   20.5640 C.ar      1 X8E1271     0.0000 
      4 C21         0.3060   -2.2540   20.7060 C.ar      1 X8E1271     0.0000 
      5 C15         2.7850   -3.3640   19.5330 C.ar      1 X8E1271     0.0000 
      6 C18        -1.6260   -3.9600   21.3670 C.ar      1 X8E1271     0.0000 
      7 C20        -0.7300   -1.8750   21.4510 C.ar      1 X8E1271     0.0000 
      8 C14         1.5980   -4.0610   19.4480 C.ar      1 X8E1271     0.0000 
      9 C16         0.4490   -3.5910   20.2270 C.ar      1 X8E1271     0.0000 
     10 C11         3.8420   -4.8910   18.0220 C.ar      1 X8E1271     0.0000 
     11 C10         3.8890   -3.7770   18.8260 C.ar      1 X8E1271     0.0000 
     12 C3          6.1790   -4.6280   17.4340 C.2       1 X8E1271     0.0000 
     13 C2          5.0360   -5.3070   17.2970 C.2       1 X8E1271     0.0000 
     14 C4          6.1520   -3.4370   18.2940 C.2       1 X8E1271     0.0000 
     15 C7          5.4970   -1.7890   19.6670 C.2       1 X8E1271     0.0000 
     16 C1          4.9640   -6.5220   16.4520 C.3       1 X8E1271     0.0000 
     17 N19        -1.6600   -2.6500   21.7850 N.ar      1 X8E1271     0.0000 
     18 N5          7.1660   -2.6530   18.4970 N.2       1 X8E1271     0.0000 
     19 N6          6.8050   -1.6440   19.3400 N.am      1 X8E1271     0.0000 
     20 N9          5.0940   -3.0730   18.9100 N.am      1 X8E1271     0.0000 
     21 O8          4.7270   -1.1320   20.3510 O.2       1 X8E1271     0.0000 
     22 H           0.6638   -5.7175   18.5651 H         1 X8E1271     0.0000 
     23 H           2.6041   -6.4363   17.3380 H         1 X8E1271     0.0000 
     24 H          -0.5035   -5.4413   20.3163 H         1 X8E1271     0.0000 
     25 H           1.0629   -1.5794   20.4403 H         1 X8E1271     0.0000 
     26 H           2.8430   -2.5225   20.1352 H         1 X8E1271     0.0000 
     27 H          -2.3707   -4.6243   21.5929 H         1 X8E1271     0.0000 
     28 H          -0.7422   -0.8398   21.7692 H         1 X8E1271     0.0000 
     29 H           7.0513   -4.8696   16.9952 H         1 X8E1271     0.0000 
     30 H           7.3895   -0.9417   19.6513 H         1 X8E1271     0.0000 
     31 H           5.8370   -6.7152   16.0042 H         1 X8E1271     0.0000 
     32 H           4.7230   -7.3322   16.9863 H         1 X8E1271     0.0000 
     33 H           4.2779   -6.4322   15.7301 H         1 X8E1271     0.0000 
@<TRIPOS>BOND
     1    2    1 ar   
     2    8    1 ar   
     3   22    1 1    
     4   10    2 ar   
     5   23    2 1    
     6    6    3 ar   
     7    9    3 ar   
     8   24    3 1    
     9    7    4 ar   
    10    9    4 ar   
    11   25    4 1    
    12    8    5 ar   
    13   11    5 ar   
    14   26    5 1    
    15   17    6 ar   
    16   27    6 1    
    17   17    7 ar   
    18   28    7 1    
    19    9    8 1    
    20   11   10 ar   
    21   13   10 1    
    22   20   11 1    
    23   13   12 2    
    24   14   12 1    
    25   29   12 1    
    26   16   13 1    
    27   18   14 2    
    28   20   14 1    
    29   19   15 am   
    30   20   15 am   
    31   21   15 2    
    32   31   16 1    
    33   32   16 1    
    34   33   16 1    
    35   19   18 1    
    36   30   19 1    
@<TRIPOS>SUBSTRUCTURE
     1 X8E1271     1 GROUP   
@<TRIPOS>SET

