#    Name: 1xh8_R55_1_INTS_M
#    Modification time : Tue Mar 25 09:52:13 2014

@<TRIPOS>MOLECULE
1xh8_R55_1_INTS_M
  117     0    12     0     0
SMALL
NO_CHARGES


@<TRIPOS>ATOM
      1 CA         11.0400   26.2300   28.8345 C.3       4 GLC5        0.0000 
      2 CA         10.5630   25.4860   30.6780 C.3      12 GLL5        0.0000 
      3 CA         11.5170   26.9740   26.9910 C.3       8 GLP5        0.0000 
      4 CA         12.2165   23.0735   31.7740 C.3       4 GLC5        0.0000 
      5 CA         11.8060   24.8970   31.0070 C.3      12 GLL5        0.0000 
      6 CA         12.6270   21.2500   32.5410 C.3       8 GLP5        0.0000 
      7 CA         14.3000   24.0135   30.6355 C.3       4 GLC5        0.0000 
      8 CA         12.9150   25.6600   31.2670 C.3      12 GLL5        0.0000 
      9 CA         15.6850   22.3670   30.0040 C.3       8 GLP5        0.0000 
     10 CA         13.4315   23.8605   32.4265 C.3       4 GLC5        0.0000 
     11 CA         13.9480   22.0610   33.5860 C.3       8 GLP5        0.0000 
     12 CA         14.5395   26.6335   32.2515 C.3       4 GLC5        0.0000 
     13 CA         16.1640   27.6070   33.2360 C.3       8 GLP5        0.0000 
     14 CA         14.3850   25.9525   30.1110 C.3       4 GLC5        0.0000 
     15 CA         15.8550   26.2450   28.9550 C.3       8 GLP5        0.0000 
     16 N          14.2320   27.6440   31.1090 N.am      2 SEC2        0.0000 
     17 N          12.8290   27.0560   31.2310 N.am     10 SEL2        0.0000 
     18 N          15.6350   28.2320   30.9870 N.am      6 SEP2        0.0000 
     19 CA         12.2160   26.7000   32.8490 C.3       4 GLC5        0.0000 
     20 CA         11.6220   27.6480   30.9480 C.3      12 GLL5        0.0000 
     21 CA         12.8100   25.7520   34.7500 C.3       8 GLP5        0.0000 
     22 CA         13.5150   27.6555   29.7760 C.3       4 GLC5        0.0000 
     23 CA         15.4080   27.6630   28.6040 C.3       8 GLP5        0.0000 
     24 CA          8.6495   25.4875   27.1990 C.3       4 GLC5        0.0000 
     25 CA          6.9340   24.7440   27.9890 C.3      12 GLL5        0.0000 
     26 CA         10.3650   26.2310   26.4090 C.3       8 GLP5        0.0000 
     27 OD1         5.8590   22.6505   27.8870 O.co2     3 ASC3        0.0000 
     28 OD1         5.9500   23.8690   27.3210 O.co2    11 ASL3        0.0000 
     29 OD1         5.7680   21.4320   28.4530 O.co2     7 ASP3        0.0000 
     30 CA          4.1170   24.8945   25.2025 C.3       4 GLC5        0.0000 
     31 CA          4.5980   24.4440   27.2800 C.3      12 GLL5        0.0000 
     32 CA          3.6360   25.3450   23.1250 C.3       8 GLP5        0.0000 
     33 CA          6.6745   23.9760   32.1345 C.3       4 GLC5        0.0000 
     34 CA          5.8580   24.5450   30.3480 C.3      12 GLL5        0.0000 
     35 CA          7.4910   23.4070   33.9210 C.3       8 GLP5        0.0000 
     36 O           6.2655   21.8310   30.3405 O.2       1 ALC1        0.0000 
     37 O           5.4100   23.2430   30.8730 O.2       9 ALL1        0.0000 
     38 O           7.1210   20.4190   29.8080 O.2       5 ALP1        0.0000 
     39 O           5.5890   22.3375   29.6630 O.2       1 ALC1        0.0000 
     40 O           5.7680   21.4320   28.4530 O.2       5 ALP1        0.0000 
     41 CA          3.4840   22.7350   35.0745 C.3       4 GLC5        0.0000 
     42 CA          3.6170   21.4870   33.5960 C.3      12 GLL5        0.0000 
     43 CA          3.3510   23.9830   36.5530 C.3       8 GLP5        0.0000 
     44 CA          1.9855   20.8080   35.7680 C.3       4 GLC5        0.0000 
     45 CA          2.9930   20.2800   33.8300 C.3      12 GLL5        0.0000 
     46 CA          0.9780   21.3360   37.7060 C.3       8 GLP5        0.0000 
     47 N           0.0740   18.4265   34.6650 N.am      2 SEC2        0.0000 
     48 N           1.3050   18.1350   33.9870 N.am     10 SEL2        0.0000 
     49 N          -1.1570   18.7180   35.3430 N.am      6 SEP2        0.0000 
     50 CA          3.9075   15.8030   34.3435 C.3       4 GLC5        0.0000 
     51 CA          3.3190   16.1040   32.2800 C.3      12 GLL5        0.0000 
     52 CA          4.4960   15.5020   36.4070 C.3       8 GLP5        0.0000 
     53 N           5.4850   17.6185   32.5045 N.am      2 SEC2        0.0000 
     54 N           4.4000   16.5690   32.9660 N.am     10 SEL2        0.0000 
     55 N           6.5700   18.6680   32.0430 N.am      6 SEP2        0.0000 
     56 O           5.4165   15.7600   32.6780 O.2       1 ALC1        0.0000 
     57 O           4.4000   16.5690   32.9660 O.2       9 ALL1        0.0000 
     58 O           6.4330   14.9510   32.3900 O.2       5 ALP1        0.0000 
     59 CA          3.1495   13.6060   33.1250 C.3       4 GLC5        0.0000 
     60 CA          3.3990   14.9280   31.5560 C.3      12 GLL5        0.0000 
     61 CA          2.9000   12.2840   34.6940 C.3       8 GLP5        0.0000 
     62 CA         -0.8025   17.1975   32.1230 C.3       4 GLC5        0.0000 
     63 CA          1.0600   16.4430   31.5400 C.3      12 GLL5        0.0000 
     64 CA         -2.6650   17.9520   32.7060 C.3       8 GLP5        0.0000 
     65 CA         -1.0235   14.9485   32.0835 C.3       4 GLC5        0.0000 
     66 CA         -1.3000   15.5180   30.1670 C.3      12 GLL5        0.0000 
     67 CA         -0.7470   14.3790   34.0000 C.3       8 GLP5        0.0000 
     68 CA         -2.2990   14.4210   31.8495 C.3       4 GLC5        0.0000 
     69 CA         -2.5120   14.7300   29.6380 C.3      12 GLL5        0.0000 
     70 CA         -2.0860   14.1120   34.0610 C.3       8 GLP5        0.0000 
     71 CA         -1.8375   15.8190   25.7185 C.3       4 GLC5        0.0000 
     72 CA         -2.5650   14.5180   27.1180 C.3      12 GLL5        0.0000 
     73 CA         -1.1100   17.1200   24.3190 C.3       8 GLP5        0.0000 
     74 CA         -3.8040   14.9910   25.3070 C.3       4 GLC5        0.0000 
     75 CA         -5.0430   15.4640   23.4960 C.3       8 GLP5        0.0000 
     76 CA         -3.7710   12.9370   26.2475 C.3       4 GLC5        0.0000 
     77 CA         -4.9770   11.3560   25.3770 C.3       8 GLP5        0.0000 
     78 CA         -2.7800   11.7915   30.3695 C.3       4 GLC5        0.0000 
     79 CA         -3.2550   12.6340   28.5440 C.3      12 GLL5        0.0000 
     80 CA         -2.3050   10.9490   32.1950 C.3       8 GLP5        0.0000 
     81 CA         -1.5915   12.0175   30.3560 C.3       4 GLC5        0.0000 
     82 CA         -0.8780   13.0860   28.5170 C.3      12 GLL5        0.0000 
     83 CA          0.0420   11.2850   28.4745 C.3       4 GLC5        0.0000 
     84 CA          0.9620    9.4840   28.4320 C.3       8 GLP5        0.0000 
     85 CA         11.5083   24.0508   29.1908 C.3       4 GLC5        0.0000 
     86 CA         11.8320   22.9100   27.5390 C.3       8 GLP5        0.0000 
     87 CA         12.5853   25.5153   32.9435 C.3       4 GLC5        0.0000 
     88 CA         10.7847   28.3725   32.5643 C.3       4 GLC5        0.0000 
     89 CA         10.5160   29.4740   34.3110 C.3       8 GLP5        0.0000 
     90 CA         11.0607   27.8295   29.1262 C.3       4 GLC5        0.0000 
     91 CA         11.0680   28.3880   27.4350 C.3       8 GLP5        0.0000 
     92 CA          9.9309   25.6969   32.5559 C.3       4 GLC5        0.0000 
     93 CA         10.4850   26.8940   30.6870 C.3      12 GLL5        0.0000 
     94 CA          9.0270   25.3510   34.3470 C.3       8 GLP5        0.0000 
     95 CA          4.6498   26.3568   31.2225 C.3       4 GLC5        0.0000 
     96 CA          4.0540   27.8250   32.4070 C.3       8 GLP5        0.0000 
     97 CA          1.9800   21.7537   32.6935 C.3       4 GLC5        0.0000 
     98 CA          4.0490   21.8080   32.3040 C.3      12 GLL5        0.0000 
     99 CA          0.1270   21.8600   32.4370 C.3       8 GLP5        0.0000 
    100 CA          5.6620   22.5273   33.4355 C.3       4 GLC5        0.0000 
    101 CA          5.3925   20.5928   33.0830 C.3       4 GLC5        0.0000 
    102 CA          6.9520   19.5380   33.2160 C.3       8 GLP5        0.0000 
    103 CA          1.5183   20.8362   32.8747 C.3       4 GLC5        0.0000 
    104 CA          4.9307   19.6752   33.2642 C.3       4 GLC5        0.0000 
    105 CA          3.2723   18.8317   34.8828 C.3       4 GLC5        0.0000 
    106 CA          3.6350   17.8510   36.4530 C.3       8 GLP5        0.0000 
    107 CA          1.8390   21.0690   31.9067 C.3       4 GLC5        0.0000 
    108 CA          3.2270   19.6700   31.4940 C.3      12 GLL5        0.0000 
    109 CA          5.2515   19.9080   32.2963 C.3       4 GLC5        0.0000 
    110 CA          4.1400   14.3957   29.9913 C.3       4 GLC5        0.0000 
    111 CA          5.4250   14.0690   28.7890 C.3       8 GLP5        0.0000 
    112 CA         -2.2855   16.5380   31.3043 C.3       4 GLC5        0.0000 
    113 CA         -4.2285   12.3523   27.5915 C.3       4 GLC5        0.0000 
    114 CA         -2.2610   13.7830   28.4420 C.3      12 GLL5        0.0000 
    115 CA         -5.6990   11.4960   26.6900 C.3       8 GLP5        0.0000 
    116 CA          0.9273   13.7190   27.1997 C.3       4 GLC5        0.0000 
    117 CA          2.1680   13.8590   25.7530 C.3       8 GLP5        0.0000 
@<TRIPOS>BOND
@<TRIPOS>SUBSTRUCTURE
     1 ALC1       36 GROUP        1 X    ALC  0     ROOT ALC X 1
     2 SEC2       16 GROUP        1 X    SEC  0     **** SEC X 2
     3 ASC3       27 GROUP        1 X    ASC  0     **** ASC X 3
     4 GLC5        1 GROUP        1 X    GLC  0     **** GLC X 6
     5 ALP1       38 GROUP        1 Y    ALP  0     ROOT ALP Y 8
     6 SEP2       18 GROUP        1 Y    SEP  0     **** SEP Y 9
     7 ASP3       29 GROUP        1 Y    ASP  0     **** ASP Y 10
     8 GLP5        3 GROUP        1 Y    GLP  0     **** GLP Y 13
     9 ALL1       37 GROUP        1 Z    ALL  0     ROOT ALL Z 15
    10 SEL2       17 GROUP        1 Z    SEL  0     **** SEL Z 16
    11 ASL3       28 GROUP        1 Z    ASL  0     **** ASL Z 17
    12 GLL5        2 GROUP        1 Z    GLL  0     **** GLL Z 20
@<TRIPOS>SET

