#    Name: 1xh8_R55_1_ligand
#    Modification time : Tue Mar 25 09:52:13 2014

@<TRIPOS>MOLECULE
1xh8_R55_1_ligand
   80    84     1     0     0
SMALL
NO_CHARGES


@<TRIPOS>ATOM
      1 O22         9.5910   23.3280   30.4020 O.2       1 R55351      0.0000 
      2 C21         9.4400   24.5770   30.3900 C.2       1 R55351      0.0000 
      3 C14        10.5630   25.4860   30.6780 C.ar      1 R55351      0.0000 
      4 C13        11.8060   24.8970   31.0070 C.ar      1 R55351      0.0000 
      5 C12        12.9150   25.6600   31.2670 C.ar      1 R55351      0.0000 
      6 N11        12.8290   27.0560   31.2310 N.ar      1 R55351      0.0000 
      7 C16        11.6220   27.6480   30.9480 C.ar      1 R55351      0.0000 
      8 C15        10.4850   26.8940   30.6870 C.ar      1 R55351      0.0000 
      9 N23         8.2020   25.1480   30.0800 N.am      1 R55351      0.0000 
     10 C31         7.1180   24.3660   29.4670 C.3       1 R55351      0.0000 
     11 C32         6.9340   24.7440   27.9890 C.3       1 R55351      0.0000 
     12 N33         5.9500   23.8690   27.3210 N.4       1 R55351      0.0000 
     13 C34         4.5980   24.4440   27.2800 C.3       1 R55351      0.0000 
     14 C35         3.9510   24.3730   28.6650 C.3       1 R55351      0.0000 
     15 C36         4.6330   25.2320   29.7280 C.3       1 R55351      0.0000 
     16 C37         5.8580   24.5450   30.3480 C.3       1 R55351      0.0000 
     17 N41         5.4100   23.2430   30.8730 N.am      1 R55351      0.0000 
     18 C42         4.6510   23.0960   32.0210 C.2       1 R55351      0.0000 
     19 O43         4.3750   24.0660   32.7350 O.2       1 R55351      0.0000 
     20 C51         4.0490   21.8080   32.3040 C.ar      1 R55351      0.0000 
     21 C52         3.6170   21.4870   33.5960 C.ar      1 R55351      0.0000 
     22 C53         2.9930   20.2800   33.8300 C.ar      1 R55351      0.0000 
     23 C56         3.8750   20.8860   31.2590 C.ar      1 R55351      0.0000 
     24 C55         3.2270   19.6700   31.4940 C.ar      1 R55351      0.0000 
     25 C54         2.8260   19.3450   32.7950 C.ar      1 R55351      0.0000 
     26 C61         2.0950   18.1080   33.0630 C.2       1 R55351      0.0000 
     27 O62         1.3050   18.1350   33.9870 O.2       1 R55351      0.0000 
     28 C71         2.1590   16.8570   32.2890 C.ar      1 R55351      0.0000 
     29 C72         3.3190   16.1040   32.2800 C.ar      1 R55351      0.0000 
     30 O99         4.4000   16.5690   32.9660 O.3       1 R55351      0.0000 
     31 C73         3.3990   14.9280   31.5560 C.ar      1 R55351      0.0000 
     32 C74         2.3110   14.5170   30.8310 C.ar      1 R55351      0.0000 
     33 C75         1.1180   15.2630   30.7970 C.ar      1 R55351      0.0000 
     34 C76         1.0600   16.4430   31.5400 C.ar      1 R55351      0.0000 
     35 N91         0.0010   14.8070   30.0360 N.3       1 R55351      0.0000 
     36 C92        -1.3000   15.5180   30.1670 C.3       1 R55351      0.0000 
     37 C93        -2.5120   14.7300   29.6380 C.3       1 R55351      0.0000 
     38 C94        -2.2610   13.7830   28.4420 C.3       1 R55351      0.0000 
     39 C97        -2.5650   14.5180   27.1180 C.3       1 R55351      0.0000 
     40 C98        -3.2550   12.6340   28.5440 C.3       1 R55351      0.0000 
     41 C95        -0.8780   13.0860   28.5170 C.3       1 R55351      0.0000 
     42 C96         0.2510   14.0720   28.7760 C.3       1 R55351      0.0000 
     43 H          11.8609   23.8606   31.0478 H         1 R55351      0.0000 
     44 H          13.8182   25.2170   31.4903 H         1 R55351      0.0000 
     45 H          11.5509   28.6879   30.9271 H         1 R55351      0.0000 
     46 H           9.5874   27.3508   30.5003 H         1 R55351      0.0000 
     47 H           8.0142   26.1396   30.2741 H         1 R55351      0.0000 
     48 H           7.3938   23.3021   29.5166 H         1 R55351      0.0000 
     49 H           7.9107   24.6729   27.4941 H         1 R55351      0.0000 
     50 H           6.6117   25.7918   27.9420 H         1 R55351      0.0000 
     51 H           3.9656   23.8968   26.5769 H         1 R55351      0.0000 
     52 H           4.6317   25.4911   26.9698 H         1 R55351      0.0000 
     53 H           3.9479   23.3213   29.0027 H         1 R55351      0.0000 
     54 H           2.8937   24.6814   28.5800 H         1 R55351      0.0000 
     55 H           3.9139   25.4599   30.5230 H         1 R55351      0.0000 
     56 H           4.9482   26.1801   29.2775 H         1 R55351      0.0000 
     57 H           6.1573   25.1571   31.2322 H         1 R55351      0.0000 
     58 H           5.7002   22.4055   30.3218 H         1 R55351      0.0000 
     59 H           3.7688   22.1552   34.3616 H         1 R55351      0.0000 
     60 H           2.6402   20.0498   34.7735 H         1 R55351      0.0000 
     61 H           4.2259   21.1086   30.3205 H         1 R55351      0.0000 
     62 H           3.0473   19.0237   30.7237 H         1 R55351      0.0000 
     63 H           4.2637   14.3751   31.5654 H         1 R55351      0.0000 
     64 H           2.3523   13.6310   30.2852 H         1 R55351      0.0000 
     65 H           0.2005   17.0092   31.5337 H         1 R55351      0.0000 
     66 H          -1.2589   16.4842   29.6271 H         1 R55351      0.0000 
     67 H          -1.4907   15.7648   31.2298 H         1 R55351      0.0000 
     68 H          -3.3069   15.4530   29.3508 H         1 R55351      0.0000 
     69 H          -2.9385   14.1325   30.4736 H         1 R55351      0.0000 
     70 H          -0.7011   12.5649   27.5724 H         1 R55351      0.0000 
     71 H          -0.9077   12.3428   29.3182 H         1 R55351      0.0000 
     72 H           1.1908   13.5206   28.8374 H         1 R55351      0.0000 
     73 H           0.3098   14.7662   27.9360 H         1 R55351      0.0000 
     74 H          -1.9851   15.3239   26.9990 H         1 R55351      0.0000 
     75 H          -2.4154   13.9293   26.3236 H         1 R55351      0.0000 
     76 H          -3.5139   14.8309   27.0763 H         1 R55351      0.0000 
     77 H          -3.1480   11.9825   27.7929 H         1 R55351      0.0000 
     78 H          -3.1436   12.1210   29.3951 H         1 R55351      0.0000 
     79 H          -4.2008   12.9578   28.5186 H         1 R55351      0.0000 
     80 H           4.9732   15.7645   33.1217 H         1 R55351      0.0000 
@<TRIPOS>BOND
     1    2    1 2    
     2    3    2 1    
     3    9    2 am   
     4    4    3 ar   
     5    8    3 ar   
     6    5    4 ar   
     7   43    4 1    
     8    6    5 ar   
     9   44    5 1    
    10    7    6 ar   
    11    8    7 ar   
    12   45    7 1    
    13   46    8 1    
    14   10    9 1    
    15   47    9 1    
    16   11   10 1    
    17   16   10 1    
    18   48   10 1    
    19   12   11 1    
    20   49   11 1    
    21   50   11 1    
    22   13   12 1    
    23   14   13 1    
    24   51   13 1    
    25   52   13 1    
    26   15   14 1    
    27   53   14 1    
    28   54   14 1    
    29   16   15 1    
    30   55   15 1    
    31   56   15 1    
    32   17   16 1    
    33   57   16 1    
    34   18   17 am   
    35   58   17 1    
    36   19   18 2    
    37   20   18 1    
    38   21   20 ar   
    39   23   20 ar   
    40   22   21 ar   
    41   59   21 1    
    42   25   22 ar   
    43   60   22 1    
    44   24   23 ar   
    45   61   23 1    
    46   25   24 ar   
    47   62   24 1    
    48   26   25 1    
    49   27   26 2    
    50   28   26 1    
    51   29   28 ar   
    52   34   28 ar   
    53   30   29 1    
    54   31   29 ar   
    55   80   30 1    
    56   32   31 ar   
    57   63   31 1    
    58   33   32 ar   
    59   64   32 1    
    60   34   33 ar   
    61   35   33 1    
    62   65   34 1    
    63   36   35 1    
    64   42   35 1    
    65   37   36 1    
    66   66   36 1    
    67   67   36 1    
    68   38   37 1    
    69   68   37 1    
    70   69   37 1    
    71   39   38 1    
    72   40   38 1    
    73   41   38 1    
    74   74   39 1    
    75   75   39 1    
    76   76   39 1    
    77   77   40 1    
    78   78   40 1    
    79   79   40 1    
    80   42   41 1    
    81   70   41 1    
    82   71   41 1    
    83   72   42 1    
    84   73   42 1    
@<TRIPOS>SUBSTRUCTURE
     1 R55351      1 GROUP   
@<TRIPOS>SET

