#    Name: 3rz3_U94_3_INTS_M
#    Modification time : Tue Mar 25 12:05:49 2014

@<TRIPOS>MOLECULE
3rz3_U94_3_INTS_M
   72     0     6     0     0
SMALL
NO_CHARGES


@<TRIPOS>ATOM
      1 CA        -36.6160  -42.7895   -6.9280 C.3       2 GLC5        0.0000 
      2 CA        -38.6000  -43.3430   -7.2330 C.3       6 GLL5        0.0000 
      3 CA        -34.6320  -42.2360   -6.6230 C.3       4 GLP5        0.0000 
      4 CA        -36.8185  -43.6810   -5.4635 C.3       2 GLC5        0.0000 
      5 CA        -38.2530  -44.7430   -6.6990 C.3       6 GLL5        0.0000 
      6 CA        -35.3840  -42.6190   -4.2280 C.3       4 GLP5        0.0000 
      7 CA        -35.7075  -44.2545   -6.3050 C.3       2 GLC5        0.0000 
      8 CA        -36.9740  -45.4480   -7.2720 C.3       6 GLL5        0.0000 
      9 CA        -34.4410  -43.0610   -5.3380 C.3       4 GLP5        0.0000 
     10 N         -35.4380  -45.4550   -3.8875 N.am      1 SEC2        0.0000 
     11 N         -35.7730  -46.2760   -4.8800 N.am      5 SEL2        0.0000 
     12 N         -35.1030  -44.6340   -2.8950 N.am      3 SEP2        0.0000 
     13 CA        -37.1635  -47.4455   -3.6160 C.3       2 GLC5        0.0000 
     14 CA        -36.5090  -48.5260   -5.0660 C.3       6 GLL5        0.0000 
     15 CA        -37.8180  -46.3650   -2.1660 C.3       4 GLP5        0.0000 
     16 CA        -34.5670  -48.6180   -5.4540 C.3       2 GLC5        0.0000 
     17 CA        -32.6250  -48.7100   -5.8420 C.3       4 GLP5        0.0000 
     18 CA        -38.6590  -51.8885   -6.5130 C.3       2 GLC5        0.0000 
     19 CA        -37.8030  -50.3090   -5.7610 C.3       6 GLL5        0.0000 
     20 CA        -39.5150  -53.4680   -7.2650 C.3       4 GLP5        0.0000 
     21 CA        -39.7735  -50.0550   -6.0390 C.3       2 GLC5        0.0000 
     22 CA        -41.7440  -49.8010   -6.3170 C.3       4 GLP5        0.0000 
     23 CA        -37.2755  -51.7380   -5.0825 C.3       2 GLC5        0.0000 
     24 CA        -36.7480  -53.1670   -4.4040 C.3       4 GLP5        0.0000 
     25 CA        -31.6585  -43.0660   -8.9740 C.3       2 GLC5        0.0000 
     26 CA        -33.1030  -44.3600   -9.6090 C.3       6 GLL5        0.0000 
     27 CA        -30.2140  -41.7720   -8.3390 C.3       4 GLP5        0.0000 
     28 CA        -26.1880  -46.7265   -7.8785 C.3       2 GLC5        0.0000 
     29 CA        -27.8770  -46.8060   -6.9990 C.3       6 GLL5        0.0000 
     30 CA        -24.4990  -46.6470   -8.7580 C.3       4 GLP5        0.0000 
     31 CA        -27.8960  -45.0690   -6.1965 C.3       2 GLC5        0.0000 
     32 CA        -27.9150  -43.3320   -5.3940 C.3       4 GLP5        0.0000 
     33 CA        -29.0490  -47.5200   -5.7975 C.3       2 GLC5        0.0000 
     34 CA        -30.2210  -48.2340   -4.5960 C.3       4 GLP5        0.0000 
     35 CA        -26.7425  -47.1615   -5.7385 C.3       2 GLC5        0.0000 
     36 CA        -25.6080  -47.5170   -4.4780 C.3       4 GLP5        0.0000 
     37 CA        -28.2130  -47.8920   -8.7300 C.3       2 GLC5        0.0000 
     38 CA        -28.5490  -48.9780  -10.4610 C.3       4 GLP5        0.0000 
     39 CA        -26.1095  -42.2730  -11.2360 C.3       2 GLC5        0.0000 
     40 CA        -27.7890  -43.6560  -11.2650 C.3       6 GLL5        0.0000 
     41 CA        -24.4300  -40.8900  -11.2070 C.3       4 GLP5        0.0000 
     42 CA        -26.4930  -44.6735  -11.9830 C.3       2 GLC5        0.0000 
     43 CA        -25.1970  -45.6910  -12.7010 C.3       4 GLP5        0.0000 
     44 CA        -29.0015  -42.7140   -9.8020 C.3       2 GLC5        0.0000 
     45 CA        -35.2758  -43.8780   -7.7648 C.3       2 GLC5        0.0000 
     46 CA        -35.1440  -45.5170   -8.9900 C.3       6 GLL5        0.0000 
     47 CA        -34.2145  -43.3060   -8.0880 C.3       2 GLC5        0.0000 
     48 CA        -34.4910  -44.3920   -9.4970 C.3       6 GLL5        0.0000 
     49 CA        -35.0996  -46.4435  -10.6624 C.3       2 GLC5        0.0000 
     50 CA        -34.9940  -47.9310  -12.1230 C.3       4 GLP5        0.0000 
     51 CA        -34.3275  -47.2557  -10.3935 C.3       2 GLC5        0.0000 
     52 CA        -32.9670  -46.5580   -8.7300 C.3       6 GLL5        0.0000 
     53 CA        -31.3784  -47.4856  -10.0032 C.3       2 GLC5        0.0000 
     54 CA        -32.3140  -45.4470   -9.2540 C.3       6 GLL5        0.0000 
     55 CA        -30.9860  -49.2870  -10.8540 C.3       4 GLP5        0.0000 
     56 CA        -29.8457  -43.1728   -9.2698 C.3       2 GLC5        0.0000 
     57 CA        -30.1760  -44.5930  -10.2400 C.3       6 GLL5        0.0000 
     58 CA        -28.1165  -44.8700  -12.5445 C.3       2 GLC5        0.0000 
     59 CA        -28.7790  -44.5540  -10.1610 C.3       6 GLL5        0.0000 
     60 CA        -27.9490  -45.6350  -14.3760 C.3       4 GLP5        0.0000 
     61 CA        -28.4952  -46.9373  -10.0613 C.3       2 GLC5        0.0000 
     62 CA        -26.4730  -46.1270   -8.7233 C.3       2 GLC5        0.0000 
     63 CA        -28.1040  -45.2390   -9.1620 C.3       6 GLL5        0.0000 
     64 CA        -28.1810  -44.4695   -7.0412 C.3       2 GLC5        0.0000 
     65 CA        -29.2050  -44.0875   -7.9123 C.3       2 GLC5        0.0000 
     66 CA        -28.7900  -45.9750   -8.2150 C.3       6 GLL5        0.0000 
     67 CA        -29.9630  -42.5680   -7.1360 C.3       4 GLP5        0.0000 
     68 CA        -30.0920  -45.8745   -6.3342 C.3       2 GLC5        0.0000 
     69 CA        -30.7010  -45.7470   -4.4100 C.3       4 GLP5        0.0000 
     70 CA        -29.0160  -47.4900   -9.3598 C.3       2 GLC5        0.0000 
     71 CA        -30.1760  -46.0290   -8.3020 C.3       6 GLL5        0.0000 
     72 CA        -30.4274  -44.1429   -7.9644 C.3       2 GLC5        0.0000 
@<TRIPOS>BOND
@<TRIPOS>SUBSTRUCTURE
     1 SEC2       10 GROUP        1 X    SEC  0     ROOT SEC X 2
     2 GLC5        1 GROUP        1 X    GLC  0     **** GLC X 6
     3 SEP2       12 GROUP        1 Y    SEP  0     ROOT SEP Y 9
     4 GLP5        3 GROUP        1 Y    GLP  0     **** GLP Y 13
     5 SEL2       11 GROUP        1 Z    SEL  0     ROOT SEL Z 16
     6 GLL5        2 GROUP        1 Z    GLL  0     **** GLL Z 20
@<TRIPOS>SET

