#    Name: 3rz3_U94_3_ligand
#    Modification time : Tue Mar 25 12:05:49 2014

@<TRIPOS>MOLECULE
3rz3_U94_3_ligand
   49    50     1     0     0
SMALL
NO_CHARGES


@<TRIPOS>ATOM
      1 O1        -40.0230  -43.2230   -5.2690 O.co2     1 U941        0.0000 
      2 C2        -39.4940  -42.5700   -6.2120 C.2       1 U941        0.0000 
      3 C3        -38.6000  -43.3430   -7.2330 C.3       1 U941        0.0000 
      4 O4        -39.6210  -41.3320   -6.4020 O.co2     1 U941        0.0000 
      5 C5        -38.2530  -44.7430   -6.6990 C.3       1 U941        0.0000 
      6 C6        -36.9740  -45.4480   -7.2720 C.3       1 U941        0.0000 
      7 C7        -36.6950  -45.5230   -8.8230 C.3       1 U941        0.0000 
      8 O8        -39.3030  -43.5070   -8.4450 O.3       1 U941        0.0000 
      9 O9        -39.4200  -45.5770   -6.7930 O.3       1 U941        0.0000 
     10 N10       -36.9910  -46.7970   -6.6930 N.am      1 U941        0.0000 
     11 C11       -36.4030  -47.0890   -5.5460 C.2       1 U941        0.0000 
     12 O12       -35.7730  -46.2760   -4.8800 O.2       1 U941        0.0000 
     13 C13       -36.5090  -48.5260   -5.0660 C.3       1 U941        0.0000 
     14 O14       -37.8100  -48.9360   -5.4600 O.3       1 U941        0.0000 
     15 C15       -37.8030  -50.3090   -5.7610 C.3       1 U941        0.0000 
     16 C16       -35.1440  -45.5170   -8.9900 C.ar      1 U941        0.0000 
     17 C17       -34.4910  -44.3920   -9.4970 C.ar      1 U941        0.0000 
     18 C18       -33.1030  -44.3600   -9.6090 C.ar      1 U941        0.0000 
     19 C19       -32.3140  -45.4470   -9.2540 C.ar      1 U941        0.0000 
     20 C20       -32.9670  -46.5580   -8.7300 C.ar      1 U941        0.0000 
     21 C21       -34.3550  -46.6030   -8.5980 C.ar      1 U941        0.0000 
     22 C22       -30.9010  -45.3660   -9.3130 C.ar      1 U941        0.0000 
     23 C23       -30.1760  -44.5930  -10.2400 C.ar      1 U941        0.0000 
     24 C24       -28.7790  -44.5540  -10.1610 C.ar      1 U941        0.0000 
     25 C25       -28.1040  -45.2390   -9.1620 C.ar      1 U941        0.0000 
     26 C26       -28.7900  -45.9750   -8.2150 C.ar      1 U941        0.0000 
     27 C27       -30.1760  -46.0290   -8.3020 C.ar      1 U941        0.0000 
     28 CL28      -27.8770  -46.8060   -6.9990 Cl        1 U941        0.0000 
     29 CL29      -27.7890  -43.6560  -11.2650 Cl        1 U941        0.0000 
     30 H         -37.6917  -42.7953   -7.3618 H         1 U941        0.0000 
     31 H         -38.0447  -44.5986   -5.5891 H         1 U941        0.0000 
     32 H         -36.0979  -44.9263   -6.8039 H         1 U941        0.0000 
     33 H         -37.1068  -44.6629   -9.2884 H         1 U941        0.0000 
     34 H         -37.0904  -46.4327   -9.1999 H         1 U941        0.0000 
     35 H         -37.5055  -47.5139   -7.2582 H         1 U941        0.0000 
     36 H         -36.3825  -48.5356   -3.9965 H         1 U941        0.0000 
     37 H         -35.7350  -49.1010   -5.5460 H         1 U941        0.0000 
     38 H         -35.0464  -43.5723   -9.7929 H         1 U941        0.0000 
     39 H         -32.6456  -43.4969   -9.9689 H         1 U941        0.0000 
     40 H         -32.4052  -47.3802   -8.4272 H         1 U941        0.0000 
     41 H         -34.8049  -47.4444   -8.2078 H         1 U941        0.0000 
     42 H         -30.6683  -44.0669  -10.9621 H         1 U941        0.0000 
     43 H         -27.0680  -45.1969   -9.1269 H         1 U941        0.0000 
     44 H         -30.7094  -46.5806   -7.5940 H         1 U941        0.0000 
     45 H         -37.1683  -50.5232   -6.5035 H         1 U941        0.0000 
     46 H         -37.5293  -50.8606   -4.9731 H         1 U941        0.0000 
     47 H         -38.7059  -50.6315   -6.0451 H         1 U941        0.0000 
     48 H         -39.6413  -44.4477   -8.4225 H         1 U941        0.0000 
     49 H         -40.0897  -45.1546   -6.1822 H         1 U941        0.0000 
@<TRIPOS>BOND
     1    2    1 ar   
     2    3    2 1    
     3    4    2 ar   
     4    5    3 1    
     5    8    3 1    
     6   30    3 1    
     7    6    5 1    
     8    9    5 1    
     9   31    5 1    
    10    7    6 1    
    11   10    6 1    
    12   32    6 1    
    13   16    7 1    
    14   33    7 1    
    15   34    7 1    
    16   48    8 1    
    17   49    9 1    
    18   11   10 am   
    19   35   10 1    
    20   12   11 2    
    21   13   11 1    
    22   14   13 1    
    23   36   13 1    
    24   37   13 1    
    25   15   14 1    
    26   45   15 1    
    27   46   15 1    
    28   47   15 1    
    29   17   16 ar   
    30   21   16 ar   
    31   18   17 ar   
    32   38   17 1    
    33   19   18 ar   
    34   39   18 1    
    35   20   19 ar   
    36   22   19 1    
    37   21   20 ar   
    38   40   20 1    
    39   41   21 1    
    40   23   22 ar   
    41   27   22 ar   
    42   24   23 ar   
    43   42   23 1    
    44   25   24 ar   
    45   29   24 1    
    46   26   25 ar   
    47   43   25 1    
    48   27   26 ar   
    49   28   26 1    
    50   44   27 1    
@<TRIPOS>SUBSTRUCTURE
     1 U941        1 GROUP   
@<TRIPOS>SET

