#    Name: 3c3y_SAH_2_INTS_M
#    Modification time : Mon Mar 24 20:28:33 2014

@<TRIPOS>MOLECULE
3c3y_SAH_2_INTS_M
   75     0    12     0     0
SMALL
NO_CHARGES


@<TRIPOS>ATOM
      1 OD1        -0.0975   -3.8685   -7.7195 O.co2     3 ASC3        0.0000 
      2 OD1        -0.9560   -4.9050   -8.1950 O.co2    11 ASL3        0.0000 
      3 OD1         0.7610   -2.8320   -7.2440 O.co2     7 ASP3        0.0000 
      4 O          -1.5140   -4.3755   -9.4095 O.2       1 ALC1        0.0000 
      5 O          -0.9560   -4.9050   -8.1950 O.2       9 ALL1        0.0000 
      6 O          -2.0720   -3.8460  -10.6240 O.2       5 ALP1        0.0000 
      7 O          -2.1180   -5.3265   -7.4275 O.2       1 ALC1        0.0000 
      8 O          -3.2800   -5.7480   -6.6600 O.2       5 ALP1        0.0000 
      9 O          -0.0975   -3.8685   -7.7195 O.2       1 ALC1        0.0000 
     10 O           0.7610   -2.8320   -7.2440 O.2       5 ALP1        0.0000 
     11 CA         -1.3020   -6.0525  -10.5065 C.3       4 GLC5        0.0000 
     12 CA         -0.0620   -5.9230   -8.8280 C.3      12 GLL5        0.0000 
     13 CA         -2.5420   -6.1820  -12.1850 C.3       8 GLP5        0.0000 
     14 CA         -0.1860   -3.4370  -11.4865 C.3       4 GLC5        0.0000 
     15 CA          1.2800   -4.3780  -10.4220 C.3      12 GLL5        0.0000 
     16 CA         -1.6520   -2.4960  -12.5510 C.3       8 GLP5        0.0000 
     17 CA          4.9605   -4.6325  -11.3140 C.3       4 GLC5        0.0000 
     18 CA          2.9890   -4.2350  -10.9550 C.3      12 GLL5        0.0000 
     19 CA          6.9320   -5.0300  -11.6730 C.3       8 GLP5        0.0000 
     20 N           0.7525   -7.4035   -5.7770 N.am      2 SEC2        0.0000 
     21 N          -0.4520   -7.2580   -6.8290 N.am     10 SEL2        0.0000 
     22 N           1.9570   -7.5490   -4.7250 N.am      6 SEP2        0.0000 
     23 N          -0.2395   -6.3595   -5.8720 N.am      2 SEC2        0.0000 
     24 N          -0.0270   -5.4610   -4.9150 N.am      6 SEP2        0.0000 
     25 N          -1.7715   -7.9120   -6.2735 N.am      2 SEC2        0.0000 
     26 N          -3.0910   -8.5660   -5.7180 N.am      6 SEP2        0.0000 
     27 CA          0.1635   -2.9280  -12.9790 C.3       4 GLC5        0.0000 
     28 CA          1.9790   -3.3600  -13.4070 C.3      12 GLL5        0.0000 
     29 CA          2.1655   -5.9845  -13.0680 C.3       4 GLC5        0.0000 
     30 CA          2.6670   -4.3170  -14.3700 C.3      12 GLL5        0.0000 
     31 CA          1.6640   -7.6520  -11.7660 C.3       8 GLP5        0.0000 
     32 O           0.8700   -5.3330  -15.7930 O.2       1 ALC1        0.0000 
     33 O           1.9040   -5.5050  -14.4660 O.2       9 ALL1        0.0000 
     34 O          -0.1640   -5.1610  -17.1200 O.2       5 ALP1        0.0000 
     35 O           0.6095   -5.2570  -14.7305 O.2       1 ALC1        0.0000 
     36 O          -0.6850   -5.0090  -14.9950 O.2       5 ALP1        0.0000 
     37 O           1.1255   -4.7710  -16.9785 O.2       1 ALC1        0.0000 
     38 O           2.4150   -4.3810  -16.8370 O.2       9 ALL1        0.0000 
     39 CA         -0.0150   -2.5145  -14.0380 C.3       4 GLC5        0.0000 
     40 CA          1.6220   -2.5330  -15.5250 C.3      12 GLL5        0.0000 
     41 CA          0.8190   -0.7295  -14.5265 C.3       4 GLC5        0.0000 
     42 CA          0.0160    1.0740  -13.5280 C.3       8 GLP5        0.0000 
     43 CA          2.7165    1.7205  -16.4955 C.3       4 GLC5        0.0000 
     44 CA          1.3850    0.3800  -17.7050 C.3      12 GLL5        0.0000 
     45 CA          4.0480    3.0610  -15.2860 C.3       8 GLP5        0.0000 
     46 CA         -1.2220    1.8095  -17.9390 C.3       4 GLC5        0.0000 
     47 CA          0.6080    1.1210  -18.6020 C.3      12 GLL5        0.0000 
     48 CA         -3.0520    2.4980  -17.2760 C.3       8 GLP5        0.0000 
     49 O           0.3140    2.8385  -20.4870 O.2       1 ALC1        0.0000 
     50 O           1.0600    2.2380  -19.1750 O.2       9 ALL1        0.0000 
     51 O          -0.4320    3.4390  -21.7990 O.2       5 ALP1        0.0000 
     52 N          -1.8155    1.3585  -19.2905 N.am      2 SEC2        0.0000 
     53 N          -0.6680    0.6900  -18.9000 N.am     10 SEL2        0.0000 
     54 N          -2.9630    2.0270  -19.6810 N.am      6 SEP2        0.0000 
     55 CA         -2.0280   -2.1635  -17.8470 C.3       4 GLC5        0.0000 
     56 CA         -1.1590   -0.4610  -18.3160 C.3      12 GLL5        0.0000 
     57 CA         -2.8970   -3.8660  -17.3780 C.3       8 GLP5        0.0000 
     58 CA         -0.7625   -1.6820  -19.8740 C.3       4 GLC5        0.0000 
     59 CA         -0.3660   -2.9030  -21.4320 C.3       8 GLP5        0.0000 
     60 CA         -1.8280    0.3340  -20.1000 C.3       4 GLC5        0.0000 
     61 CA         -2.4970    1.1290  -21.8840 C.3       8 GLP5        0.0000 
     62 CA         -2.1055    1.0185  -17.7960 C.3       4 GLC5        0.0000 
     63 N          -0.9105   -2.4590  -18.3755 N.am      2 SEC2        0.0000 
     64 N          -0.3950   -1.1920  -17.4410 N.am     10 SEL2        0.0000 
     65 N          -1.4260   -3.7260  -19.3100 N.am      6 SEP2        0.0000 
     66 CA          1.1367   -6.6310  -10.3875 C.3       4 GLC5        0.0000 
     67 CA          1.2810   -5.2970   -9.1900 C.3      12 GLL5        0.0000 
     68 CA          1.8992   -5.9793  -11.2273 C.3       4 GLC5        0.0000 
     69 CA          1.6898   -1.2485  -12.6072 C.3       4 GLC5        0.0000 
     70 CA          2.8280   -2.9420  -12.2120 C.3      12 GLL5        0.0000 
     71 CA          0.9760    0.6540  -12.4050 C.3       8 GLP5        0.0000 
     72 CA          2.5513   -2.9407  -17.5648 C.3       4 GLC5        0.0000 
     73 CA          2.9430   -2.8260  -19.5140 C.3       8 GLP5        0.0000 
     74 CA          0.5697    0.4380  -15.4752 C.3       4 GLC5        0.0000 
     75 CA          0.8620   -0.7760  -17.1400 C.3      12 GLL5        0.0000 
@<TRIPOS>BOND
@<TRIPOS>SUBSTRUCTURE
     1 ALC1        4 GROUP        1 X    ALC  0     ROOT ALC X 1
     2 SEC2       20 GROUP        1 X    SEC  0     **** SEC X 2
     3 ASC3        1 GROUP        1 X    ASC  0     **** ASC X 3
     4 GLC5       11 GROUP        1 X    GLC  0     **** GLC X 6
     5 ALP1        6 GROUP        1 Y    ALP  0     ROOT ALP Y 8
     6 SEP2       22 GROUP        1 Y    SEP  0     **** SEP Y 9
     7 ASP3        3 GROUP        1 Y    ASP  0     **** ASP Y 10
     8 GLP5       13 GROUP        1 Y    GLP  0     **** GLP Y 13
     9 ALL1        5 GROUP        1 Z    ALL  0     ROOT ALL Z 15
    10 SEL2       21 GROUP        1 Z    SEL  0     **** SEL Z 16
    11 ASL3        2 GROUP        1 Z    ASL  0     **** ASL Z 17
    12 GLL5       12 GROUP        1 Z    GLL  0     **** GLL Z 20
@<TRIPOS>SET

