#    Name: 3c3y_SAH_2_ligand
#    Modification time : Mon Mar 24 20:28:33 2014

@<TRIPOS>MOLECULE
3c3y_SAH_2_ligand
   46    48     1     0     0
SMALL
NO_CHARGES


@<TRIPOS>ATOM
      1 N          -0.9560   -4.9050   -8.1950 N.4       1 SAH465      0.0000 
      2 CA         -0.0620   -5.9230   -8.8280 C.3       1 SAH465      0.0000 
      3 CB          1.2810   -5.2970   -9.1900 C.3       1 SAH465      0.0000 
      4 CG          1.2800   -4.3780  -10.4220 C.3       1 SAH465      0.0000 
      5 SD          2.9890   -4.2350  -10.9550 S.3       1 SAH465      0.0000 
      6 C           0.0990   -7.1680   -7.9470 C.2       1 SAH465      0.0000 
      7 O           0.7810   -8.1020   -8.3880 O.co2     1 SAH465      0.0000 
      8 OXT        -0.4520   -7.2580   -6.8290 O.co2     1 SAH465      0.0000 
      9 C5'         2.8280   -2.9420  -12.2120 C.3       1 SAH465      0.0000 
     10 C4'         1.9790   -3.3600  -13.4070 C.3       1 SAH465      0.0000 
     11 O4'         1.6950   -2.1880  -14.1530 O.3       1 SAH465      0.0000 
     12 C3'         2.6670   -4.3170  -14.3700 C.3       1 SAH465      0.0000 
     13 O3'         1.9040   -5.5050  -14.4660 O.3       1 SAH465      0.0000 
     14 C2'         2.6970   -3.5780  -15.7060 C.3       1 SAH465      0.0000 
     15 O2'         2.4150   -4.3810  -16.8370 O.3       1 SAH465      0.0000 
     16 C1'         1.6220   -2.5330  -15.5250 C.3       1 SAH465      0.0000 
     17 N9          1.8150   -1.3110  -16.3260 N.pl3     1 SAH465      0.0000 
     18 C8          2.9140   -0.4920  -16.3820 C.2       1 SAH465      0.0000 
     19 N7          2.6470    0.5220  -17.2340 N.2       1 SAH465      0.0000 
     20 C5          1.3850    0.3800  -17.7050 C.ar      1 SAH465      0.0000 
     21 C6          0.6080    1.1210  -18.6020 C.ar      1 SAH465      0.0000 
     22 N6          1.0600    2.2380  -19.1750 N.pl3     1 SAH465      0.0000 
     23 N1         -0.6680    0.6900  -18.9000 N.ar      1 SAH465      0.0000 
     24 C2         -1.1590   -0.4610  -18.3160 C.ar      1 SAH465      0.0000 
     25 N3         -0.3950   -1.1920  -17.4410 N.ar      1 SAH465      0.0000 
     26 C4          0.8620   -0.7760  -17.1400 C.ar      1 SAH465      0.0000 
     27 H          -0.5340   -6.2489   -9.7732 H         1 SAH465      0.0000 
     28 H           2.0217   -6.1066   -9.3566 H         1 SAH465      0.0000 
     29 H           1.6536   -4.7173   -8.3200 H         1 SAH465      0.0000 
     30 H           1.0166   -3.3891  -10.2029 H         1 SAH465      0.0000 
     31 H           0.8065   -4.7995  -11.2548 H         1 SAH465      0.0000 
     32 H           3.8547   -2.7387  -12.4653 H         1 SAH465      0.0000 
     33 H           2.4055   -2.1264  -11.6498 H         1 SAH465      0.0000 
     34 H           1.0701   -3.8091  -13.0565 H         1 SAH465      0.0000 
     35 H           3.6591   -4.4691  -14.0413 H         1 SAH465      0.0000 
     36 H           3.6348   -3.0569  -15.7691 H         1 SAH465      0.0000 
     37 H           0.6696   -2.9832  -15.7384 H         1 SAH465      0.0000 
     38 H           3.7302   -0.6270  -15.8932 H         1 SAH465      0.0000 
     39 H           0.7426    2.4141  -20.1068 H         1 SAH465      0.0000 
     40 H           1.6755    2.7987  -18.6211 H         1 SAH465      0.0000 
     41 H          -2.1235   -0.7759  -18.5452 H         1 SAH465      0.0000 
     42 H          -1.5127   -4.4262   -8.8739 H         1 SAH465      0.0000 
     43 H          -1.5864   -5.3207   -7.5394 H         1 SAH465      0.0000 
     44 H          -0.4349   -4.2096   -7.7001 H         1 SAH465      0.0000 
     45 H           0.9653   -5.1976  -14.6219 H         1 SAH465      0.0000 
     46 H           1.4381   -4.5849  -16.7724 H         1 SAH465      0.0000 
@<TRIPOS>BOND
     1    2    1 1    
     2   42    1 1    
     3   43    1 1    
     4   44    1 1    
     5    3    2 1    
     6    6    2 1    
     7   27    2 1    
     8    4    3 1    
     9   28    3 1    
    10   29    3 1    
    11    5    4 1    
    12   30    4 1    
    13   31    4 1    
    14    9    5 1    
    15    7    6 ar   
    16    8    6 ar   
    17   10    9 1    
    18   32    9 1    
    19   33    9 1    
    20   11   10 1    
    21   12   10 1    
    22   34   10 1    
    23   16   11 1    
    24   13   12 1    
    25   14   12 1    
    26   35   12 1    
    27   45   13 1    
    28   15   14 1    
    29   16   14 1    
    30   36   14 1    
    31   46   15 1    
    32   17   16 1    
    33   37   16 1    
    34   18   17 1    
    35   26   17 1    
    36   19   18 2    
    37   38   18 1    
    38   20   19 1    
    39   21   20 ar   
    40   26   20 ar   
    41   22   21 1    
    42   23   21 ar   
    43   39   22 1    
    44   40   22 1    
    45   24   23 ar   
    46   25   24 ar   
    47   41   24 1    
    48   26   25 ar   
@<TRIPOS>SUBSTRUCTURE
     1 SAH465      1 GROUP   
@<TRIPOS>SET

