#    Name: 1ygk_RRC_1_INTS_M
#    Modification time : Tue Mar 25 11:03:39 2014

@<TRIPOS>MOLECULE
1ygk_RRC_1_INTS_M
   59     0     9     0     0
SMALL
NO_CHARGES


@<TRIPOS>ATOM
      1 CA         -5.2160   47.3745    7.3545 C.3       3 GLC5        0.0000 
      2 CA         -5.1060   47.4940    9.5080 C.3       9 GLL5        0.0000 
      3 CA         -5.3260   47.2550    5.2010 C.3       6 GLP5        0.0000 
      4 CA         -5.2970   44.6465   10.0135 C.3       3 GLC5        0.0000 
      5 CA         -5.7530   46.5870   10.5520 C.3       9 GLL5        0.0000 
      6 CA         -4.8410   42.7060    9.4750 C.3       6 GLP5        0.0000 
      7 CA         -4.4510   48.3895   13.4410 C.3       3 GLC5        0.0000 
      8 CA         -5.6760   47.3380   11.9110 C.3       9 GLL5        0.0000 
      9 CA         -3.2260   49.4410   14.9710 C.3       6 GLP5        0.0000 
     10 CA         -8.2985   48.1995   13.5690 C.3       3 GLC5        0.0000 
     11 CA         -6.8020   48.2990   12.2570 C.3       9 GLL5        0.0000 
     12 CA         -9.7950   48.1000   14.8810 C.3       6 GLP5        0.0000 
     13 CA         -5.5855   48.7525   13.9955 C.3       3 GLC5        0.0000 
     14 CA         -4.3690   49.2060   15.7340 C.3       6 GLP5        0.0000 
     15 O          -7.9290   47.5235    9.2850 O.2       1 ALC1        0.0000 
     16 O          -7.1000   46.3600    9.9850 O.2       7 ALL1        0.0000 
     17 O          -8.7580   48.6870    8.5850 O.2       4 ALP1        0.0000 
     18 CA         -8.4305   44.5280    8.8455 C.3       3 GLC5        0.0000 
     19 CA         -8.1270   45.5950   10.4840 C.3       9 GLL5        0.0000 
     20 CA         -8.7340   43.4610    7.2070 C.3       6 GLP5        0.0000 
     21 CA         -6.4840   44.1505    9.9795 C.3       3 GLC5        0.0000 
     22 CA         -8.4915   42.2715   11.1870 C.3       3 GLC5        0.0000 
     23 CA         -8.8520   43.9780   12.0700 C.3       9 GLL5        0.0000 
     24 CA         -8.1310   40.5650   10.3040 C.3       6 GLP5        0.0000 
     25 CA         -6.7630   44.4125   16.6700 C.3       3 GLC5        0.0000 
     26 CA         -7.3500   43.5250   15.1220 C.3       9 GLL5        0.0000 
     27 CA         -6.1760   45.3000   18.2180 C.3       6 GLP5        0.0000 
     28 CA         -6.0290   40.1680   12.6815 C.3       3 GLC5        0.0000 
     29 CA         -6.8530   41.6310   13.6210 C.3       9 GLL5        0.0000 
     30 CA         -5.2050   38.7050   11.7420 C.3       6 GLP5        0.0000 
     31 N         -12.0265   42.4020   12.4120 N.am      2 SEC2        0.0000 
     32 N         -10.9040   43.0670   12.3580 N.am      8 SEL2        0.0000 
     33 N         -13.1490   41.7370   12.4660 N.am      5 SEP2        0.0000 
     34 N          -9.3330   46.0835    8.3650 N.am      2 SEC2        0.0000 
     35 N          -9.4090   45.6110    9.9890 N.am      8 SEL2        0.0000 
     36 N          -9.2570   46.5560    6.7410 N.am      5 SEP2        0.0000 
     37 CA         -9.5760   44.1475    8.8560 C.3       3 GLC5        0.0000 
     38 CA        -10.4180   44.8340   10.5050 C.3       9 GLL5        0.0000 
     39 CA         -7.6190   41.4517   11.9758 C.3       3 GLC5        0.0000 
     40 CA         -7.3610   43.0460   13.6740 C.3       9 GLL5        0.0000 
     41 CA         -8.7703   43.7668   15.5515 C.3       3 GLC5        0.0000 
     42 CA        -10.1850   44.2480   16.7050 C.3       6 GLP5        0.0000 
     43 CA        -10.4310   42.6082   10.6690 C.3       3 GLC5        0.0000 
     44 CA        -10.1440   43.9710   11.6050 C.3       9 GLL5        0.0000 
     45 CA        -10.5810   40.8140   10.2830 C.3       6 GLP5        0.0000 
     46 CA        -13.8495   44.2330   12.2517 C.3       3 GLC5        0.0000 
     47 CA        -12.9130   45.0000   10.7480 C.3       9 GLL5        0.0000 
     48 CA        -14.4220   42.3160   12.6840 C.3       6 GLP5        0.0000 
     49 CA        -15.5571   47.1585   12.6454 C.3       3 GLC5        0.0000 
     50 CA        -13.9340   48.9840   12.2280 C.3       9 GLL5        0.0000 
     51 CA        -17.3310   46.2000   12.7330 C.3       6 GLP5        0.0000 
     52 CA        -12.1955   48.5600    9.0237 C.3       3 GLC5        0.0000 
     53 CA        -13.7310   48.7810   10.8330 C.3       9 GLL5        0.0000 
     54 CA        -10.8270   48.9890    7.4610 C.3       6 GLP5        0.0000 
     55 CA        -13.1454   49.8932   12.9964 C.3       3 GLC5        0.0000 
     56 CA        -12.4920   51.1760   14.2360 C.3       6 GLP5        0.0000 
     57 CA        -14.8583   45.5703   10.8637 C.3       3 GLC5        0.0000 
     58 CA        -13.3970   47.4810   10.3400 C.3       9 GLL5        0.0000 
     59 CA        -16.4740   44.5520   11.0590 C.3       6 GLP5        0.0000 
@<TRIPOS>BOND
@<TRIPOS>SUBSTRUCTURE
     1 ALC1       15 GROUP        1 X    ALC  0     ROOT ALC X 1
     2 SEC2       31 GROUP        1 X    SEC  0     **** SEC X 2
     3 GLC5        1 GROUP        1 X    GLC  0     **** GLC X 6
     4 ALP1       17 GROUP        1 Y    ALP  0     ROOT ALP Y 8
     5 SEP2       33 GROUP        1 Y    SEP  0     **** SEP Y 9
     6 GLP5        3 GROUP        1 Y    GLP  0     **** GLP Y 13
     7 ALL1       16 GROUP        1 Z    ALL  0     ROOT ALL Z 15
     8 SEL2       32 GROUP        1 Z    SEL  0     **** SEL Z 16
     9 GLL5        2 GROUP        1 Z    GLL  0     **** GLL Z 20
@<TRIPOS>SET

