#    Name: 1ygk_RRC_1_ligand
#    Modification time : Tue Mar 25 11:03:39 2014

@<TRIPOS>MOLECULE
1ygk_RRC_1_ligand
   52    54     1     0     0
SMALL
NO_CHARGES


@<TRIPOS>ATOM
      1 OAP        -4.0760   46.7460    8.9220 O.3       1 RRC1001     0.0000 
      2 CAQ        -5.1060   47.4940    9.5080 C.3       1 RRC1001     0.0000 
      3 CAR        -5.7530   46.5870   10.5520 C.3       1 RRC1001     0.0000 
      4 CAK        -5.6760   47.3380   11.9110 C.3       1 RRC1001     0.0000 
      5 CAI        -6.8020   48.2990   12.2570 C.3       1 RRC1001     0.0000 
      6 NAS        -7.1000   46.3600    9.9850 N.pl3     1 RRC1001     0.0000 
      7 CAT        -8.1270   45.5950   10.4840 C.ar      1 RRC1001     0.0000 
      8 NAU        -7.8640   44.7580   11.5390 N.ar      1 RRC1001     0.0000 
      9 CAV        -8.8520   43.9780   12.0700 C.ar      1 RRC1001     0.0000 
     10 NAW        -8.7320   43.1320   13.0770 N.pl3     1 RRC1001     0.0000 
     11 CAZ        -7.3610   43.0460   13.6740 C.3       1 RRC1001     0.0000 
     12 CAY        -7.3500   43.5250   15.1220 C.3       1 RRC1001     0.0000 
     13 CBA        -6.8530   41.6310   13.6210 C.3       1 RRC1001     0.0000 
     14 CAX        -9.9730   42.5640   13.2760 C.2       1 RRC1001     0.0000 
     15 CAN       -10.1440   43.9710   11.6050 C.ar      1 RRC1001     0.0000 
     16 NAO       -10.9040   43.0670   12.3580 N.2       1 RRC1001     0.0000 
     17 NAL        -9.4090   45.6110    9.9890 N.ar      1 RRC1001     0.0000 
     18 CAM       -10.4180   44.8340   10.5050 C.ar      1 RRC1001     0.0000 
     19 NAJ       -11.6700   44.8790    9.9770 N.pl3     1 RRC1001     0.0000 
     20 CAD       -12.9130   45.0000   10.7480 C.3       1 RRC1001     0.0000 
     21 CAE       -13.2630   46.3920   11.2460 C.ar      1 RRC1001     0.0000 
     22 CAG       -13.4660   46.6040   12.6420 C.ar      1 RRC1001     0.0000 
     23 CAH       -13.7990   47.8960   13.1330 C.ar      1 RRC1001     0.0000 
     24 CAF       -13.9340   48.9840   12.2280 C.ar      1 RRC1001     0.0000 
     25 CAC       -13.7310   48.7810   10.8330 C.ar      1 RRC1001     0.0000 
     26 CAB       -13.3970   47.4810   10.3400 C.ar      1 RRC1001     0.0000 
     27 H          -5.8756   47.7792    8.7971 H         1 RRC1001     0.0000 
     28 H          -4.7433   48.3799   10.0206 H         1 RRC1001     0.0000 
     29 H          -5.1875   45.6950   10.5893 H         1 RRC1001     0.0000 
     30 H          -4.7041   47.8904   11.9392 H         1 RRC1001     0.0000 
     31 H          -5.5915   46.5698   12.7192 H         1 RRC1001     0.0000 
     32 H          -7.2625   46.8824    9.0517 H         1 RRC1001     0.0000 
     33 H          -6.6824   43.6752   13.1062 H         1 RRC1001     0.0000 
     34 H         -10.1836   41.9079   13.9527 H         1 RRC1001     0.0000 
     35 H         -11.8040   44.8253    8.9266 H         1 RRC1001     0.0000 
     36 H         -12.8783   44.3168   11.6353 H         1 RRC1001     0.0000 
     37 H         -13.7761   44.6263   10.1393 H         1 RRC1001     0.0000 
     38 H         -13.3711   45.8222   13.2904 H         1 RRC1001     0.0000 
     39 H         -13.9403   48.0415   14.1295 H         1 RRC1001     0.0000 
     40 H         -14.1759   49.9094   12.5762 H         1 RRC1001     0.0000 
     41 H         -13.8230   49.5590   10.1855 H         1 RRC1001     0.0000 
     42 H         -13.2563   47.3384    9.3444 H         1 RRC1001     0.0000 
     43 H          -6.6611   48.7309   13.1479 H         1 RRC1001     0.0000 
     44 H          -6.8825   49.0344   11.5842 H         1 RRC1001     0.0000 
     45 H          -7.6876   47.8360   12.2925 H         1 RRC1001     0.0000 
     46 H          -6.4357   43.4724   15.5236 H         1 RRC1001     0.0000 
     47 H          -7.6506   44.4755   15.2011 H         1 RRC1001     0.0000 
     48 H          -7.9556   42.9771   15.6991 H         1 RRC1001     0.0000 
     49 H          -5.9366   41.5505   14.0131 H         1 RRC1001     0.0000 
     50 H          -7.4449   41.0047   14.1283 H         1 RRC1001     0.0000 
     51 H          -6.8013   41.2899   12.6824 H         1 RRC1001     0.0000 
     52 H          -3.5718   47.3987    8.3564 H         1 RRC1001     0.0000 
@<TRIPOS>BOND
     1    2    1 1    
     2   52    1 1    
     3    3    2 1    
     4   27    2 1    
     5   28    2 1    
     6    4    3 1    
     7    6    3 1    
     8   29    3 1    
     9    5    4 1    
    10   30    4 1    
    11   31    4 1    
    12   43    5 1    
    13   44    5 1    
    14   45    5 1    
    15    7    6 1    
    16   32    6 1    
    17    8    7 ar   
    18   17    7 ar   
    19    9    8 ar   
    20   10    9 1    
    21   15    9 ar   
    22   11   10 1    
    23   14   10 1    
    24   12   11 1    
    25   13   11 1    
    26   33   11 1    
    27   46   12 1    
    28   47   12 1    
    29   48   12 1    
    30   49   13 1    
    31   50   13 1    
    32   51   13 1    
    33   16   14 2    
    34   34   14 1    
    35   16   15 1    
    36   18   15 ar   
    37   18   17 ar   
    38   19   18 1    
    39   20   19 1    
    40   35   19 1    
    41   21   20 1    
    42   36   20 1    
    43   37   20 1    
    44   22   21 ar   
    45   26   21 ar   
    46   23   22 ar   
    47   38   22 1    
    48   24   23 ar   
    49   39   23 1    
    50   25   24 ar   
    51   40   24 1    
    52   26   25 ar   
    53   41   25 1    
    54   42   26 1    
@<TRIPOS>SUBSTRUCTURE
     1 RRC1001     1 GROUP   
@<TRIPOS>SET

