#    Name: 3lq8_88Z_1_INTS_M
#    Modification time : Mon Mar 24 22:06:47 2014

@<TRIPOS>MOLECULE
3lq8_88Z_1_INTS_M
  107     0     6     0     0
SMALL
NO_CHARGES


@<TRIPOS>ATOM
      1 N          -3.3005    8.1625   29.5140 N.am      1 SEC2        0.0000 
      2 N          -2.5880    7.0190   30.2290 N.am      5 SEL2        0.0000 
      3 N          -4.0130    9.3060   28.7990 N.am      3 SEP2        0.0000 
      4 CA         -2.2310    9.0540   30.3365 C.3       2 GLC5        0.0000 
      5 CA         -1.2580    7.2500   30.2170 C.3       6 GLL5        0.0000 
      6 CA         -3.2040   10.8580   30.4560 C.3       4 GLP5        0.0000 
      7 CA         -1.6410    7.6945   28.4660 C.3       2 GLC5        0.0000 
      8 CA         -2.0240    8.1390   26.7150 C.3       4 GLP5        0.0000 
      9 CA          1.1650    7.6715   30.8605 C.3       2 GLC5        0.0000 
     10 CA         -0.3540    6.1810   30.4530 C.3       6 GLL5        0.0000 
     11 CA          2.6840    9.1620   31.2680 C.3       4 GLP5        0.0000 
     12 CA         -0.7765    4.5345   32.7935 C.3       2 GLC5        0.0000 
     13 CA         -0.8220    4.8600   30.6120 C.3       6 GLL5        0.0000 
     14 CA         -0.7310    4.2090   34.9750 C.3       4 GLP5        0.0000 
     15 CA         -4.2520    1.8030   32.4600 C.3       2 GLC5        0.0000 
     16 CA         -4.0970    0.6650   31.0330 C.3       6 GLL5        0.0000 
     17 CA         -4.4070    2.9410   33.8870 C.3       4 GLP5        0.0000 
     18 CA         -2.3035    0.6735   29.9305 C.3       2 GLC5        0.0000 
     19 CA         -0.5100    0.6820   28.8280 C.3       4 GLP5        0.0000 
     20 CA          0.3145    3.5525   27.5730 C.3       2 GLC5        0.0000 
     21 CA          1.6580    3.7710   28.9990 C.3       6 GLL5        0.0000 
     22 CA         -1.0290    3.3340   26.1470 C.3       4 GLP5        0.0000 
     23 CA          3.4305    4.1355   26.7130 C.3       2 GLC5        0.0000 
     24 CA          2.9920    3.8710   28.6730 C.3       6 GLL5        0.0000 
     25 CA          3.8690    4.4000   24.7530 C.3       4 GLP5        0.0000 
     26 CA          4.7095    3.4655   32.5770 C.3       2 GLC5        0.0000 
     27 CA          3.6530    4.0910   30.9980 C.3       6 GLL5        0.0000 
     28 CA          5.7660    2.8400   34.1560 C.3       4 GLP5        0.0000 
     29 CA          3.1390    4.2665   34.0945 C.3       2 GLC5        0.0000 
     30 CA          1.8570    4.0670   32.6250 C.3       6 GLL5        0.0000 
     31 CA          4.4210    4.4660   35.5640 C.3       4 GLP5        0.0000 
     32 CA         -7.4535    6.7385   31.2620 C.3       2 GLC5        0.0000 
     33 CA         -7.3870    4.9350   30.6280 C.3       6 GLL5        0.0000 
     34 CA         -7.5200    8.5420   31.8960 C.3       4 GLP5        0.0000 
     35 CA         -6.7280    4.3395   28.7290 C.3       2 GLC5        0.0000 
     36 CA         -6.0690    3.7440   26.8300 C.3       4 GLP5        0.0000 
     37 CA         -7.6130    3.8025   28.1110 C.3       2 GLC5        0.0000 
     38 CA         -9.1570    3.8610   29.3920 C.3       6 GLL5        0.0000 
     39 N           6.9375    2.4995   31.9590 N.am      1 SEC2        0.0000 
     40 N           6.4690    3.5060   31.0310 N.am      5 SEL2        0.0000 
     41 N           7.4060    1.4930   32.8870 N.am      3 SEP2        0.0000 
     42 N           6.1980    3.4000   26.1580 N.am      1 SEC2        0.0000 
     43 N           6.5800    4.5870   27.0980 N.am      5 SEL2        0.0000 
     44 N           5.8160    2.2130   25.2180 N.am      3 SEP2        0.0000 
     45 CA         10.0235    6.1675   22.3050 C.3       2 GLC5        0.0000 
     46 CA          8.7230    5.0430   21.3910 C.3       6 GLL5        0.0000 
     47 CA         11.3240    7.2920   23.2190 C.3       4 GLP5        0.0000 
     48 CA         10.5975    4.2715   21.2430 C.3       2 GLC5        0.0000 
     49 CA         12.4720    3.5000   21.0950 C.3       4 GLP5        0.0000 
     50 CA          7.2830    4.4825   20.3610 C.3       2 GLC5        0.0000 
     51 CA          5.8430    3.9220   19.3310 C.3       4 GLP5        0.0000 
     52 CA         10.3205    5.6205   30.8700 C.3       2 GLC5        0.0000 
     53 CA          8.9860    4.3190   29.8840 C.3       6 GLL5        0.0000 
     54 CA         11.6550    6.9220   31.8560 C.3       4 GLP5        0.0000 
     55 CA         -4.4878    3.3302   32.2478 C.3       2 GLC5        0.0000 
     56 CA         -4.1270    3.1380   30.7040 C.3       6 GLL5        0.0000 
     57 CA         -3.4062    3.9152   28.9128 C.3       2 GLC5        0.0000 
     58 CA         -5.0100    4.3010   30.5130 C.3       6 GLL5        0.0000 
     59 CA         -2.2440    4.1110   27.2170 C.3       4 GLP5        0.0000 
     60 CA         -4.0360    5.8090   32.5115 C.3       2 GLC5        0.0000 
     61 CA         -3.1310    5.7950   30.3810 C.3       6 GLL5        0.0000 
     62 CA         -4.2530    5.9200   34.6490 C.3       4 GLP5        0.0000 
     63 CA         -3.6655    6.7070   28.6610 C.3       2 GLC5        0.0000 
     64 CA         -4.5070    5.6010   30.3670 C.3       6 GLL5        0.0000 
     65 CA         -3.5120    7.7160   26.9480 C.3       4 GLP5        0.0000 
     66 CA         -5.3034    4.2021   28.6589 C.3       2 GLC5        0.0000 
     67 CA         -3.0315    4.9045   28.7955 C.3       2 GLC5        0.0000 
     68 CA         -3.4505    3.4562   32.2742 C.3       2 GLC5        0.0000 
     69 CA         -2.2500    4.6130   30.5820 C.3       6 GLL5        0.0000 
     70 CA         -1.5250    5.4132   28.7760 C.3       2 GLC5        0.0000 
     71 CA         -1.9510    4.2634   28.9269 C.3       2 GLC5        0.0000 
     72 CA          4.0025    1.8335   29.0375 C.3       2 GLC5        0.0000 
     73 CA          4.5160   -0.2930   28.9140 C.3       4 GLP5        0.0000 
     74 CA          3.2543    5.5040   28.2168 C.3       2 GLC5        0.0000 
     75 CA          3.9860    4.0490   29.6490 C.3       6 GLL5        0.0000 
     76 CA          3.3530    7.0730   27.1910 C.3       4 GLP5        0.0000 
     77 CA          3.9042    5.6905   31.3238 C.3       2 GLC5        0.0000 
     78 CA          3.9890    7.3110   32.3240 C.3       4 GLP5        0.0000 
     79 CA          1.3733    3.0747   33.3730 C.3       2 GLC5        0.0000 
     80 CA          2.3080    4.0020   31.3610 C.3       6 GLL5        0.0000 
     81 CA          0.6640    2.1150   34.7530 C.3       4 GLP5        0.0000 
     82 CA          3.0358    5.6727   32.1585 C.3       2 GLC5        0.0000 
     83 CA          8.3535    5.8347   29.0617 C.3       2 GLC5        0.0000 
     84 CA          7.7140    3.9280   29.1010 C.3       6 GLL5        0.0000 
     85 CA          8.3570    7.5460   28.6310 C.3       4 GLP5        0.0000 
     86 CA          9.2107    6.2767   26.5375 C.3       2 GLC5        0.0000 
     87 CA          8.7450    4.5550   25.5100 C.3       6 GLL5        0.0000 
     88 CA          9.9630    7.4230   27.8530 C.3       4 GLP5        0.0000 
     89 CA          6.6973    4.5308   24.4590 C.3       2 GLC5        0.0000 
     90 CA          8.1720    5.7060   24.9340 C.3       6 GLL5        0.0000 
     91 CA          4.9360    3.9310   23.6960 C.3       4 GLP5        0.0000 
     92 CA          9.0557    5.2250   20.2580 C.3       2 GLC5        0.0000 
     93 CA          8.7120    4.9090   22.7350 C.3       6 GLL5        0.0000 
     94 CA          9.3940    5.4740   18.4530 C.3       4 GLP5        0.0000 
     95 CA          6.8950    4.2595   23.4579 C.3       2 GLC5        0.0000 
     96 CA          9.2930    3.7690   23.2980 C.3       6 GLL5        0.0000 
     97 CA          8.3902    2.2652   24.7944 C.3       2 GLC5        0.0000 
     98 CA          7.6110    0.6120   25.3910 C.3       4 GLP5        0.0000 
     99 CA          8.0685    7.0175   21.7576 C.3       2 GLC5        0.0000 
    100 CA          7.5680    8.8100   21.2490 C.3       4 GLP5        0.0000 
    101 CA          8.6339    3.1640   21.2609 C.3       2 GLC5        0.0000 
    102 CA          8.4050    1.6370   20.3180 C.3       4 GLP5        0.0000 
    103 CA         10.2890    3.0328   30.5868 C.3       2 GLC5        0.0000 
    104 CA          8.6780    2.8460   29.6270 C.3       6 GLL5        0.0000 
    105 CA         11.7460    2.4830   31.4180 C.3       4 GLP5        0.0000 
    106 CA         -1.1226    6.7669   31.9884 C.3       2 GLC5        0.0000 
    107 CA         -0.9640    7.6600   33.5360 C.3       4 GLP5        0.0000 
@<TRIPOS>BOND
@<TRIPOS>SUBSTRUCTURE
     1 SEC2        1 GROUP        1 X    SEC  0     ROOT SEC X 2
     2 GLC5        4 GROUP        1 X    GLC  0     **** GLC X 6
     3 SEP2        3 GROUP        1 Y    SEP  0     ROOT SEP Y 9
     4 GLP5        6 GROUP        1 Y    GLP  0     **** GLP Y 13
     5 SEL2        2 GROUP        1 Z    SEL  0     ROOT SEL Z 16
     6 GLL5        5 GROUP        1 Z    GLL  0     **** GLL Z 20
@<TRIPOS>SET

