#    Name: 3lq8_88Z_1_ligand
#    Modification time : Mon Mar 24 22:06:47 2014

@<TRIPOS>MOLECULE
3lq8_88Z_1_ligand
   81    86     1     0     0
SMALL
NO_CHARGES


@<TRIPOS>ATOM
      1 C1         -4.1270    3.1380   30.7040 C.ar      1 88Z1        0.0000 
      2 C2         -5.0100    4.3010   30.5130 C.ar      1 88Z1        0.0000 
      3 C3         -4.5070    5.6010   30.3670 C.ar      1 88Z1        0.0000 
      4 C4         -3.1310    5.7950   30.3810 C.ar      1 88Z1        0.0000 
      5 C5         -2.2500    4.6130   30.5820 C.ar      1 88Z1        0.0000 
      6 C6         -2.7380    3.3300   30.7410 C.ar      1 88Z1        0.0000 
      7 N7         -2.5880    7.0190   30.2290 N.ar      1 88Z1        0.0000 
      8 C8         -1.2580    7.2500   30.2170 C.ar      1 88Z1        0.0000 
      9 C9         -0.3540    6.1810   30.4530 C.ar      1 88Z1        0.0000 
     10 C10        -0.8220    4.8600   30.6120 C.ar      1 88Z1        0.0000 
     11 O11        -4.7660    1.9090   30.8150 O.3       1 88Z1        0.0000 
     12 C12        -4.0970    0.6650   31.0330 C.3       1 88Z1        0.0000 
     13 O13        -6.3280    3.9790   30.5020 O.3       1 88Z1        0.0000 
     14 O14        -0.0100    3.7510   30.7610 O.3       1 88Z1        0.0000 
     15 C15         1.2820    3.8340   30.3260 C.ar      1 88Z1        0.0000 
     16 C16         1.6580    3.7710   28.9990 C.ar      1 88Z1        0.0000 
     17 C17         2.9920    3.8710   28.6730 C.ar      1 88Z1        0.0000 
     18 C18         3.9860    4.0490   29.6490 C.ar      1 88Z1        0.0000 
     19 C19         3.6530    4.0910   30.9980 C.ar      1 88Z1        0.0000 
     20 C20         2.3080    4.0020   31.3610 C.ar      1 88Z1        0.0000 
     21 F21         1.8570    4.0670   32.6250 F         1 88Z1        0.0000 
     22 N22         5.2660    4.1510   29.2260 N.am      1 88Z1        0.0000 
     23 C23        -7.3870    4.9350   30.6280 C.3       1 88Z1        0.0000 
     24 C24        -8.6720    4.1240   30.7980 C.3       1 88Z1        0.0000 
     25 C25        -9.1570    3.8610   29.3920 C.3       1 88Z1        0.0000 
     26 N26       -10.3380    3.0260   29.3180 N.4       1 88Z1        0.0000 
     27 C27       -10.6240    2.5090   27.9740 C.3       1 88Z1        0.0000 
     28 C28       -12.1230    2.2180   27.8660 C.3       1 88Z1        0.0000 
     29 O29       -12.4340    1.3970   28.9820 O.3       1 88Z1        0.0000 
     30 C30       -12.3360    2.2120   30.1590 C.3       1 88Z1        0.0000 
     31 C31       -10.8380    2.3140   30.4910 C.3       1 88Z1        0.0000 
     32 C32         6.4110    3.8540   29.8760 C.2       1 88Z1        0.0000 
     33 C33         7.7140    3.9280   29.1010 C.3       1 88Z1        0.0000 
     34 C34         7.6440    4.1760   27.5770 C.2       1 88Z1        0.0000 
     35 N35         8.7740    4.3730   26.8710 N.am      1 88Z1        0.0000 
     36 O36         6.4690    3.5060   31.0310 O.2       1 88Z1        0.0000 
     37 O37         6.5800    4.5870   27.0980 O.2       1 88Z1        0.0000 
     38 C38         8.7450    4.5550   25.5100 C.ar      1 88Z1        0.0000 
     39 C39         8.1720    5.7060   24.9340 C.ar      1 88Z1        0.0000 
     40 C40         8.1180    5.9050   23.5480 C.ar      1 88Z1        0.0000 
     41 C41         8.7120    4.9090   22.7350 C.ar      1 88Z1        0.0000 
     42 C42         9.2930    3.7690   23.2980 C.ar      1 88Z1        0.0000 
     43 C43         9.3470    3.5810   24.6850 C.ar      1 88Z1        0.0000 
     44 F44         8.7230    5.0430   21.3910 F         1 88Z1        0.0000 
     45 C45         8.6780    2.8460   29.6270 C.3       1 88Z1        0.0000 
     46 C46         8.9860    4.3190   29.8840 C.3       1 88Z1        0.0000 
     47 H          -5.1446    6.3878   30.2527 H         1 88Z1        0.0000 
     48 H          -2.1151    2.5401   30.8815 H         1 88Z1        0.0000 
     49 H          -0.8694    8.1866   30.0404 H         1 88Z1        0.0000 
     50 H           0.6519    6.3761   30.5079 H         1 88Z1        0.0000 
     51 H           0.9499    3.6510   28.2652 H         1 88Z1        0.0000 
     52 H           3.2852    3.8142   27.6740 H         1 88Z1        0.0000 
     53 H           4.3751    4.1849   31.7105 H         1 88Z1        0.0000 
     54 H           5.3928    4.5346   28.1948 H         1 88Z1        0.0000 
     55 H          -7.4899    5.5462   29.7426 H         1 88Z1        0.0000 
     56 H          -7.2670    5.5615   31.5005 H         1 88Z1        0.0000 
     57 H          -9.3899    4.7042   31.3328 H         1 88Z1        0.0000 
     58 H          -8.4486    3.2035   31.2888 H         1 88Z1        0.0000 
     59 H          -8.3190    3.4017   28.8191 H         1 88Z1        0.0000 
     60 H          -9.3443    4.8445   28.9029 H         1 88Z1        0.0000 
     61 H         -11.2198    3.9908   29.2979 H         1 88Z1        0.0000 
     62 H         -10.0807    1.5860   27.7888 H         1 88Z1        0.0000 
     63 H         -10.3599    3.2383   27.2126 H         1 88Z1        0.0000 
     64 H         -12.2975    1.7178   26.9245 H         1 88Z1        0.0000 
     65 H         -12.6474    3.1622   27.8895 H         1 88Z1        0.0000 
     66 H         -12.8348    1.7643   31.0065 H         1 88Z1        0.0000 
     67 H         -12.7088    3.2125   29.9933 H         1 88Z1        0.0000 
     68 H         -10.7254    2.8835   31.3746 H         1 88Z1        0.0000 
     69 H         -10.4392    1.3372   30.5580 H         1 88Z1        0.0000 
     70 H           9.7010    4.3897   27.3600 H         1 88Z1        0.0000 
     71 H           7.7751    6.4333   25.5637 H         1 88Z1        0.0000 
     72 H           7.6823    6.7099   23.1449 H         1 88Z1        0.0000 
     73 H           9.6942    3.0441   22.6746 H         1 88Z1        0.0000 
     74 H           9.8017    2.7748   25.0871 H         1 88Z1        0.0000 
     75 H           9.2065    2.5654   28.8963 H         1 88Z1        0.0000 
     76 H           8.2951    2.4912   30.4141 H         1 88Z1        0.0000 
     77 H           8.7170    4.5186   30.7666 H         1 88Z1        0.0000 
     78 H           9.6284    4.5928   29.2488 H         1 88Z1        0.0000 
     79 H          -3.4531    0.4556   30.2971 H         1 88Z1        0.0000 
     80 H          -3.5758    0.6682   31.8864 H         1 88Z1        0.0000 
     81 H          -4.7406   -0.0986   31.0855 H         1 88Z1        0.0000 
@<TRIPOS>BOND
     1    2    1 ar   
     2    6    1 ar   
     3   11    1 1    
     4    3    2 ar   
     5   13    2 1    
     6    4    3 ar   
     7   47    3 1    
     8    5    4 ar   
     9    7    4 ar   
    10    6    5 ar   
    11   10    5 ar   
    12   48    6 1    
    13    8    7 ar   
    14    9    8 ar   
    15   49    8 1    
    16   10    9 ar   
    17   50    9 1    
    18   14   10 1    
    19   12   11 1    
    20   79   12 1    
    21   80   12 1    
    22   81   12 1    
    23   23   13 1    
    24   15   14 1    
    25   16   15 ar   
    26   20   15 ar   
    27   17   16 ar   
    28   51   16 1    
    29   18   17 ar   
    30   52   17 1    
    31   19   18 ar   
    32   22   18 1    
    33   20   19 ar   
    34   53   19 1    
    35   21   20 1    
    36   32   22 am   
    37   54   22 1    
    38   24   23 1    
    39   55   23 1    
    40   56   23 1    
    41   25   24 1    
    42   57   24 1    
    43   58   24 1    
    44   26   25 1    
    45   59   25 1    
    46   60   25 1    
    47   27   26 1    
    48   31   26 1    
    49   61   26 1    
    50   28   27 1    
    51   62   27 1    
    52   63   27 1    
    53   29   28 1    
    54   64   28 1    
    55   65   28 1    
    56   30   29 1    
    57   31   30 1    
    58   66   30 1    
    59   67   30 1    
    60   68   31 1    
    61   69   31 1    
    62   33   32 1    
    63   36   32 2    
    64   34   33 1    
    65   45   33 1    
    66   46   33 1    
    67   35   34 am   
    68   37   34 2    
    69   38   35 1    
    70   70   35 1    
    71   39   38 ar   
    72   43   38 ar   
    73   40   39 ar   
    74   71   39 1    
    75   41   40 ar   
    76   72   40 1    
    77   42   41 ar   
    78   44   41 1    
    79   43   42 ar   
    80   73   42 1    
    81   74   43 1    
    82   46   45 1    
    83   75   45 1    
    84   76   45 1    
    85   77   46 1    
    86   78   46 1    
@<TRIPOS>SUBSTRUCTURE
     1 88Z1        1 GROUP   
@<TRIPOS>SET

