#    Name: 4fob_0US_1_INTS_M
#    Modification time : Mon Mar 24 20:25:01 2014

@<TRIPOS>MOLECULE
4fob_0US_1_INTS_M
   85     0     9     0     0
SMALL
NO_CHARGES


@<TRIPOS>ATOM
      1 CA         15.2130   10.2935   12.2165 C.3       3 GLC5        0.0000 
      2 CA         16.7440   10.9660   11.0970 C.3       9 GLL5        0.0000 
      3 CA         13.6820    9.6210   13.3360 C.3       6 GLP5        0.0000 
      4 CA         17.1165   12.2460   12.8055 C.3       3 GLC5        0.0000 
      5 CA         17.4890   13.5260   14.5140 C.3       6 GLP5        0.0000 
      6 CA         18.8575   12.2280   10.8735 C.3       3 GLC5        0.0000 
      7 CA         17.4530   12.5970    9.3750 C.3       9 GLL5        0.0000 
      8 CA         20.2620   11.8590   12.3720 C.3       6 GLP5        0.0000 
      9 O          17.1770   14.4430   11.2550 O.2       1 ALC1        0.0000 
     10 O          17.3770   13.9640    9.8630 O.2       7 ALL1        0.0000 
     11 O          16.9770   14.9220   12.6470 O.2       4 ALP1        0.0000 
     12 CA         21.1965   13.9635    7.1090 C.3       3 GLC5        0.0000 
     13 CA         20.7470   13.4970    9.1200 C.3       9 GLL5        0.0000 
     14 CA         21.6460   14.4300    5.0980 C.3       6 GLP5        0.0000 
     15 CA         20.4440   15.7965   12.8605 C.3       3 GLC5        0.0000 
     16 CA         20.5880   15.2480   10.7710 C.3       9 GLL5        0.0000 
     17 CA         20.3000   16.3450   14.9500 C.3       6 GLP5        0.0000 
     18 CA         21.6635   14.5435   13.2695 C.3       3 GLC5        0.0000 
     19 CA         21.8560   14.9310   11.2340 C.3       9 GLL5        0.0000 
     20 CA         21.4710   14.1560   15.3050 C.3       6 GLP5        0.0000 
     21 CA         22.3295   16.6815   11.1565 C.3       3 GLC5        0.0000 
     22 CA         22.8030   18.4320   11.0790 C.3       6 GLP5        0.0000 
     23 CA         23.1435   11.9445   11.0900 C.3       3 GLC5        0.0000 
     24 CA         22.0280   13.1890    9.5950 C.3       9 GLL5        0.0000 
     25 CA         24.2590   10.7000   12.5850 C.3       6 GLP5        0.0000 
     26 N          25.0155   11.9030   10.3905 N.am      2 SEC2        0.0000 
     27 N          24.0130   11.8750    9.3630 N.am      8 SEL2        0.0000 
     28 N          26.0180   11.9310   11.4180 N.am      5 SEP2        0.0000 
     29 CA         24.6355   10.1350    6.2060 C.3       3 GLC5        0.0000 
     30 CA         24.0360    8.5200    7.1590 C.3       9 GLL5        0.0000 
     31 CA         25.2350   11.7500    5.2530 C.3       6 GLP5        0.0000 
     32 CA         26.4870    7.8545    8.7115 C.3       3 GLC5        0.0000 
     33 CA         25.0980    7.6340    7.0000 C.3       9 GLL5        0.0000 
     34 CA         27.8760    8.0750   10.4230 C.3       6 GLP5        0.0000 
     35 CA         27.6425    1.8470    9.5405 C.3       3 GLC5        0.0000 
     36 CA         26.5430    1.6990    7.8640 C.3       9 GLL5        0.0000 
     37 CA         28.7420    1.9950   11.2170 C.3       6 GLP5        0.0000 
     38 CA         24.0545    5.1670    8.8095 C.3       3 GLC5        0.0000 
     39 CA         25.4560    3.9840    7.7690 C.3       9 GLL5        0.0000 
     40 CA         22.6530    6.3500    9.8500 C.3       6 GLP5        0.0000 
     41 CA         19.7240    9.4380    9.4305 C.3       3 GLC5        0.0000 
     42 CA         19.5900    9.2390    7.5220 C.3       9 GLL5        0.0000 
     43 CA         19.8580    9.6370   11.3390 C.3       6 GLP5        0.0000 
     44 CA         22.1255   10.5965    4.4855 C.3       3 GLC5        0.0000 
     45 CA         20.3670   10.5060    5.5260 C.3       9 GLL5        0.0000 
     46 CA         23.8840   10.6870    3.4450 C.3       6 GLP5        0.0000 
     47 CA         19.5200    9.9570    2.9060 C.3       3 GLC5        0.0000 
     48 CA         19.0370   10.2870    4.8070 C.3       9 GLL5        0.0000 
     49 CA         20.0030    9.6270    1.0050 C.3       6 GLP5        0.0000 
     50 CA         17.8895   10.9195    3.0155 C.3       3 GLC5        0.0000 
     51 CA         16.7420   11.5520    1.2240 C.3       6 GLP5        0.0000 
     52 CA         18.2890   12.9525    5.4495 C.3       3 GLC5        0.0000 
     53 CA         17.3400   11.2520    6.3860 C.3       9 GLL5        0.0000 
     54 CA         19.2380   14.6530    4.5130 C.3       6 GLP5        0.0000 
     55 CA         18.2198   10.5000   10.9610 C.3       3 GLC5        0.0000 
     56 CA         16.4190   11.7600   10.0690 C.3       9 GLL5        0.0000 
     57 CA         15.0593   12.5695   11.3320 C.3       3 GLC5        0.0000 
     58 CA         13.5370   13.7760   12.0810 C.3       6 GLP5        0.0000 
     59 CA         20.4113   16.8507   10.1268 C.3       3 GLC5        0.0000 
     60 CA         20.0350   14.5410    9.7140 C.3       9 GLL5        0.0000 
     61 CA         20.5110   18.8070   10.0110 C.3       6 GLP5        0.0000 
     62 CA         20.3265   12.9390   10.8945 C.3       3 GLC5        0.0000 
     63 CA         22.9112   14.4610    8.7642 C.3       3 GLC5        0.0000 
     64 CA         24.4350   15.5790    8.1710 C.3       6 GLP5        0.0000 
     65 CA         20.7420   13.4742   11.6873 C.3       3 GLC5        0.0000 
     66 CA         23.3247   14.9975    9.5587 C.3       3 GLC5        0.0000 
     67 CA         23.0978   13.1215   12.2598 C.3       3 GLC5        0.0000 
     68 CA         22.5730   13.9010   10.6590 C.3       9 GLL5        0.0000 
     69 CA         23.9810   11.8270   13.5730 C.3       6 GLP5        0.0000 
     70 CA         21.2812   12.7020   11.2495 C.3       3 GLC5        0.0000 
     71 CA         23.6100    7.2135    8.4648 C.3       3 GLC5        0.0000 
     72 CA         25.6485    8.4895    5.2525 C.3       3 GLC5        0.0000 
     73 CA         26.2860    9.9210    3.8950 C.3       6 GLP5        0.0000 
     74 CA         23.4827    6.3537    7.8822 C.3       3 GLC5        0.0000 
     75 CA         24.9240    6.4820    6.2200 C.3       9 GLL5        0.0000 
     76 CA         25.5742    4.1892    9.8330 C.3       3 GLC5        0.0000 
     77 CA         25.7670    5.1280   11.6660 C.3       6 GLP5        0.0000 
     78 CA         23.3080    9.1857    4.7995 C.3       3 GLC5        0.0000 
     79 CA         22.6410    7.1110    5.7660 C.3       9 GLL5        0.0000 
     80 CA         22.6925    7.0172    8.0020 C.3       3 GLC5        0.0000 
     81 CA         22.8230    8.2580    6.5420 C.3       9 GLL5        0.0000 
     82 CA         18.3415    7.6645    8.6768 C.3       3 GLC5        0.0000 
     83 CA         17.7700    6.2310   10.1600 C.3       6 GLP5        0.0000 
     84 CA         20.1545   12.2912    4.5943 C.3       3 GLC5        0.0000 
     85 CA         20.6070   14.1860    4.0220 C.3       6 GLP5        0.0000 
@<TRIPOS>BOND
@<TRIPOS>SUBSTRUCTURE
     1 ALC1        9 GROUP        1 X    ALC  0     ROOT ALC X 1
     2 SEC2       26 GROUP        1 X    SEC  0     **** SEC X 2
     3 GLC5        1 GROUP        1 X    GLC  0     **** GLC X 6
     4 ALP1       11 GROUP        1 Y    ALP  0     ROOT ALP Y 8
     5 SEP2       28 GROUP        1 Y    SEP  0     **** SEP Y 9
     6 GLP5        3 GROUP        1 Y    GLP  0     **** GLP Y 13
     7 ALL1       10 GROUP        1 Z    ALL  0     ROOT ALL Z 15
     8 SEL2       27 GROUP        1 Z    SEL  0     **** SEL Z 16
     9 GLL5        2 GROUP        1 Z    GLL  0     **** GLL Z 20
@<TRIPOS>SET

