#    Name: 4fob_0US_1_ligand
#    Modification time : Mon Mar 24 20:25:01 2014

@<TRIPOS>MOLECULE
4fob_0US_1_ligand
   78    82     1     0     0
SMALL
NO_CHARGES


@<TRIPOS>ATOM
      1 C16        16.7440   10.9660   11.0970 C.2       1 0US1501     0.0000 
      2 C15        16.4190   11.7600   10.0690 C.2       1 0US1501     0.0000 
      3 C21        17.4530   12.5970    9.3750 C.3       1 0US1501     0.0000 
      4 N5         17.3770   13.9640    9.8630 N.pl3     1 0US1501     0.0000 
      5 S1         18.4450   14.9760    9.1370 S.o2      1 0US1501     0.0000 
      6 O1         18.1200   16.3710    9.5860 O.2       1 0US1501     0.0000 
      7 O2         18.3860   14.8520    7.6490 O.2       1 0US1501     0.0000 
      8 C5         20.0350   14.5410    9.7140 C.ar      1 0US1501     0.0000 
      9 C7         20.7470   13.4970    9.1200 C.ar      1 0US1501     0.0000 
     10 C22        20.5880   15.2480   10.7710 C.ar      1 0US1501     0.0000 
     11 C26        21.8560   14.9310   11.2340 C.ar      1 0US1501     0.0000 
     12 C23        22.5730   13.9010   10.6590 C.ar      1 0US1501     0.0000 
     13 C6         22.0280   13.1890    9.5950 C.ar      1 0US1501     0.0000 
     14 C4         22.8420   12.0440    9.0060 C.2       1 0US1501     0.0000 
     15 O3         24.0130   11.8750    9.3630 O.2       1 0US1501     0.0000 
     16 N3         22.1550   11.2410    8.1850 N.am      1 0US1501     0.0000 
     17 C1         22.6680   10.1210    7.6460 C.2       1 0US1501     0.0000 
     18 N1         23.9100    9.6700    7.8250 N.2       1 0US1501     0.0000 
     19 C2         24.0360    8.5200    7.1590 C.ar      1 0US1501     0.0000 
     20 C10        25.0980    7.6340    7.0000 C.ar      1 0US1501     0.0000 
     21 C11        24.9240    6.4820    6.2200 C.ar      1 0US1501     0.0000 
     22 C12        26.0960    5.5000    6.0130 C.3       1 0US1501     0.0000 
     23 N4         25.7370    4.1050    6.3210 N.4       1 0US1501     0.0000 
     24 C24        26.9100    3.2920    5.9120 C.3       1 0US1501     0.0000 
     25 C29        26.8000    1.8200    6.3560 C.3       1 0US1501     0.0000 
     26 C30        26.5430    1.6990    7.8640 C.3       1 0US1501     0.0000 
     27 C28        25.3070    2.5170    8.2310 C.3       1 0US1501     0.0000 
     28 C25        25.4560    3.9840    7.7690 C.3       1 0US1501     0.0000 
     29 C17        23.7010    6.2330    5.6090 C.ar      1 0US1501     0.0000 
     30 C9         22.6410    7.1110    5.7660 C.ar      1 0US1501     0.0000 
     31 C3         22.8230    8.2580    6.5420 C.ar      1 0US1501     0.0000 
     32 N2         22.0160    9.2580    6.8670 N.pl3     1 0US1501     0.0000 
     33 C8         20.6280    9.3050    6.3950 C.3       1 0US1501     0.0000 
     34 C14        19.5900    9.2390    7.5220 C.3       1 0US1501     0.0000 
     35 C19        18.2360    8.9570    6.8650 C.3       1 0US1501     0.0000 
     36 C13        20.3670   10.5060    5.5260 C.3       1 0US1501     0.0000 
     37 C18        19.0370   10.2870    4.8070 C.3       1 0US1501     0.0000 
     38 C20        17.8760    9.9600    5.7530 C.3       1 0US1501     0.0000 
     39 C27        17.3400   11.2520    6.3860 C.3       1 0US1501     0.0000 
     40 O4         17.0430   12.2250    5.3670 O.3       1 0US1501     0.0000 
     41 H          15.4628   11.8465    9.6963 H         1 0US1501     0.0000 
     42 H          17.2725   12.5597    8.2960 H         1 0US1501     0.0000 
     43 H          18.4421   12.1703    9.5690 H         1 0US1501     0.0000 
     44 H          16.8162   14.3201   10.5133 H         1 0US1501     0.0000 
     45 H          20.3415   12.9649    8.3508 H         1 0US1501     0.0000 
     46 H          20.0550   16.0112   11.2137 H         1 0US1501     0.0000 
     47 H          22.2646   15.4710   12.0149 H         1 0US1501     0.0000 
     48 H          23.5074   13.6568   11.0123 H         1 0US1501     0.0000 
     49 H          21.1479   11.5005    7.9440 H         1 0US1501     0.0000 
     50 H          25.9991    7.8178    7.4465 H         1 0US1501     0.0000 
     51 H          26.9320    5.8343    6.6492 H         1 0US1501     0.0000 
     52 H          26.4316    5.5916    4.9668 H         1 0US1501     0.0000 
     53 H          24.8850    3.8238    5.7433 H         1 0US1501     0.0000 
     54 H          27.8327    3.7097    6.3426 H         1 0US1501     0.0000 
     55 H          27.0240    3.3101    4.8174 H         1 0US1501     0.0000 
     56 H          27.7283    1.3048    6.1075 H         1 0US1501     0.0000 
     57 H          25.9814    1.3465    5.8131 H         1 0US1501     0.0000 
     58 H          27.4006    2.0777    8.4031 H         1 0US1501     0.0000 
     59 H          26.3769    0.6603    8.1149 H         1 0US1501     0.0000 
     60 H          25.1674    2.5014    9.3097 H         1 0US1501     0.0000 
     61 H          24.4302    2.0860    7.7528 H         1 0US1501     0.0000 
     62 H          24.5263    4.5152    8.0262 H         1 0US1501     0.0000 
     63 H          26.2656    4.4429    8.3577 H         1 0US1501     0.0000 
     64 H          23.5829    5.3833    5.0318 H         1 0US1501     0.0000 
     65 H          21.7396    6.9274    5.3239 H         1 0US1501     0.0000 
     66 H          20.4419    8.4067    5.7534 H         1 0US1501     0.0000 
     67 H          19.5536   10.1814    8.0308 H         1 0US1501     0.0000 
     68 H          19.8385    8.4398    8.1912 H         1 0US1501     0.0000 
     69 H          17.4513    8.9843    7.6326 H         1 0US1501     0.0000 
     70 H          18.2474    7.9455    6.4379 H         1 0US1501     0.0000 
     71 H          21.1527   10.6112    4.7935 H         1 0US1501     0.0000 
     72 H          20.2991   11.3954    6.1337 H         1 0US1501     0.0000 
     73 H          19.1500    9.4644    4.0856 H         1 0US1501     0.0000 
     74 H          18.7849   11.1919    4.2347 H         1 0US1501     0.0000 
     75 H          17.0606    9.5312    5.1620 H         1 0US1501     0.0000 
     76 H          18.0999   11.6208    7.0855 H         1 0US1501     0.0000 
     77 H          16.4471   10.9929    6.9676 H         1 0US1501     0.0000 
     78 H          16.7255   13.0322    5.8647 H         1 0US1501     0.0000 
@<TRIPOS>BOND
     1    2    1 2    
     2    3    2 1    
     3   41    2 1    
     4    4    3 1    
     5   42    3 1    
     6   43    3 1    
     7    5    4 1    
     8   44    4 1    
     9    6    5 2    
    10    7    5 2    
    11    8    5 1    
    12    9    8 ar   
    13   10    8 ar   
    14   13    9 ar   
    15   45    9 1    
    16   11   10 ar   
    17   46   10 1    
    18   12   11 ar   
    19   47   11 1    
    20   13   12 ar   
    21   48   12 1    
    22   14   13 1    
    23   15   14 2    
    24   16   14 am   
    25   17   16 1    
    26   49   16 1    
    27   18   17 2    
    28   32   17 1    
    29   19   18 1    
    30   20   19 ar   
    31   31   19 ar   
    32   21   20 ar   
    33   50   20 1    
    34   22   21 1    
    35   29   21 ar   
    36   23   22 1    
    37   51   22 1    
    38   52   22 1    
    39   24   23 1    
    40   28   23 1    
    41   53   23 1    
    42   25   24 1    
    43   54   24 1    
    44   55   24 1    
    45   26   25 1    
    46   56   25 1    
    47   57   25 1    
    48   27   26 1    
    49   58   26 1    
    50   59   26 1    
    51   28   27 1    
    52   60   27 1    
    53   61   27 1    
    54   62   28 1    
    55   63   28 1    
    56   30   29 ar   
    57   64   29 1    
    58   31   30 ar   
    59   65   30 1    
    60   32   31 1    
    61   33   32 1    
    62   34   33 1    
    63   36   33 1    
    64   66   33 1    
    65   35   34 1    
    66   67   34 1    
    67   68   34 1    
    68   38   35 1    
    69   69   35 1    
    70   70   35 1    
    71   37   36 1    
    72   71   36 1    
    73   72   36 1    
    74   38   37 1    
    75   73   37 1    
    76   74   37 1    
    77   39   38 1    
    78   75   38 1    
    79   40   39 1    
    80   76   39 1    
    81   77   39 1    
    82   78   40 1    
@<TRIPOS>SUBSTRUCTURE
     1 0US1501     1 GROUP   
@<TRIPOS>SET

