#    Name: 3lzw_NAP_2_INTS_M
#    Modification time : Mon Mar 24 22:30:18 2014

@<TRIPOS>MOLECULE
3lzw_NAP_2_INTS_M
   94     0    12     0     0
SMALL
NO_CHARGES


@<TRIPOS>ATOM
      1 CA         -7.9835  -28.5665   20.4500 C.3       4 GLC5        0.0000 
      2 CA         -6.6510  -29.9490   21.4140 C.3      12 GLL5        0.0000 
      3 CA         -9.3160  -27.1840   19.4860 C.3       8 GLP5        0.0000 
      4 CA         -7.8440  -32.2755   23.6110 C.3       4 GLC5        0.0000 
      5 CA         -6.6080  -31.3170   22.1150 C.3      12 GLL5        0.0000 
      6 CA         -9.0800  -33.2340   25.1070 C.3       8 GLP5        0.0000 
      7 CA         -5.3840  -32.4215   24.1375 C.3       4 GLC5        0.0000 
      8 CA         -5.2670  -32.0420   21.9380 C.3      12 GLL5        0.0000 
      9 CA         -5.5010  -32.8010   26.3370 C.3       8 GLP5        0.0000 
     10 CA         -3.4680  -31.0815   21.9775 C.3       4 GLC5        0.0000 
     11 CA         -1.6690  -30.1210   22.0170 C.3       8 GLP5        0.0000 
     12 N          -5.8210  -32.7650   24.3635 N.am      2 SEC2        0.0000 
     13 N          -4.9120  -32.6550   23.1820 N.am     10 SEL2        0.0000 
     14 N          -6.7300  -32.8750   25.5450 N.am      6 SEP2        0.0000 
     15 N          -5.0565  -35.8540   20.3515 N.am      2 SEC2        0.0000 
     16 N          -4.8320  -34.3070   21.0980 N.am     10 SEL2        0.0000 
     17 N          -5.2810  -37.4010   19.6050 N.am      6 SEP2        0.0000 
     18 CA         -8.0525  -33.3150   23.1480 C.3       4 GLC5        0.0000 
     19 CA         -7.0250  -33.3960   21.1890 C.3      12 GLL5        0.0000 
     20 CA         -8.9390  -33.4020   21.3250 C.3       4 GLC5        0.0000 
     21 CA        -10.8530  -33.4080   21.4610 C.3       8 GLP5        0.0000 
     22 CA        -10.0075  -33.5005   19.1605 C.3       4 GLC5        0.0000 
     23 CA         -8.7980  -35.3270   18.7080 C.3      12 GLL5        0.0000 
     24 CA        -11.2170  -31.6740   19.6130 C.3       8 GLP5        0.0000 
     25 CA         -7.2790  -37.9970   20.3735 C.3       4 GLC5        0.0000 
     26 CA         -8.8650  -37.3480   20.5020 C.3      12 GLL5        0.0000 
     27 CA         -5.6930  -38.6460   20.2450 C.3       8 GLP5        0.0000 
     28 CA         -8.8175  -39.5595   20.8910 C.3       4 GLC5        0.0000 
     29 CA         -8.7700  -41.7710   21.2800 C.3       8 GLP5        0.0000 
     30 CA         -6.9605  -36.9160   20.1020 C.3       4 GLC5        0.0000 
     31 CA         -8.2280  -35.1860   19.9590 C.3      12 GLL5        0.0000 
     32 N          -8.7985  -24.9630   23.8975 N.am      2 SEC2        0.0000 
     33 N          -8.4520  -25.5390   22.5620 N.am     10 SEL2        0.0000 
     34 N          -9.1450  -24.3870   25.2330 N.am      6 SEP2        0.0000 
     35 N          -7.1110  -26.4185   25.5625 N.am      2 SEC2        0.0000 
     36 N          -6.8500  -27.0010   24.0300 N.am     10 SEL2        0.0000 
     37 N          -7.3720  -25.8360   27.0950 N.am      6 SEP2        0.0000 
     38 CA         -7.8960  -23.1835   21.1525 C.3       4 GLC5        0.0000 
     39 CA         -5.9280  -23.9020   21.7780 C.3      12 GLL5        0.0000 
     40 CA         -9.8640  -22.4650   20.5270 C.3       8 GLP5        0.0000 
     41 CA         -4.7135  -21.3130   21.1020 C.3       4 GLC5        0.0000 
     42 CA         -4.7050  -22.9930   21.9410 C.3      12 GLL5        0.0000 
     43 CA         -4.7220  -19.6330   20.2630 C.3       8 GLP5        0.0000 
     44 O          -2.5190  -21.7085   21.7195 O.2       1 ALC1        0.0000 
     45 O          -2.2840  -23.1960   21.9640 O.2       9 ALL1        0.0000 
     46 O          -2.7540  -20.2210   21.4750 O.2       5 ALP1        0.0000 
     47 CA         -3.9510  -24.1015   25.8250 C.3       4 GLC5        0.0000 
     48 CA         -3.5580  -23.4770   23.9750 C.3      12 GLL5        0.0000 
     49 CA         -4.3440  -24.7260   27.6750 C.3       8 GLP5        0.0000 
     50 O          -2.1665  -24.1175   25.7135 O.2       1 ALC1        0.0000 
     51 O          -2.2420  -23.5190   24.5450 O.2       9 ALL1        0.0000 
     52 O          -2.0910  -24.7160   26.8820 O.2       5 ALP1        0.0000 
     53 CA         -4.4140  -20.8385   22.1360 C.3       4 GLC5        0.0000 
     54 CA         -4.1060  -22.0440   24.0090 C.3      12 GLL5        0.0000 
     55 CA         -4.4455  -19.9635   24.1635 C.3       4 GLC5        0.0000 
     56 CA         -4.7850  -17.8830   24.3180 C.3       8 GLP5        0.0000 
     57 O          -5.6270  -21.6500   30.3960 O.2       1 ALC1        0.0000 
     58 O          -4.4710  -20.7350   30.0240 O.2       9 ALL1        0.0000 
     59 O          -6.7830  -22.5650   30.7680 O.2       5 ALP1        0.0000 
     60 CA         -7.8145  -23.7925   26.9500 C.3       4 GLC5        0.0000 
     61 CA         -6.8110  -21.9150   26.6500 C.3      12 GLL5        0.0000 
     62 CA         -8.8180  -25.6700   27.2500 C.3       8 GLP5        0.0000 
     63 CA         -5.8555  -19.8975   25.5140 C.3       4 GLC5        0.0000 
     64 CA         -6.1920  -22.0850   25.4150 C.3      12 GLL5        0.0000 
     65 CA         -5.5190  -17.7100   25.6130 C.3       8 GLP5        0.0000 
     66 NZ         -1.4580  -36.2090   21.9905 N.4       3 LYC4        0.0000 
     67 NZ         -2.7600  -35.8210   21.1200 N.4      11 LYL4        0.0000 
     68 NZ          0.5660  -35.5710   23.3150 N.4       7 LYP4        0.0000 
     69 N          -4.0205  -36.6110   20.3625 N.am      2 SEC2        0.0000 
     70 N          -2.7600  -35.8210   21.1200 N.am     10 SEL2        0.0000 
     71 N          -1.4580  -36.2090   21.9905 N.am      2 SEC2        0.0000 
     72 N          -0.1560  -36.5970   22.8610 N.am      6 SEP2        0.0000 
     73 NZ         -2.4980  -32.6510   19.0320 N.4       3 LYC4        0.0000 
     74 NZ         -2.9410  -33.8600   19.4330 N.4      11 LYL4        0.0000 
     75 NZ         -1.9890  -30.5680   19.6200 N.4       7 LYP4        0.0000 
     76 N          -4.0390  -34.8830   18.6475 N.am      2 SEC2        0.0000 
     77 N          -2.9410  -33.8600   19.4330 N.am     10 SEL2        0.0000 
     78 N          -5.1370  -35.9060   17.8620 N.am      6 SEP2        0.0000 
     79 N          -2.4980  -32.6510   19.0320 N.am      2 SEC2        0.0000 
     80 N          -2.0550  -31.4420   18.6310 N.am      6 SEP2        0.0000 
     81 NZ         -2.1670  -32.1930   21.4035 N.4       3 LYC4        0.0000 
     82 NZ         -2.5840  -33.3910   21.9510 N.4      11 LYL4        0.0000 
     83 N          -1.2820  -33.8775   22.6575 N.am      2 SEC2        0.0000 
     84 N          -2.5840  -33.3910   21.9510 N.am     10 SEL2        0.0000 
     85 N           0.0200  -34.3640   23.3640 N.am      6 SEP2        0.0000 
     86 N          -2.1670  -32.1930   21.4035 N.am      2 SEC2        0.0000 
     87 N          -1.7500  -30.9950   20.8560 N.am      6 SEP2        0.0000 
     88 CA         -8.5777  -30.6370   21.1427 C.3       4 GLC5        0.0000 
     89 CA        -10.5260  -30.6410   20.5210 C.3       8 GLP5        0.0000 
     90 CA         -4.3693  -23.0610   27.3603 C.3       4 GLC5        0.0000 
     91 CA         -4.0820  -21.4810   26.4300 C.3      12 GLL5        0.0000 
     92 CA         -5.3769  -19.5870   26.5109 C.3       4 GLC5        0.0000 
     93 CA         -5.3308  -23.3151   26.9940 C.3       4 GLC5        0.0000 
     94 CA         -6.0750  -21.5320   27.7720 C.3      12 GLL5        0.0000 
@<TRIPOS>BOND
@<TRIPOS>SUBSTRUCTURE
     1 ALC1       44 GROUP        1 X    ALC  0     ROOT ALC X 1
     2 SEC2       12 GROUP        1 X    SEC  0     **** SEC X 2
     3 LYC4       66 GROUP        1 X    LYC  0     **** LYC X 4
     4 GLC5        1 GROUP        1 X    GLC  0     **** GLC X 6
     5 ALP1       46 GROUP        1 Y    ALP  0     ROOT ALP Y 8
     6 SEP2       14 GROUP        1 Y    SEP  0     **** SEP Y 9
     7 LYP4       68 GROUP        1 Y    LYP  0     **** LYP Y 11
     8 GLP5        3 GROUP        1 Y    GLP  0     **** GLP Y 13
     9 ALL1       45 GROUP        1 Z    ALL  0     ROOT ALL Z 15
    10 SEL2       13 GROUP        1 Z    SEL  0     **** SEL Z 16
    11 LYL4       67 GROUP        1 Z    LYL  0     **** LYL Z 18
    12 GLL5        2 GROUP        1 Z    GLL  0     **** GLL Z 20
@<TRIPOS>SET

