#    Name: 3lzw_NAP_2_ligand
#    Modification time : Mon Mar 24 22:30:18 2014

@<TRIPOS>MOLECULE
3lzw_NAP_2_ligand
   73    77     1     0     0
SMALL
NO_CHARGES


@<TRIPOS>ATOM
      1 PA         -5.4340  -27.6130   21.3970 P.3       1 NAP2000     0.0000 
      2 O1A        -4.1900  -27.0530   21.9510 O.co2     1 NAP2000     0.0000 
      3 O2A        -5.4100  -27.6970   19.8050 O.co2     1 NAP2000     0.0000 
      4 O5B        -5.6320  -29.1280   21.9270 O.3       1 NAP2000     0.0000 
      5 C5B        -6.6510  -29.9490   21.4140 C.3       1 NAP2000     0.0000 
      6 C4B        -6.6080  -31.3170   22.1150 C.3       1 NAP2000     0.0000 
      7 O4B        -7.6110  -32.1140   21.4730 O.3       1 NAP2000     0.0000 
      8 C3B        -5.2670  -32.0420   21.9380 C.3       1 NAP2000     0.0000 
      9 O3B        -4.9120  -32.6550   23.1820 O.3       1 NAP2000     0.0000 
     10 C2B        -5.5720  -33.1020   20.8810 C.3       1 NAP2000     0.0000 
     11 O2B        -4.8320  -34.3070   21.0980 O.3       1 NAP2000     0.0000 
     12 C1B        -7.0250  -33.3960   21.1890 C.3       1 NAP2000     0.0000 
     13 N9A        -7.7170  -33.9630   20.0190 N.pl3     1 NAP2000     0.0000 
     14 C8A        -7.9530  -33.3540   18.8560 C.2       1 NAP2000     0.0000 
     15 N7A        -8.6150  -34.1840   18.0500 N.2       1 NAP2000     0.0000 
     16 C5A        -8.7980  -35.3270   18.7080 C.ar      1 NAP2000     0.0000 
     17 C6A        -9.4020  -36.5380   18.3900 C.ar      1 NAP2000     0.0000 
     18 N6A        -9.9630  -36.7150   17.2000 N.pl3     1 NAP2000     0.0000 
     19 N1A        -9.4190  -37.5210   19.3070 N.ar      1 NAP2000     0.0000 
     20 C2A        -8.8650  -37.3480   20.5020 C.ar      1 NAP2000     0.0000 
     21 N3A        -8.2710  -36.2060   20.8360 N.ar      1 NAP2000     0.0000 
     22 C4A        -8.2280  -35.1860   19.9590 C.ar      1 NAP2000     0.0000 
     23 O3         -6.8240  -26.7640   21.7750 O.3       1 NAP2000     0.0000 
     24 PN         -7.1270  -25.8710   23.1220 P.3       1 NAP2000     0.0000 
     25 O1N        -8.4520  -25.5390   22.5620 O.co2     1 NAP2000     0.0000 
     26 O2N        -6.8500  -27.0010   24.0300 O.co2     1 NAP2000     0.0000 
     27 O5D        -5.8710  -24.9490   22.7480 O.3       1 NAP2000     0.0000 
     28 C5D        -5.9280  -23.9020   21.7780 C.3       1 NAP2000     0.0000 
     29 C4D        -4.7050  -22.9930   21.9410 C.3       1 NAP2000     0.0000 
     30 O4D        -5.0340  -21.9760   22.9290 O.3       1 NAP2000     0.0000 
     31 C3D        -3.4940  -23.7590   22.4910 C.3       1 NAP2000     0.0000 
     32 O3D        -2.2840  -23.1960   21.9640 O.3       1 NAP2000     0.0000 
     33 C2D        -3.5580  -23.4770   23.9750 C.3       1 NAP2000     0.0000 
     34 O2D        -2.2420  -23.5190   24.5450 O.3       1 NAP2000     0.0000 
     35 C1D        -4.1060  -22.0440   24.0090 C.3       1 NAP2000     0.0000 
     36 N1N        -4.8120  -21.8600   25.3010 N.pl3     1 NAP2000     0.0000 
     37 C2N        -4.0820  -21.4810   26.4300 C.ar      1 NAP2000     0.0000 
     38 C3N        -4.7070  -21.3110   27.6610 C.ar      1 NAP2000     0.0000 
     39 C7N        -3.8480  -20.9130   28.8630 C.2       1 NAP2000     0.0000 
     40 O7N        -2.6320  -20.8110   28.7450 O.2       1 NAP2000     0.0000 
     41 N7N        -4.4710  -20.7350   30.0240 N.am      1 NAP2000     0.0000 
     42 C4N        -6.0750  -21.5320   27.7720 C.ar      1 NAP2000     0.0000 
     43 C5N        -6.8110  -21.9150   26.6500 C.ar      1 NAP2000     0.0000 
     44 C6N        -6.1920  -22.0850   25.4150 C.ar      1 NAP2000     0.0000 
     45 P2B        -3.2380  -34.4270   20.9140 P.3       1 NAP2000     0.0000 
     46 O1X        -2.7600  -35.8210   21.1200 O.co2     1 NAP2000     0.0000 
     47 O2X        -2.9410  -33.8600   19.4330 O.co2     1 NAP2000     0.0000 
     48 O3X        -2.5840  -33.3910   21.9510 O.co2     1 NAP2000     0.0000 
     49 H          -6.5407  -30.1327   20.3382 H         1 NAP2000     0.0000 
     50 H          -7.6513  -29.5308   21.5809 H         1 NAP2000     0.0000 
     51 H          -6.8182  -31.1921   23.1438 H         1 NAP2000     0.0000 
     52 H          -4.5650  -31.3683   21.5679 H         1 NAP2000     0.0000 
     53 H          -5.4990  -32.6930   19.9377 H         1 NAP2000     0.0000 
     54 H          -7.0849  -34.0344   22.0254 H         1 NAP2000     0.0000 
     55 H          -7.6827  -32.4420   18.6306 H         1 NAP2000     0.0000 
     56 H          -9.9476  -35.9269   16.5847 H         1 NAP2000     0.0000 
     57 H         -10.3503  -37.6205   17.0264 H         1 NAP2000     0.0000 
     58 H          -8.8969  -38.1387   21.2065 H         1 NAP2000     0.0000 
     59 H          -6.8212  -23.2823   21.8988 H         1 NAP2000     0.0000 
     60 H          -5.9185  -24.2918   20.7560 H         1 NAP2000     0.0000 
     61 H          -4.4546  -22.5541   21.0138 H         1 NAP2000     0.0000 
     62 H          -3.6163  -24.7720   22.3162 H         1 NAP2000     0.0000 
     63 H          -4.2502  -24.1139   24.4229 H         1 NAP2000     0.0000 
     64 H          -3.3072  -21.3777   23.9052 H         1 NAP2000     0.0000 
     65 H          -3.0636  -21.3254   26.3469 H         1 NAP2000     0.0000 
     66 H          -3.8966  -20.4551   30.7932 H         1 NAP2000     0.0000 
     67 H          -5.4578  -20.8971   30.0232 H         1 NAP2000     0.0000 
     68 H          -6.5453  -21.4142   28.6771 H         1 NAP2000     0.0000 
     69 H          -7.8279  -22.0740   26.7387 H         1 NAP2000     0.0000 
     70 H          -6.7328  -22.3706   24.5969 H         1 NAP2000     0.0000 
     71 H          -4.0139  -33.0644   23.0216 H         1 NAP2000     0.0000 
     72 H          -2.4979  -22.2336   21.7966 H         1 NAP2000     0.0000 
     73 H          -2.3447  -24.0354   25.3951 H         1 NAP2000     0.0000 
@<TRIPOS>BOND
     1    2    1 ar   
     2    3    1 ar   
     3    4    1 1    
     4   23    1 1    
     5    5    4 1    
     6    6    5 1    
     7   49    5 1    
     8   50    5 1    
     9    7    6 1    
    10    8    6 1    
    11   51    6 1    
    12   12    7 1    
    13    9    8 1    
    14   10    8 1    
    15   52    8 1    
    16   71    9 1    
    17   11   10 1    
    18   12   10 1    
    19   53   10 1    
    20   45   11 1    
    21   13   12 1    
    22   54   12 1    
    23   14   13 1    
    24   22   13 1    
    25   15   14 2    
    26   55   14 1    
    27   16   15 1    
    28   17   16 ar   
    29   22   16 ar   
    30   18   17 1    
    31   19   17 ar   
    32   56   18 1    
    33   57   18 1    
    34   20   19 ar   
    35   21   20 ar   
    36   58   20 1    
    37   22   21 ar   
    38   24   23 1    
    39   25   24 ar   
    40   26   24 ar   
    41   27   24 1    
    42   28   27 1    
    43   29   28 1    
    44   59   28 1    
    45   60   28 1    
    46   30   29 1    
    47   31   29 1    
    48   61   29 1    
    49   35   30 1    
    50   32   31 1    
    51   33   31 1    
    52   62   31 1    
    53   72   32 1    
    54   34   33 1    
    55   35   33 1    
    56   63   33 1    
    57   73   34 1    
    58   36   35 1    
    59   64   35 1    
    60   37   36 ar   
    61   44   36 ar   
    62   38   37 ar   
    63   65   37 1    
    64   39   38 1    
    65   42   38 ar   
    66   40   39 2    
    67   41   39 am   
    68   66   41 1    
    69   67   41 1    
    70   43   42 ar   
    71   68   42 1    
    72   44   43 ar   
    73   69   43 1    
    74   70   44 1    
    75   46   45 ar   
    76   47   45 ar   
    77   48   45 ar   
@<TRIPOS>SUBSTRUCTURE
     1 NAP2000     1 GROUP   
@<TRIPOS>SET

