#    Name: 4l7p_M95_1_INTS_M
#    Modification time : Tue Mar 25 09:52:40 2014

@<TRIPOS>MOLECULE
4l7p_M95_1_INTS_M
   37     0     6     0     0
SMALL
NO_CHARGES


@<TRIPOS>ATOM
      1 CA          4.7625    6.5820   24.3635 C.3       2 GLC5        0.0000 
      2 CA          3.4890    5.2290   24.9200 C.3       6 GLL5        0.0000 
      3 CA          6.0360    7.9350   23.8070 C.3       4 GLP5        0.0000 
      4 CA          5.0115    5.3310   22.9910 C.3       2 GLC5        0.0000 
      5 CA          3.2920    4.7580   23.5040 C.3       6 GLL5        0.0000 
      6 CA          6.7310    5.9040   22.4780 C.3       4 GLP5        0.0000 
      7 CA          0.2115    7.5235   18.5500 C.3       2 GLC5        0.0000 
      8 CA          1.9920    8.2720   19.4100 C.3       6 GLL5        0.0000 
      9 CA         -1.5690    6.7750   17.6900 C.3       4 GLP5        0.0000 
     10 CA          3.1450    9.7950   18.3960 C.3       2 GLC5        0.0000 
     11 CA          4.2980   11.3180   17.3820 C.3       4 GLP5        0.0000 
     12 N           3.5360    4.2795   18.9050 N.am      1 SEC2        0.0000 
     13 N           2.9810    5.5410   19.1500 N.am      5 SEL2        0.0000 
     14 N           4.0910    3.0180   18.6600 N.am      3 SEP2        0.0000 
     15 N           3.2920    5.8850   17.8960 N.am      1 SEC2        0.0000 
     16 N           3.6030    6.2290   16.6420 N.am      3 SEP2        0.0000 
     17 CA          8.2792    6.0250   24.2760 C.3       2 GLC5        0.0000 
     18 CA          8.1320    5.4870   26.1520 C.3       6 GLL5        0.0000 
     19 CA          8.2620    5.8730   22.3270 C.3       4 GLP5        0.0000 
     20 CA          9.0721    4.3812   26.1740 C.3       2 GLC5        0.0000 
     21 CA         10.3900    3.2390   25.7080 C.3       4 GLP5        0.0000 
     22 CA          4.3600    5.1179   30.8963 C.3       2 GLC5        0.0000 
     23 CA          5.6470    5.0800   29.0470 C.3       6 GLL5        0.0000 
     24 CA          4.5100    5.8120   32.6490 C.3       4 GLP5        0.0000 
     25 CA          0.2573    8.0785   22.0945 C.3       2 GLC5        0.0000 
     26 CA          2.1570    7.8410   21.7900 C.3       6 GLL5        0.0000 
     27 CA         -1.4100    7.6680   22.2680 C.3       4 GLP5        0.0000 
     28 CA          0.0138    8.7075   21.3045 C.3       2 GLC5        0.0000 
     29 CA          1.3730    9.9800   20.9920 C.3       6 GLL5        0.0000 
     30 CA          2.6498   11.2260   19.8860 C.3       2 GLC5        0.0000 
     31 CA          3.8620   12.7050   19.4310 C.3       4 GLP5        0.0000 
     32 CA          0.7442   11.5175   20.1125 C.3       2 GLC5        0.0000 
     33 CA          1.5020    9.5140   19.6900 C.3       6 GLL5        0.0000 
     34 CA          0.0510   13.2880   19.8840 C.3       4 GLP5        0.0000 
     35 CA          1.8470    8.9510   17.5550 C.3       2 GLC5        0.0000 
     36 CA          1.9470    9.0090   15.5600 C.3       4 GLP5        0.0000 
     37 CA          0.3715    7.7500   21.0975 C.3       2 GLC5        0.0000 
@<TRIPOS>BOND
@<TRIPOS>SUBSTRUCTURE
     1 SEC2       12 GROUP        1 X    SEC  0     ROOT SEC X 2
     2 GLC5        1 GROUP        1 X    GLC  0     **** GLC X 6
     3 SEP2       14 GROUP        1 Y    SEP  0     ROOT SEP Y 9
     4 GLP5        3 GROUP        1 Y    GLP  0     **** GLP Y 13
     5 SEL2       13 GROUP        1 Z    SEL  0     ROOT SEL Z 16
     6 GLL5        2 GROUP        1 Z    GLL  0     **** GLL Z 20
@<TRIPOS>SET

