#    Name: 4l7p_M95_1_ligand
#    Modification time : Tue Mar 25 09:52:40 2014

@<TRIPOS>MOLECULE
4l7p_M95_1_ligand
   45    47     1     0     0
SMALL
NO_CHARGES


@<TRIPOS>ATOM
      1 CAK         6.9210    7.0220   28.2200 C.ar      1 M95601      0.0000 
      2 CAG         7.8430    7.6460   27.3200 C.ar      1 M95601      0.0000 
      3 CAF         8.4610    6.8670   26.2980 C.ar      1 M95601      0.0000 
      4 CAH         8.1320    5.4870   26.1520 C.ar      1 M95601      0.0000 
      5 CAL         7.2120    4.8700   27.0550 C.ar      1 M95601      0.0000 
      6 CAU         6.5830    5.6290   28.1130 C.ar      1 M95601      0.0000 
      7 CAP         5.6470    5.0800   29.0470 C.3       1 M95601      0.0000 
      8 CAZ         4.4810    4.2310   28.5010 C.3       1 M95601      0.0000 
      9 CAO         3.3560    4.1920   29.5130 C.3       1 M95601      0.0000 
     10 OAC         2.6430    2.9370   29.4200 O.3       1 M95601      0.0000 
     11 NAR         4.0430    4.9060   27.2170 N.am      1 M95601      0.0000 
     12 CAT         3.9120    4.2930   26.0450 C.2       1 M95601      0.0000 
     13 OAA         4.1190    3.1120   25.8770 O.2       1 M95601      0.0000 
     14 CAD         3.4890    5.2290   24.9200 C.2       1 M95601      0.0000 
     15 CAE         3.2920    4.7580   23.5040 C.2       1 M95601      0.0000 
     16 CAV         2.9230    5.7210   22.5430 C.2       1 M95601      0.0000 
     17 NAQ         2.4630    7.0430   22.8050 N.pl3     1 M95601      0.0000 
     18 CAX         2.1570    7.8410   21.7900 C.ar      1 M95601      0.0000 
     19 CAM         1.6920    9.1370   22.0520 C.ar      1 M95601      0.0000 
     20 CAI         1.3730    9.9800   20.9920 C.ar      1 M95601      0.0000 
     21 CAJ         1.5020    9.5140   19.6900 C.ar      1 M95601      0.0000 
     22 CAN         1.9920    8.2720   19.4100 C.ar      1 M95601      0.0000 
     23 CAY         2.3140    7.3920   20.4440 C.ar      1 M95601      0.0000 
     24 CAW         2.8150    6.0600   20.2130 C.2       1 M95601      0.0000 
     25 OAB         2.9810    5.5410   19.1500 O.2       1 M95601      0.0000 
     26 NAS         3.1350    5.3010   21.2360 N.2       1 M95601      0.0000 
     27 H           6.4880    7.5828   28.9631 H         1 M95601      0.0000 
     28 H           8.0526    8.6315   27.4104 H         1 M95601      0.0000 
     29 H           9.1380    7.2964   25.6716 H         1 M95601      0.0000 
     30 H           8.5519    4.9402   25.4048 H         1 M95601      0.0000 
     31 H           6.9907    3.8788   26.9577 H         1 M95601      0.0000 
     32 H           5.1808    5.8985   29.6743 H         1 M95601      0.0000 
     33 H           6.1769    4.4398   29.8152 H         1 M95601      0.0000 
     34 H           4.8400    3.2587   28.2922 H         1 M95601      0.0000 
     35 H           2.6877    5.0403   29.3193 H         1 M95601      0.0000 
     36 H           3.7863    4.3277   30.5132 H         1 M95601      0.0000 
     37 H           3.8453    5.9356   27.3383 H         1 M95601      0.0000 
     38 H           3.3370    6.1999   25.1398 H         1 M95601      0.0000 
     39 H           3.4270    3.7999   23.3005 H         1 M95601      0.0000 
     40 H           2.3835    7.3358   23.7899 H         1 M95601      0.0000 
     41 H           1.5893    9.4570   23.0187 H         1 M95601      0.0000 
     42 H           1.0467   10.9336   21.1711 H         1 M95601      0.0000 
     43 H           1.2109   10.1442   18.9054 H         1 M95601      0.0000 
     44 H           2.1305    7.9680   18.4312 H         1 M95601      0.0000 
     45 H           2.8428    2.5934   28.5024 H         1 M95601      0.0000 
@<TRIPOS>BOND
     1    2    1 ar   
     2    6    1 ar   
     3   27    1 1    
     4    3    2 ar   
     5   28    2 1    
     6    4    3 ar   
     7   29    3 1    
     8    5    4 ar   
     9   30    4 1    
    10    6    5 ar   
    11   31    5 1    
    12    7    6 1    
    13    8    7 1    
    14   32    7 1    
    15   33    7 1    
    16    9    8 1    
    17   11    8 1    
    18   34    8 1    
    19   10    9 1    
    20   35    9 1    
    21   36    9 1    
    22   45   10 1    
    23   12   11 am   
    24   37   11 1    
    25   13   12 2    
    26   14   12 1    
    27   15   14 2    
    28   38   14 1    
    29   16   15 1    
    30   39   15 1    
    31   17   16 1    
    32   26   16 2    
    33   18   17 1    
    34   40   17 1    
    35   19   18 ar   
    36   23   18 ar   
    37   20   19 ar   
    38   41   19 1    
    39   21   20 ar   
    40   42   20 1    
    41   22   21 ar   
    42   43   21 1    
    43   23   22 ar   
    44   44   22 1    
    45   24   23 1    
    46   25   24 2    
    47   26   24 1    
@<TRIPOS>SUBSTRUCTURE
     1 M95601      1 GROUP   
@<TRIPOS>SET

