#    Name: 2ewp_TXF_3_INTS_M
#    Modification time : Tue Mar 25 12:09:14 2014

@<TRIPOS>MOLECULE
2ewp_TXF_3_INTS_M
  105     0    12     0     0
SMALL
NO_CHARGES


@<TRIPOS>ATOM
      1 O          43.4110    7.8395   66.4125 O.2       1 ALC1        0.0000 
      2 O          42.8130    8.1070   65.2880 O.2       9 ALL1        0.0000 
      3 O          44.0090    7.5720   67.5370 O.2       5 ALP1        0.0000 
      4 CA         42.1745    5.4920   66.5375 C.3       4 GLC5        0.0000 
      5 CA         40.9370    7.0590   66.3810 C.3      12 GLL5        0.0000 
      6 CA         43.4120    3.9250   66.6940 C.3       8 GLP5        0.0000 
      7 CA         38.0490   10.5245   65.1955 C.3       4 GLC5        0.0000 
      8 CA         39.2230    8.7500   64.9690 C.3      12 GLL5        0.0000 
      9 CA         36.8750   12.2990   65.4220 C.3       8 GLP5        0.0000 
     10 CA         37.3695    5.5425   66.4670 C.3       4 GLC5        0.0000 
     11 CA         37.1790    7.7330   66.0330 C.3      12 GLL5        0.0000 
     12 CA         37.5600    3.3520   66.9010 C.3       8 GLP5        0.0000 
     13 CA         35.4055    4.7625   64.9110 C.3       4 GLC5        0.0000 
     14 CA         34.0260    6.3190   65.2750 C.3      12 GLL5        0.0000 
     15 CA         36.7850    3.2060   64.5470 C.3       8 GLP5        0.0000 
     16 CA         34.7880   10.4850   65.9275 C.3       4 GLC5        0.0000 
     17 CA         34.1350    8.7100   65.3670 C.3      12 GLL5        0.0000 
     18 CA         35.4410   12.2600   66.4880 C.3       8 GLP5        0.0000 
     19 CA         38.3785    6.3325   62.8640 C.3       4 GLC5        0.0000 
     20 CA         36.7260    7.2580   63.6020 C.3      12 GLL5        0.0000 
     21 CA         40.0310    5.4070   62.1260 C.3       8 GLP5        0.0000 
     22 CA         34.0790    8.6290   61.6805 C.3       4 GLC5        0.0000 
     23 CA         36.0440    8.2660   62.6790 C.3      12 GLL5        0.0000 
     24 CA         32.1140    8.9920   60.6820 C.3       8 GLP5        0.0000 
     25 CA         38.4045    6.8450   61.7465 C.3       4 GLC5        0.0000 
     26 CA         36.7780    8.2830   61.3670 C.3      12 GLL5        0.0000 
     27 CA         37.5180    9.0100   59.9740 C.3       4 GLC5        0.0000 
     28 CA         38.2580    9.7370   58.5810 C.3       8 GLP5        0.0000 
     29 N          37.4990    5.9365   60.7165 N.am      2 SEC2        0.0000 
     30 N          36.7500    6.9680   60.8120 N.am     10 SEL2        0.0000 
     31 N          38.2480    4.9050   60.6210 N.am      6 SEP2        0.0000 
     32 N          36.6760    6.6450   59.5840 N.am      2 SEC2        0.0000 
     33 N          36.6020    6.3220   58.3560 N.am      6 SEP2        0.0000 
     34 CA         36.8305    5.1240   67.5005 C.3       4 GLC5        0.0000 
     35 CA         36.1010    6.8960   68.1000 C.3      12 GLL5        0.0000 
     36 CA         36.6825    5.5235   69.7520 C.3       4 GLC5        0.0000 
     37 CA         37.2640    4.1510   71.4040 C.3       8 GLP5        0.0000 
     38 CA         35.1090    5.5945   70.4850 C.3       4 GLC5        0.0000 
     39 CA         35.7470    7.0030   69.4360 C.3      12 GLL5        0.0000 
     40 CA         34.4710    4.1860   71.5340 C.3       8 GLP5        0.0000 
     41 CA         36.3045   10.6595   67.3285 C.3       4 GLC5        0.0000 
     42 CA         37.1680    9.0590   68.1690 C.3      12 GLL5        0.0000 
     43 CA         36.6915    6.1445   70.7785 C.3       4 GLC5        0.0000 
     44 CA         36.1190    8.1380   70.1530 C.3      12 GLL5        0.0000 
     45 CA         38.0515    8.5345   71.3340 C.3       4 GLC5        0.0000 
     46 CA         36.2440    9.2320   72.3840 C.3      12 GLL5        0.0000 
     47 CA         39.8590    7.8370   70.2840 C.3       8 GLP5        0.0000 
     48 CA         36.4800   11.3250   73.0715 C.3       4 GLC5        0.0000 
     49 CA         36.7160   13.4180   73.7590 C.3       8 GLP5        0.0000 
     50 CA         33.5285    9.3895   74.3505 C.3       4 GLC5        0.0000 
     51 CA         35.5320    9.1130   73.7370 C.3      12 GLL5        0.0000 
     52 CA         31.5250    9.6660   74.9640 C.3       8 GLP5        0.0000 
     53 CA         35.3520   11.0595   74.1535 C.3       4 GLC5        0.0000 
     54 CA         35.1720   13.0060   74.5700 C.3       8 GLP5        0.0000 
     55 OD1        37.4495    7.8770   74.7970 O.co2     3 ASC3        0.0000 
     56 OD1        36.0690    7.9930   74.5400 O.co2    11 ASL3        0.0000 
     57 OD1        38.8300    7.7610   75.0540 O.co2     7 ASP3        0.0000 
     58 OD1        37.4000    6.9985   75.4645 O.co2     3 ASC3        0.0000 
     59 OD1        38.7310    6.0040   76.3890 O.co2     7 ASP3        0.0000 
     60 O          37.4495    7.8770   74.7970 O.2       1 ALC1        0.0000 
     61 O          36.0690    7.9930   74.5400 O.2       9 ALL1        0.0000 
     62 O          38.8300    7.7610   75.0540 O.2       5 ALP1        0.0000 
     63 CA         35.8515    5.1280   73.0785 C.3       4 GLC5        0.0000 
     64 CA         35.6560    6.6750   74.0110 C.3      12 GLL5        0.0000 
     65 CA         36.0470    3.5810   72.1460 C.3       8 GLP5        0.0000 
     66 CA         36.4600    9.8015   76.8560 C.3       4 GLC5        0.0000 
     67 CA         35.6560    8.1430   75.9530 C.3      12 GLL5        0.0000 
     68 CA         37.2640   11.4600   77.7590 C.3       8 GLP5        0.0000 
     69 CA         42.0763    8.1945   63.5472 C.3       4 GLC5        0.0000 
     70 CA         40.6010    8.8400   64.7790 C.3      12 GLL5        0.0000 
     71 CA         43.1210    7.9670   61.9600 C.3       8 GLP5        0.0000 
     72 CA         39.7242    5.1997   65.7325 C.3       4 GLC5        0.0000 
     73 CA         39.2020    3.3920   64.9940 C.3       8 GLP5        0.0000 
     74 CA         40.0527    7.4223   68.3775 C.3       4 GLC5        0.0000 
     75 CA         39.5560    6.9560   66.5610 C.3      12 GLL5        0.0000 
     76 CA         40.8981   10.2650   65.5689 C.3       4 GLC5        0.0000 
     77 CA         41.4620    8.0040   65.4900 C.3      12 GLL5        0.0000 
     78 CA         41.6690   11.9440   66.0860 C.3       8 GLP5        0.0000 
     79 CA         36.6457    5.2882   64.4320 C.3       4 GLC5        0.0000 
     80 CA         36.2870    7.4830   65.0320 C.3      12 GLL5        0.0000 
     81 CA         32.7567    4.5203   65.6140 C.3       4 GLC5        0.0000 
     82 CA         32.1770    2.6930   65.8600 C.3       8 GLP5        0.0000 
     83 CA         32.9543    5.7858   63.5645 C.3       4 GLC5        0.0000 
     84 CA         32.6470    6.3760   65.4610 C.3      12 GLL5        0.0000 
     85 CA         32.5720    5.2240   61.7610 C.3       8 GLP5        0.0000 
     86 CA         32.7447    6.1608   67.1280 C.3       4 GLC5        0.0000 
     87 CA         32.1530    5.9740   68.8880 C.3       8 GLP5        0.0000 
     88 CA         30.5860    6.1037   66.1015 C.3       4 GLC5        0.0000 
     89 CA         32.0110    7.6030   65.6170 C.3      12 GLL5        0.0000 
     90 CA         28.8430    5.2180   66.6640 C.3       8 GLP5        0.0000 
     91 CA         31.2695    9.2543   66.6033 C.3       4 GLC5        0.0000 
     92 CA         30.1570   10.3230   67.6210 C.3       8 GLP5        0.0000 
     93 CA         32.2675    7.0798   67.2368 C.3       4 GLC5        0.0000 
     94 CA         32.7530    8.7680   65.5540 C.3      12 GLL5        0.0000 
     95 CA         31.1690    7.7124   64.3588 C.3       4 GLC5        0.0000 
     96 CA         29.7970    7.5460   63.1710 C.3       8 GLP5        0.0000 
     97 CA         38.1513    7.6242   69.0320 C.3       4 GLC5        0.0000 
     98 CA         34.0385    6.4618   68.8280 C.3       4 GLC5        0.0000 
     99 CA         37.8960    7.7037   70.0393 C.3       4 GLC5        0.0000 
    100 CA         38.4260    8.4765   69.5618 C.3       4 GLC5        0.0000 
    101 CA         36.8180    9.1730   69.5100 C.3      12 GLL5        0.0000 
    102 CA         38.7000   10.2335   68.5012 C.3       4 GLC5        0.0000 
    103 CA         40.4070   11.3510   68.1630 C.3       8 GLP5        0.0000 
    104 CA         34.5865    9.6582   72.0457 C.3       4 GLC5        0.0000 
    105 CA         33.2850   10.1440   71.0310 C.3       8 GLP5        0.0000 
@<TRIPOS>BOND
@<TRIPOS>SUBSTRUCTURE
     1 ALC1        1 GROUP        1 X    ALC  0     ROOT ALC X 1
     2 SEC2       29 GROUP        1 X    SEC  0     **** SEC X 2
     3 ASC3       55 GROUP        1 X    ASC  0     **** ASC X 3
     4 GLC5        4 GROUP        1 X    GLC  0     **** GLC X 6
     5 ALP1        3 GROUP        1 Y    ALP  0     ROOT ALP Y 8
     6 SEP2       31 GROUP        1 Y    SEP  0     **** SEP Y 9
     7 ASP3       57 GROUP        1 Y    ASP  0     **** ASP Y 10
     8 GLP5        6 GROUP        1 Y    GLP  0     **** GLP Y 13
     9 ALL1        2 GROUP        1 Z    ALL  0     ROOT ALL Z 15
    10 SEL2       30 GROUP        1 Z    SEL  0     **** SEL Z 16
    11 ASL3       56 GROUP        1 Z    ASL  0     **** ASL Z 17
    12 GLL5        5 GROUP        1 Z    GLL  0     **** GLL Z 20
@<TRIPOS>SET

