#    Name: 2ewp_TXF_3_ligand
#    Modification time : Tue Mar 25 12:09:14 2014

@<TRIPOS>MOLECULE
2ewp_TXF_3_ligand
   63    65     1     0     0
SMALL
NO_CHARGES


@<TRIPOS>ATOM
      1 O29        42.8130    8.1070   65.2880 O.3       1 TXF503      0.0000 
      2 C26        41.4620    8.0040   65.4900 C.ar      1 TXF503      0.0000 
      3 C25        40.9370    7.0590   66.3810 C.ar      1 TXF503      0.0000 
      4 C24        39.5560    6.9560   66.5610 C.ar      1 TXF503      0.0000 
      5 C27        40.6010    8.8400   64.7790 C.ar      1 TXF503      0.0000 
      6 C28        39.2230    8.7500   64.9690 C.ar      1 TXF503      0.0000 
      7 C23        38.6810    7.7900   65.8470 C.ar      1 TXF503      0.0000 
      8 C11        37.1790    7.7330   66.0330 C.2       1 TXF503      0.0000 
      9 C12        36.2870    7.4830   65.0320 C.2       1 TXF503      0.0000 
     10 C17        34.7830    7.4780   65.2400 C.ar      1 TXF503      0.0000 
     11 C22        34.0260    6.3190   65.2750 C.ar      1 TXF503      0.0000 
     12 C21        32.6470    6.3760   65.4610 C.ar      1 TXF503      0.0000 
     13 C20        32.0110    7.6030   65.6170 C.ar      1 TXF503      0.0000 
     14 C19        32.7530    8.7680   65.5540 C.ar      1 TXF503      0.0000 
     15 C18        34.1350    8.7100   65.3670 C.ar      1 TXF503      0.0000 
     16 C13        36.7260    7.2580   63.6020 C.3       1 TXF503      0.0000 
     17 C14        36.0440    8.2660   62.6790 C.3       1 TXF503      0.0000 
     18 C15        36.7780    8.2830   61.3670 C.3       1 TXF503      0.0000 
     19 O16        36.7500    6.9680   60.8120 O.3       1 TXF503      0.0000 
     20 C8         36.7860    7.9270   67.4600 C.ar      1 TXF503      0.0000 
     21 C7         36.1010    6.8960   68.1000 C.ar      1 TXF503      0.0000 
     22 C6         35.7470    7.0030   69.4360 C.ar      1 TXF503      0.0000 
     23 C9         37.1680    9.0590   68.1690 C.ar      1 TXF503      0.0000 
     24 C10        36.8180    9.1730   69.5100 C.ar      1 TXF503      0.0000 
     25 C5         36.1190    8.1380   70.1530 C.ar      1 TXF503      0.0000 
     26 O4         35.7580    8.2220   71.4820 O.3       1 TXF503      0.0000 
     27 C3         36.2440    9.2320   72.3840 C.3       1 TXF503      0.0000 
     28 C2         35.5320    9.1130   73.7370 C.3       1 TXF503      0.0000 
     29 N1         36.0690    7.9930   74.5400 N.4       1 TXF503      0.0000 
     30 C31        35.6560    6.6750   74.0110 C.3       1 TXF503      0.0000 
     31 C30        35.6560    8.1430   75.9530 C.3       1 TXF503      0.0000 
     32 H          41.5706    6.4416   66.9020 H         1 TXF503      0.0000 
     33 H          39.1741    6.2655   67.2204 H         1 TXF503      0.0000 
     34 H          40.9839    9.5237   64.1137 H         1 TXF503      0.0000 
     35 H          38.5901    9.3871   64.4669 H         1 TXF503      0.0000 
     36 H          34.4860    5.4001   65.1622 H         1 TXF503      0.0000 
     37 H          32.0968    5.5059   65.4830 H         1 TXF503      0.0000 
     38 H          30.9980    7.6395   65.7776 H         1 TXF503      0.0000 
     39 H          32.2904    9.6836   65.6446 H         1 TXF503      0.0000 
     40 H          34.6823    9.5812   65.3221 H         1 TXF503      0.0000 
     41 H          36.4573    6.2516   63.2902 H         1 TXF503      0.0000 
     42 H          37.8040    7.3788   63.5263 H         1 TXF503      0.0000 
     43 H          36.0792    9.2454   63.1368 H         1 TXF503      0.0000 
     44 H          35.0161    7.9663   62.5254 H         1 TXF503      0.0000 
     45 H          37.8027    8.6207   61.5478 H         1 TXF503      0.0000 
     46 H          36.2915    9.0076   60.7074 H         1 TXF503      0.0000 
     47 H          35.8556    6.0432   67.5699 H         1 TXF503      0.0000 
     48 H          35.2168    6.2561   69.8946 H         1 TXF503      0.0000 
     49 H          37.7017    9.8020   67.7095 H         1 TXF503      0.0000 
     50 H          37.0697   10.0182   70.0400 H         1 TXF503      0.0000 
     51 H          36.0601   10.2400   71.9971 H         1 TXF503      0.0000 
     52 H          37.3197    9.1291   72.5622 H         1 TXF503      0.0000 
     53 H          34.4602    8.9707   73.5500 H         1 TXF503      0.0000 
     54 H          35.6537   10.0621   74.2741 H         1 TXF503      0.0000 
     55 H          37.1721    8.0479   74.5074 H         1 TXF503      0.0000 
     56 H          35.9719    6.5360   73.0724 H         1 TXF503      0.0000 
     57 H          36.0238    5.9233   74.5584 H         1 TXF503      0.0000 
     58 H          34.6613    6.5729   74.0036 H         1 TXF503      0.0000 
     59 H          36.0031    7.3979   76.5225 H         1 TXF503      0.0000 
     60 H          35.9932    8.9967   76.3499 H         1 TXF503      0.0000 
     61 H          34.6608    8.1474   76.0506 H         1 TXF503      0.0000 
     62 H          43.2229    7.4922   65.9618 H         1 TXF503      0.0000 
     63 H          35.9516    6.5299   61.2249 H         1 TXF503      0.0000 
@<TRIPOS>BOND
     1    2    1 1    
     2   62    1 1    
     3    3    2 ar   
     4    5    2 ar   
     5    4    3 ar   
     6   32    3 1    
     7    7    4 ar   
     8   33    4 1    
     9    6    5 ar   
    10   34    5 1    
    11    7    6 ar   
    12   35    6 1    
    13    8    7 1    
    14    9    8 2    
    15   20    8 1    
    16   10    9 1    
    17   16    9 1    
    18   11   10 ar   
    19   15   10 ar   
    20   12   11 ar   
    21   36   11 1    
    22   13   12 ar   
    23   37   12 1    
    24   14   13 ar   
    25   38   13 1    
    26   15   14 ar   
    27   39   14 1    
    28   40   15 1    
    29   17   16 1    
    30   41   16 1    
    31   42   16 1    
    32   18   17 1    
    33   43   17 1    
    34   44   17 1    
    35   19   18 1    
    36   45   18 1    
    37   46   18 1    
    38   63   19 1    
    39   21   20 ar   
    40   23   20 ar   
    41   22   21 ar   
    42   47   21 1    
    43   25   22 ar   
    44   48   22 1    
    45   24   23 ar   
    46   49   23 1    
    47   25   24 ar   
    48   50   24 1    
    49   26   25 1    
    50   27   26 1    
    51   28   27 1    
    52   51   27 1    
    53   52   27 1    
    54   29   28 1    
    55   53   28 1    
    56   54   28 1    
    57   30   29 1    
    58   31   29 1    
    59   55   29 1    
    60   56   30 1    
    61   57   30 1    
    62   58   30 1    
    63   59   31 1    
    64   60   31 1    
    65   61   31 1    
@<TRIPOS>SUBSTRUCTURE
     1 TXF503      1 GROUP   
@<TRIPOS>SET

