#    Name: 3ebf_332_1_INTS_M
#    Modification time : Tue Mar 25 01:22:08 2014

@<TRIPOS>MOLECULE
3ebf_332_1_INTS_M
   42     0     6     0     0
SMALL
NO_CHARGES


@<TRIPOS>ATOM
      1 CA        124.3480  110.8460   34.3345 C.3       2 GLC5        0.0000 
      2 CA        122.9540  112.0010   33.5780 C.3       6 GLL5        0.0000 
      3 CA        125.7420  109.6910   35.0910 C.3       4 GLP5        0.0000 
      4 O         124.7045  116.5005   30.3065 O.2       1 ALC1        0.0000 
      5 O         123.9190  115.5170   31.2880 O.2       5 ALL1        0.0000 
      6 O         125.4900  117.4840   29.3250 O.2       3 ALP1        0.0000 
      7 O         122.8575  116.4150   31.5310 O.2       1 ALC1        0.0000 
      8 O         121.7960  117.3130   31.7740 O.2       3 ALP1        0.0000 
      9 O         122.1295  115.3705   33.3455 O.2       1 ALC1        0.0000 
     10 O         123.1130  114.5330   33.1370 O.2       5 ALL1        0.0000 
     11 O         121.1460  116.2080   33.5540 O.2       3 ALP1        0.0000 
     12 O         122.4545  115.9230   32.4555 O.2       1 ALC1        0.0000 
     13 CA        125.2220  115.1505   34.6580 C.3       2 GLC5        0.0000 
     14 CA        124.2570  113.4410   35.2580 C.3       6 GLL5        0.0000 
     15 CA        126.1870  116.8600   34.0580 C.3       4 GLP5        0.0000 
     16 CA        124.9995  111.5660   35.1745 C.3       2 GLC5        0.0000 
     17 CA        124.9270  115.9150   35.5635 C.3       2 GLC5        0.0000 
     18 CA        123.6670  114.9700   37.0690 C.3       6 GLL5        0.0000 
     19 CA        125.6780  116.3440   36.5070 C.3       2 GLC5        0.0000 
     20 CA        124.0470  116.0400   37.9520 C.3       6 GLL5        0.0000 
     21 CA        127.3090  116.6480   35.0620 C.3       4 GLP5        0.0000 
     22 CA        126.6310  115.5595   31.8355 C.3       2 GLC5        0.0000 
     23 CA        126.3210  113.8440   30.8420 C.3       6 GLL5        0.0000 
     24 CA        126.9410  117.2750   32.8290 C.3       4 GLP5        0.0000 
     25 CA        125.6805  110.7338   33.5408 C.3       2 GLC5        0.0000 
     26 CA        126.1930  111.4280   31.7520 C.3       6 GLL5        0.0000 
     27 CA        125.3245  115.4070   33.0235 C.3       2 GLC5        0.0000 
     28 CA        124.9600  113.4210   31.8480 C.3       6 GLL5        0.0000 
     29 CA        124.5385  114.3885   38.6857 C.3       2 GLC5        0.0000 
     30 CA        125.2200  113.2720   39.8610 C.3       4 GLP5        0.0000 
     31 CA        123.9467  114.6025   39.5690 C.3       2 GLC5        0.0000 
     32 CA        123.2560  116.3210   39.1280 C.3       6 GLL5        0.0000 
     33 CA        122.8684  116.1420   41.6615 C.3       2 GLC5        0.0000 
     34 CA        121.2680  115.8770   40.6890 C.3       6 GLL5        0.0000 
     35 CA        123.7660  116.3790   43.3400 C.3       4 GLP5        0.0000 
     36 CA        123.6547  113.8007   38.9155 C.3       2 GLC5        0.0000 
     37 CA        121.7060  114.4660   38.5390 C.3       6 GLL5        0.0000 
     38 CA        128.5473  112.9300   31.4623 C.3       2 GLC5        0.0000 
     39 CA        130.4620  112.8360   31.9920 C.3       4 GLP5        0.0000 
     40 CA        127.9027  113.9155   29.9887 C.3       2 GLC5        0.0000 
     41 CA        126.9440  112.2040   31.0230 C.3       6 GLL5        0.0000 
     42 CA        129.1730  114.8070   29.0450 C.3       4 GLP5        0.0000 
@<TRIPOS>BOND
@<TRIPOS>SUBSTRUCTURE
     1 ALC1        4 GROUP        1 X    ALC  0     ROOT ALC X 1
     2 GLC5        1 GROUP        1 X    GLC  0     **** GLC X 6
     3 ALP1        6 GROUP        1 Y    ALP  0     ROOT ALP Y 8
     4 GLP5        3 GROUP        1 Y    GLP  0     **** GLP Y 13
     5 ALL1        5 GROUP        1 Z    ALL  0     ROOT ALL Z 15
     6 GLL5        2 GROUP        1 Z    GLL  0     **** GLL Z 20
@<TRIPOS>SET

