#    Name: 3ebf_332_1_ligand
#    Modification time : Tue Mar 25 01:22:08 2014

@<TRIPOS>MOLECULE
3ebf_332_1_ligand
   42    45     1     0     0
SMALL
NO_CHARGES


@<TRIPOS>ATOM
      1 C9        122.9540  112.0010   33.5780 C.3       1 332903      0.0000 
      2 O10       124.1720  111.4270   33.0110 O.3       1 332903      0.0000 
      3 C3        125.0450  112.1250   32.2290 C.2       1 332903      0.0000 
      4 C4        124.9600  113.4210   31.8480 C.2       1 332903      0.0000 
      5 C6        123.9640  114.4870   32.1300 C.2       1 332903      0.0000 
      6 N23       123.9190  115.5170   31.2880 N.pl3     1 332903      0.0000 
      7 N7        123.1130  114.5330   33.1370 N.pl3     1 332903      0.0000 
      8 C8        124.2570  113.4410   35.2580 C.3       1 332903      0.0000 
      9 C11       123.0500  113.4340   34.1760 C.3       1 332903      0.0000 
     10 O12       124.4600  114.7110   35.9040 O.3       1 332903      0.0000 
     11 C13       123.6670  114.9700   37.0690 C.ar      1 332903      0.0000 
     12 C18       124.0470  116.0400   37.9520 C.ar      1 332903      0.0000 
     13 C17       123.2560  116.3210   39.1280 C.ar      1 332903      0.0000 
     14 C16       122.0910  115.5450   39.4260 C.ar      1 332903      0.0000 
     15 C22       121.2680  115.8770   40.6890 C.3       1 332903      0.0000 
     16 C21       120.0230  114.9320   40.8860 C.3       1 332903      0.0000 
     17 N20       119.4780  114.4510   39.5760 N.4       1 332903      0.0000 
     18 C19       120.4660  113.6230   38.8310 C.3       1 332903      0.0000 
     19 C15       121.7060  114.4660   38.5390 C.ar      1 332903      0.0000 
     20 C14       122.4730  114.1930   37.4010 C.ar      1 332903      0.0000 
     21 S5        126.3210  113.8440   30.8420 S.3       1 332903      0.0000 
     22 C1        126.9440  112.2040   31.0230 C.2       1 332903      0.0000 
     23 C2        126.1930  111.4280   31.7520 C.2       1 332903      0.0000 
     24 H         122.5492  111.3385   34.3888 H         1 332903      0.0000 
     25 H         122.1373  112.0257   32.8083 H         1 332903      0.0000 
     26 H         123.2709  116.2437   31.5159 H         1 332903      0.0000 
     27 H         124.5373  115.4713   30.5034 H         1 332903      0.0000 
     28 H         122.4385  115.3029   33.2935 H         1 332903      0.0000 
     29 H         125.1498  113.1035   34.7010 H         1 332903      0.0000 
     30 H         124.0101  112.6375   35.9753 H         1 332903      0.0000 
     31 H         122.1284  113.5675   34.7917 H         1 332903      0.0000 
     32 H         124.8669  116.5970   37.7523 H         1 332903      0.0000 
     33 H         123.5348  117.0789   39.7464 H         1 332903      0.0000 
     34 H         120.9073  116.9063   40.6269 H         1 332903      0.0000 
     35 H         121.9057  115.7879   41.5715 H         1 332903      0.0000 
     36 H         119.2657  115.4951   41.4340 H         1 332903      0.0000 
     37 H         120.3431  114.0898   41.5018 H         1 332903      0.0000 
     38 H         120.0427  113.2851   37.8897 H         1 332903      0.0000 
     39 H         120.7599  112.7613   39.4230 H         1 332903      0.0000 
     40 H         122.2119  113.4295   36.7626 H         1 332903      0.0000 
     41 H         127.7698  112.1171   30.5448 H         1 332903      0.0000 
     42 H         126.3384  110.4869   31.9802 H         1 332903      0.0000 
@<TRIPOS>BOND
     1    2    1 1    
     2    9    1 1    
     3   24    1 1    
     4   25    1 1    
     5    3    2 1    
     6    4    3 2    
     7   23    3 1    
     8    5    4 1    
     9   21    4 1    
    10    6    5 2    
    11    7    5 1    
    12   26    6 1    
    13   27    6 1    
    14    9    7 1    
    15   28    7 1    
    16    9    8 1    
    17   10    8 1    
    18   29    8 1    
    19   30    8 1    
    20   31    9 1    
    21   11   10 1    
    22   12   11 ar   
    23   20   11 ar   
    24   13   12 ar   
    25   32   12 1    
    26   14   13 ar   
    27   33   13 1    
    28   15   14 1    
    29   19   14 ar   
    30   16   15 1    
    31   34   15 1    
    32   35   15 1    
    33   17   16 1    
    34   36   16 1    
    35   37   16 1    
    36   18   17 1    
    37   19   18 1    
    38   38   18 1    
    39   39   18 1    
    40   20   19 ar   
    41   40   20 1    
    42   22   21 1    
    43   23   22 2    
    44   41   22 1    
    45   42   23 1    
@<TRIPOS>SUBSTRUCTURE
     1 332903      1 GROUP   
@<TRIPOS>SET

