#    Name: 1e3g_R18_1_INTS_M
#    Modification time : Mon Mar 24 22:47:47 2014

@<TRIPOS>MOLECULE
1e3g_R18_1_INTS_M
   76     0     9     0     0
SMALL
NO_CHARGES


@<TRIPOS>ATOM
      1 CA         -1.5245   27.7070    5.1235 C.3       3 GLC5        0.0000 
      2 CA          0.4140   28.0700    4.1030 C.3       9 GLL5        0.0000 
      3 CA         -3.4630   27.3440    6.1440 C.3       6 GLP5        0.0000 
      4 CA          1.9925   28.1060    2.5395 C.3       3 GLC5        0.0000 
      5 CA          3.5710   28.1420    0.9760 C.3       6 GLP5        0.0000 
      6 CA          0.7460   27.1355    6.5865 C.3       3 GLC5        0.0000 
      7 CA          1.1950   26.9990    4.8320 C.3       9 GLL5        0.0000 
      8 CA          0.2970   27.2720    8.3410 C.3       6 GLP5        0.0000 
      9 CA          3.0345   27.9555    6.6640 C.3       3 GLC5        0.0000 
     10 CA          3.1740   28.4570    4.7940 C.3       9 GLL5        0.0000 
     11 CA          2.8950   27.4540    8.5340 C.3       6 GLP5        0.0000 
     12 CA          5.0250   28.6905    6.0410 C.3       3 GLC5        0.0000 
     13 CA          6.8760   28.9240    7.2880 C.3       6 GLP5        0.0000 
     14 CA          4.8090   27.3800    4.3880 C.3       3 GLC5        0.0000 
     15 CA          6.4440   26.3030    3.9820 C.3       6 GLP5        0.0000 
     16 CA          3.3725   28.2995    2.8850 C.3       3 GLC5        0.0000 
     17 CA          4.5195   31.0510    6.4265 C.3       3 GLC5        0.0000 
     18 CA          2.9730   30.9060    5.1160 C.3       9 GLL5        0.0000 
     19 CA          6.0660   31.1960    7.7370 C.3       6 GLP5        0.0000 
     20 CA          4.8435   31.6200    4.2165 C.3       3 GLC5        0.0000 
     21 CA          6.7140   32.3340    3.3170 C.3       6 GLP5        0.0000 
     22 CA         -2.3895   28.9635    5.1975 C.3       3 GLC5        0.0000 
     23 CA         -1.3160   30.5830    4.2510 C.3       9 GLL5        0.0000 
     24 CA         -3.9755   30.9820    3.8105 C.3       3 GLC5        0.0000 
     25 CA         -2.1020   31.6750    4.3100 C.3       9 GLL5        0.0000 
     26 CA         -5.8490   30.2890    3.3110 C.3       6 GLP5        0.0000 
     27 CA         -0.6095   37.0725    3.6980 C.3       3 GLC5        0.0000 
     28 CA         -0.8990   35.2990    4.3110 C.3       9 GLL5        0.0000 
     29 CA         -0.3200   38.8460    3.0850 C.3       6 GLP5        0.0000 
     30 CA         -0.5235   33.6800    7.6610 C.3       3 GLC5        0.0000 
     31 CA         -1.7250   33.2280    6.1890 C.3       9 GLL5        0.0000 
     32 CA          0.6780   34.1320    9.1330 C.3       6 GLP5        0.0000 
     33 CA         -1.9590   35.0640    6.6620 C.3       3 GLC5        0.0000 
     34 CA         -2.1930   36.9000    7.1350 C.3       6 GLP5        0.0000 
     35 CA         -2.0520   34.7780    0.6935 C.3       3 GLC5        0.0000 
     36 CA         -2.0340   34.0500    2.4120 C.3       9 GLL5        0.0000 
     37 CA         -2.0700   35.5060   -1.0250 C.3       6 GLP5        0.0000 
     38 CA         -2.1680   32.4005    1.4485 C.3       3 GLC5        0.0000 
     39 CA         -2.3020   30.7510    0.4850 C.3       6 GLP5        0.0000 
     40 CA         -0.2400   34.8360    1.5800 C.3       3 GLC5        0.0000 
     41 CA          1.5540   35.6220    0.7480 C.3       6 GLP5        0.0000 
     42 N           3.9555   24.9985    3.6925 N.am      2 SEC2        0.0000 
     43 N           3.3750   26.2120    4.1620 N.am      8 SEL2        0.0000 
     44 N           4.5360   23.7850    3.2230 N.am      5 SEP2        0.0000 
     45 N          -3.3105   35.4570    5.6155 N.am      2 SEC2        0.0000 
     46 N          -3.2570   34.7970    4.3450 N.am      8 SEL2        0.0000 
     47 N          -3.3640   36.1170    6.8860 N.am      5 SEP2        0.0000 
     48 O          -4.2270   33.8945    3.9075 O.2       1 ALC1        0.0000 
     49 O          -3.2570   34.7970    4.3450 O.2       7 ALL1        0.0000 
     50 O          -5.1970   32.9920    3.4700 O.2       4 ALP1        0.0000 
     51 CA          0.1432   26.3867    2.9632 C.3       3 GLC5        0.0000 
     52 CA         -0.5180   25.2390    1.4590 C.3       6 GLP5        0.0000 
     53 CA          0.6525   28.9080    6.1658 C.3       3 GLC5        0.0000 
     54 CA          0.6420   29.0410    8.0420 C.3       6 GLP5        0.0000 
     55 CA          1.6560   29.6352    6.4950 C.3       3 GLC5        0.0000 
     56 CA          2.3670   29.5530    4.7800 C.3       9 GLL5        0.0000 
     57 CA          3.4195   29.8068    3.0120 C.3       3 GLC5        0.0000 
     58 CA          4.1690   29.3840    1.0760 C.3       6 GLP5        0.0000 
     59 CA          3.8875   32.6945    5.7462 C.3       3 GLC5        0.0000 
     60 CA          5.1850   33.9210    6.7060 C.3       6 GLP5        0.0000 
     61 CA          1.8248   32.3540    6.7501 C.3       3 GLC5        0.0000 
     62 CA          1.9880   32.9930    8.6580 C.3       6 GLP5        0.0000 
     63 CA          0.5353   30.1603    6.3740 C.3       3 GLC5        0.0000 
     64 CA          0.7330   31.9620    4.8980 C.3       9 GLL5        0.0000 
     65 CA          0.1393   29.5850    2.3544 C.3       3 GLC5        0.0000 
     66 CA          0.1240   30.5970    4.5140 C.3       9 GLL5        0.0000 
     67 CA         -0.1150   29.4840    0.3070 C.3       6 GLP5        0.0000 
     68 CA         -2.0055   30.9400    2.3828 C.3       3 GLC5        0.0000 
     69 CA          0.6490   35.2630    2.5948 C.3       3 GLC5        0.0000 
     70 CA         -1.6607   35.7465    5.6529 C.3       3 GLC5        0.0000 
     71 CA          0.3870   34.5090    4.5720 C.3       9 GLL5        0.0000 
     72 CA         -2.9712   35.9340    2.5145 C.3       3 GLC5        0.0000 
     73 CA         -2.0010   34.2820    3.9000 C.3       9 GLL5        0.0000 
     74 CA         -3.9250   37.7020    1.8730 C.3       6 GLP5        0.0000 
     75 CA         -3.3209   31.9768    6.1600 C.3       3 GLC5        0.0000 
     76 CA         -4.8700   31.1610    6.9820 C.3       6 GLP5        0.0000 
@<TRIPOS>BOND
@<TRIPOS>SUBSTRUCTURE
     1 ALC1       48 GROUP        1 X    ALC  0     ROOT ALC X 1
     2 SEC2       42 GROUP        1 X    SEC  0     **** SEC X 2
     3 GLC5        1 GROUP        1 X    GLC  0     **** GLC X 6
     4 ALP1       50 GROUP        1 Y    ALP  0     ROOT ALP Y 8
     5 SEP2       44 GROUP        1 Y    SEP  0     **** SEP Y 9
     6 GLP5        3 GROUP        1 Y    GLP  0     **** GLP Y 13
     7 ALL1       49 GROUP        1 Z    ALL  0     ROOT ALL Z 15
     8 SEL2       43 GROUP        1 Z    SEL  0     **** SEL Z 16
     9 GLL5        2 GROUP        1 Z    GLL  0     **** GLL Z 20
@<TRIPOS>SET

