#    Name: 1e3g_R18_1_ligand
#    Modification time : Mon Mar 24 22:47:47 2014

@<TRIPOS>MOLECULE
1e3g_R18_1_ligand
   45    48     1     0     0
SMALL
NO_CHARGES


@<TRIPOS>ATOM
      1 C1          0.4140   28.0700    4.1030 C.3       1 R181000     0.0000 
      2 C2          1.1950   26.9990    4.8320 C.3       1 R181000     0.0000 
      3 C3          2.6610   27.1400    4.5320 C.2       1 R181000     0.0000 
      4 C4          3.1740   28.4570    4.7940 C.2       1 R181000     0.0000 
      5 C5          2.3670   29.5530    4.7800 C.2       1 R181000     0.0000 
      6 C6          2.9730   30.9060    5.1160 C.3       1 R181000     0.0000 
      7 C7          2.2070   32.0300    4.4570 C.3       1 R181000     0.0000 
      8 C8          0.7330   31.9620    4.8980 C.3       1 R181000     0.0000 
      9 C9          0.1240   30.5970    4.5140 C.2       1 R181000     0.0000 
     10 C10         0.9120   29.4800    4.4760 C.2       1 R181000     0.0000 
     11 C11        -1.3160   30.5830    4.2510 C.2       1 R181000     0.0000 
     12 C12        -2.1020   31.6750    4.3100 C.2       1 R181000     0.0000 
     13 C13        -1.5350   33.0390    4.6640 C.3       1 R181000     0.0000 
     14 C14        -0.0560   33.0660    4.2610 C.3       1 R181000     0.0000 
     15 C15         0.3870   34.5090    4.5720 C.3       1 R181000     0.0000 
     16 C16        -0.8990   35.2990    4.3110 C.3       1 R181000     0.0000 
     17 C17        -2.0010   34.2820    3.9000 C.3       1 R181000     0.0000 
     18 C18        -1.7250   33.2280    6.1890 C.3       1 R181000     0.0000 
     19 C27        -2.0340   34.0500    2.4120 C.3       1 R181000     0.0000 
     20 O83         3.3750   26.2120    4.1620 O.2       1 R181000     0.0000 
     21 O97        -3.2570   34.7970    4.3450 O.3       1 R181000     0.0000 
     22 H          -0.6441   27.9945    4.3593 H         1 R181000     0.0000 
     23 H           0.5208   27.9360    3.0253 H         1 R181000     0.0000 
     24 H           0.8471   26.0178    4.5111 H         1 R181000     0.0000 
     25 H           1.0282   27.0980    5.9040 H         1 R181000     0.0000 
     26 H           4.1883   28.5398    4.9951 H         1 R181000     0.0000 
     27 H           4.0130   30.9267    4.7787 H         1 R181000     0.0000 
     28 H           2.9621   31.0442    6.2007 H         1 R181000     0.0000 
     29 H           2.2552   31.9299    3.3807 H         1 R181000     0.0000 
     30 H           2.6184   32.9846    4.7574 H         1 R181000     0.0000 
     31 H           0.6922   32.0592    5.9703 H         1 R181000     0.0000 
     32 H          -1.7161   29.6407    4.0051 H         1 R181000     0.0000 
     33 H          -3.1120   31.6622    4.1249 H         1 R181000     0.0000 
     34 H          -0.0434   32.9624    3.1657 H         1 R181000     0.0000 
     35 H           1.1339   34.8031    3.8930 H         1 R181000     0.0000 
     36 H           0.6564   34.5849    5.5854 H         1 R181000     0.0000 
     37 H          -0.7454   35.9900    3.5059 H         1 R181000     0.0000 
     38 H          -1.2061   35.8019    5.2066 H         1 R181000     0.0000 
     39 H          -1.2503   32.5208    6.7129 H         1 R181000     0.0000 
     40 H          -1.3721   34.1102    6.5007 H         1 R181000     0.0000 
     41 H          -2.6893   33.1890    6.4508 H         1 R181000     0.0000 
     42 H          -1.1322   33.8082    2.0537 H         1 R181000     0.0000 
     43 H          -2.6562   33.3069    2.1657 H         1 R181000     0.0000 
     44 H          -2.3380   34.8633    1.9160 H         1 R181000     0.0000 
     45 H          -3.9366   34.1411    4.0164 H         1 R181000     0.0000 
@<TRIPOS>BOND
     1    2    1 1    
     2   10    1 1    
     3   22    1 1    
     4   23    1 1    
     5    3    2 1    
     6   24    2 1    
     7   25    2 1    
     8    4    3 1    
     9   20    3 2    
    10    5    4 2    
    11   26    4 1    
    12    6    5 1    
    13   10    5 1    
    14    7    6 1    
    15   27    6 1    
    16   28    6 1    
    17    8    7 1    
    18   29    7 1    
    19   30    7 1    
    20    9    8 1    
    21   14    8 1    
    22   31    8 1    
    23   10    9 2    
    24   11    9 1    
    25   12   11 2    
    26   32   11 1    
    27   13   12 1    
    28   33   12 1    
    29   14   13 1    
    30   17   13 1    
    31   18   13 1    
    32   15   14 1    
    33   34   14 1    
    34   16   15 1    
    35   35   15 1    
    36   36   15 1    
    37   17   16 1    
    38   37   16 1    
    39   38   16 1    
    40   19   17 1    
    41   21   17 1    
    42   39   18 1    
    43   40   18 1    
    44   41   18 1    
    45   42   19 1    
    46   43   19 1    
    47   44   19 1    
    48   45   21 1    
@<TRIPOS>SUBSTRUCTURE
     1 R181000     1 GROUP   
@<TRIPOS>SET

