#    Name: 3us7_GA3_1_INTS_M
#    Modification time : Mon Mar 24 23:22:08 2014

@<TRIPOS>MOLECULE
3us7_GA3_1_INTS_M
   59     0     6     0     0
SMALL
NO_CHARGES


@<TRIPOS>ATOM
      1 N         -17.0260   -9.4500   -0.5950 N.am      1 SEC2        0.0000 
      2 N         -17.8130   -9.2540    0.9160 N.am      5 SEL2        0.0000 
      3 N         -16.2390   -9.6460   -2.1060 N.am      3 SEP2        0.0000 
      4 N         -17.4435   -9.3415   -1.6025 N.am      1 SEC2        0.0000 
      5 N         -18.6480   -9.0370   -1.0990 N.am      5 SEL2        0.0000 
      6 CA        -21.6270   -8.8920   -2.1360 C.3       2 GLC5        0.0000 
      7 CA        -21.2500   -8.4280   -0.0070 C.3       6 GLL5        0.0000 
      8 CA        -22.0040   -9.3560   -4.2650 C.3       4 GLP5        0.0000 
      9 CA        -18.8315  -11.4125   -1.9885 C.3       2 GLC5        0.0000 
     10 CA        -20.2270  -11.7140   -0.3850 C.3       6 GLL5        0.0000 
     11 CA        -17.4360  -11.1110   -3.5920 C.3       4 GLP5        0.0000 
     12 CA        -22.2640  -15.7805   -0.3090 C.3       2 GLC5        0.0000 
     13 CA        -20.8140  -14.1150   -0.6020 C.3       6 GLL5        0.0000 
     14 CA        -23.7140  -17.4460   -0.0160 C.3       4 GLP5        0.0000 
     15 CA        -21.1780  -15.4695   -2.3120 C.3       2 GLC5        0.0000 
     16 CA        -21.5420  -16.8240   -4.0220 C.3       4 GLP5        0.0000 
     17 CA        -23.5790  -14.4525    2.2375 C.3       2 GLC5        0.0000 
     18 CA        -22.6650  -12.7620    1.7530 C.3       6 GLL5        0.0000 
     19 CA        -24.4930  -16.1430    2.7220 C.3       4 GLP5        0.0000 
     20 CA        -24.1040   -5.9970    1.2295 C.3       2 GLC5        0.0000 
     21 CA        -22.5860   -6.3540   -0.3490 C.3       6 GLL5        0.0000 
     22 CA        -25.6220   -5.6400    2.8080 C.3       4 GLP5        0.0000 
     23 CA        -21.1405   -5.3340   -1.7230 C.3       2 GLC5        0.0000 
     24 CA        -19.6950   -4.3140   -3.0970 C.3       4 GLP5        0.0000 
     25 CA        -22.6775   -7.2835   -2.3680 C.3       2 GLC5        0.0000 
     26 CA        -22.7690   -8.2130   -4.3870 C.3       4 GLP5        0.0000 
     27 N         -22.7430   -4.9700   -2.5270 N.am      1 SEC2        0.0000 
     28 N         -22.1220   -6.1010   -1.6600 N.am      5 SEL2        0.0000 
     29 N         -23.3640   -3.8390   -3.3940 N.am      3 SEP2        0.0000 
     30 CA        -18.3230   -5.2835    0.2705 C.3       2 GLC5        0.0000 
     31 CA        -20.2230   -6.0990    0.5870 C.3       6 GLL5        0.0000 
     32 CA        -16.4230   -4.4680   -0.0460 C.3       4 GLP5        0.0000 
     33 CA        -19.9590   -5.2065   -1.2550 C.3       2 GLC5        0.0000 
     34 N         -21.6925   -7.6505    3.9370 N.am      1 SEC2        0.0000 
     35 N         -22.2140   -6.6550    2.8830 N.am      5 SEL2        0.0000 
     36 N         -21.1710   -8.6460    4.9910 N.am      3 SEP2        0.0000 
     37 CA        -22.8313  -13.3050   -0.7727 C.3       2 GLC5        0.0000 
     38 CA        -20.7690  -13.0170    0.1170 C.3       6 GLL5        0.0000 
     39 CA        -24.8710  -13.0440   -1.3030 C.3       4 GLP5        0.0000 
     40 CA        -18.8300  -13.8601   -0.4890 C.3       2 GLC5        0.0000 
     41 CA        -17.0040  -14.4800   -0.6100 C.3       4 GLP5        0.0000 
     42 CA        -21.1965  -12.5436   -2.2250 C.3       2 GLC5        0.0000 
     43 CA        -21.7370  -11.8470   -4.0820 C.3       4 GLP5        0.0000 
     44 CA        -24.8777  -12.4012    1.9180 C.3       2 GLC5        0.0000 
     45 CA        -23.1380  -11.3350    1.4790 C.3       6 GLL5        0.0000 
     46 CA        -26.8540  -12.7540    2.2200 C.3       4 GLP5        0.0000 
     47 CA        -23.6352  -12.1978    3.3820 C.3       2 GLC5        0.0000 
     48 CA        -24.3690  -12.3470    5.1480 C.3       4 GLP5        0.0000 
     49 CA        -23.7336  -12.1754   -0.1317 C.3       2 GLC5        0.0000 
     50 CA        -25.6425   -7.8767   -0.9840 C.3       2 GLC5        0.0000 
     51 CA        -23.7030   -8.5730   -0.4210 C.3       6 GLL5        0.0000 
     52 CA        -27.5390   -7.8420   -1.5150 C.3       4 GLP5        0.0000 
     53 CA        -24.9010   -7.4153    1.0240 C.3       2 GLC5        0.0000 
     54 CA        -23.7890   -7.2500   -0.4850 C.3       6 GLL5        0.0000 
     55 CA        -26.0560   -6.9190    2.5010 C.3       4 GLP5        0.0000 
     56 CA        -23.9515   -8.1158   -2.3865 C.3       2 GLC5        0.0000 
     57 CA        -24.1570   -8.3200   -4.3200 C.3       4 GLP5        0.0000 
     58 CA        -24.6067   -5.2205   -0.6210 C.3       2 GLC5        0.0000 
     59 CA        -26.0260   -3.6390   -0.8250 C.3       4 GLP5        0.0000 
@<TRIPOS>BOND
@<TRIPOS>SUBSTRUCTURE
     1 SEC2        1 GROUP        1 X    SEC  0     ROOT SEC X 2
     2 GLC5        6 GROUP        1 X    GLC  0     **** GLC X 6
     3 SEP2        3 GROUP        1 Y    SEP  0     ROOT SEP Y 9
     4 GLP5        8 GROUP        1 Y    GLP  0     **** GLP Y 13
     5 SEL2        2 GROUP        1 Z    SEL  0     ROOT SEL Z 16
     6 GLL5        7 GROUP        1 Z    GLL  0     **** GLL Z 20
@<TRIPOS>SET

