#    Name: 3us7_GA3_1_ligand
#    Modification time : Mon Mar 24 23:22:08 2014

@<TRIPOS>MOLECULE
3us7_GA3_1_ligand
   44    48     1     0     0
SMALL
NO_CHARGES


@<TRIPOS>ATOM
      1 O71       -17.8130   -9.2540    0.9160 O.co2     1 GA3201      0.0000 
      2 C7        -18.7750   -9.1580    0.1310 C.2       1 GA3201      0.0000 
      3 O72       -18.6480   -9.0370   -1.0990 O.co2     1 GA3201      0.0000 
      4 C6        -20.1850   -9.3080    0.6710 C.3       1 GA3201      0.0000 
      5 C5        -21.2500   -8.4280   -0.0070 C.3       1 GA3201      0.0000 
      6 C8        -20.7690  -10.7410    0.6740 C.3       1 GA3201      0.0000 
      7 C15       -20.2270  -11.7140   -0.3850 C.3       1 GA3201      0.0000 
      8 C16       -20.7690  -13.0170    0.1170 C.2       1 GA3201      0.0000 
      9 C17       -20.8140  -14.1150   -0.6020 C.2       1 GA3201      0.0000 
     10 C13       -21.1400  -12.8540    1.5800 C.3       1 GA3201      0.0000 
     11 C14       -20.4390  -11.5330    1.9400 C.3       1 GA3201      0.0000 
     12 O13       -20.7080  -13.9780    2.3630 O.3       1 GA3201      0.0000 
     13 C12       -22.6650  -12.7620    1.7530 C.3       1 GA3201      0.0000 
     14 C11       -23.1380  -11.3350    1.4790 C.3       1 GA3201      0.0000 
     15 C9        -22.2910  -10.5650    0.4630 C.3       1 GA3201      0.0000 
     16 C10       -22.5750   -9.0770    0.4200 C.3       1 GA3201      0.0000 
     17 O92       -22.7060   -8.4200    1.7500 O.3       1 GA3201      0.0000 
     18 C1        -23.7030   -8.5730   -0.4210 C.2       1 GA3201      0.0000 
     19 C2        -23.7890   -7.2500   -0.4850 C.2       1 GA3201      0.0000 
     20 C3        -22.5860   -6.3540   -0.3490 C.3       1 GA3201      0.0000 
     21 O31       -22.1220   -6.1010   -1.6600 O.3       1 GA3201      0.0000 
     22 C4        -21.4660   -6.9850    0.5080 C.3       1 GA3201      0.0000 
     23 C18       -20.2230   -6.0990    0.5870 C.3       1 GA3201      0.0000 
     24 C19       -22.0230   -7.2560    1.8830 C.2       1 GA3201      0.0000 
     25 O91       -22.2140   -6.6550    2.8830 O.2       1 GA3201      0.0000 
     26 H         -20.1894   -8.9902    1.7507 H         1 GA3201      0.0000 
     27 H         -21.2035   -8.4619   -1.0388 H         1 GA3201      0.0000 
     28 H         -19.1749  -11.7091   -0.3548 H         1 GA3201      0.0000 
     29 H         -20.6403  -11.4723   -1.3224 H         1 GA3201      0.0000 
     30 H         -20.9043  -11.1010    2.7642 H         1 GA3201      0.0000 
     31 H         -19.4123  -11.6868    2.0087 H         1 GA3201      0.0000 
     32 H         -22.9245  -13.0404    2.7683 H         1 GA3201      0.0000 
     33 H         -23.1430  -13.4416    1.0562 H         1 GA3201      0.0000 
     34 H         -23.1496  -10.7733    2.4308 H         1 GA3201      0.0000 
     35 H         -24.1826  -11.3675    1.1193 H         1 GA3201      0.0000 
     36 H         -22.5080  -10.9672   -0.5463 H         1 GA3201      0.0000 
     37 H         -24.2873   -9.2353   -0.8567 H         1 GA3201      0.0000 
     38 H         -24.6848   -6.7420   -0.6323 H         1 GA3201      0.0000 
     39 H         -22.8988   -5.4341    0.1295 H         1 GA3201      0.0000 
     40 H         -19.5334   -6.4807    1.2024 H         1 GA3201      0.0000 
     41 H         -19.7888   -5.9878   -0.3069 H         1 GA3201      0.0000 
     42 H         -20.4408   -5.1827    0.9231 H         1 GA3201      0.0000 
     43 H         -19.7113  -13.9817    2.2823 H         1 GA3201      0.0000 
     44 H         -21.5446   -5.5236   -1.0826 H         1 GA3201      0.0000 
@<TRIPOS>BOND
     1    2    1 ar   
     2    3    2 ar   
     3    4    2 1    
     4    5    4 1    
     5    6    4 1    
     6   26    4 1    
     7   16    5 1    
     8   22    5 1    
     9   27    5 1    
    10    7    6 1    
    11   11    6 1    
    12   15    6 1    
    13    8    7 1    
    14   28    7 1    
    15   29    7 1    
    16    9    8 2    
    17   10    8 1    
    18   11   10 1    
    19   12   10 1    
    20   13   10 1    
    21   30   11 1    
    22   31   11 1    
    23   43   12 1    
    24   14   13 1    
    25   32   13 1    
    26   33   13 1    
    27   15   14 1    
    28   34   14 1    
    29   35   14 1    
    30   16   15 1    
    31   36   15 1    
    32   17   16 1    
    33   18   16 1    
    34   24   17 1    
    35   19   18 2    
    36   37   18 1    
    37   20   19 1    
    38   38   19 1    
    39   21   20 1    
    40   22   20 1    
    41   39   20 1    
    42   44   21 1    
    43   23   22 1    
    44   24   22 1    
    45   40   23 1    
    46   41   23 1    
    47   42   23 1    
    48   25   24 2    
@<TRIPOS>SUBSTRUCTURE
     1 GA3201      1 GROUP   
@<TRIPOS>SET

