#    Name: 3h2l_YAK_2_INTS_M
#    Modification time : Tue Mar 25 13:30:27 2014

@<TRIPOS>MOLECULE
3h2l_YAK_2_INTS_M
   61     0     9     0     0
SMALL
NO_CHARGES


@<TRIPOS>ATOM
      1 CA         46.8360   -7.9230   57.3120 C.3       3 GLC5        0.0000 
      2 CA         47.6240   -8.7500   56.3070 C.3       9 GLL5        0.0000 
      3 CA         46.0480   -7.0960   58.3170 C.3       6 GLP5        0.0000 
      4 CA         50.1530  -10.7675   52.5905 C.3       3 GLC5        0.0000 
      5 CA         50.3550   -9.4690   54.0580 C.3       9 GLL5        0.0000 
      6 CA         49.9510  -12.0660   51.1230 C.3       6 GLP5        0.0000 
      7 CA         53.0195  -11.3275   56.0585 C.3       3 GLC5        0.0000 
      8 CA         52.6520  -10.3530   54.3980 C.3       9 GLL5        0.0000 
      9 CA         53.3870  -12.3020   57.7190 C.3       6 GLP5        0.0000 
     10 CA         53.4015   -7.0185   56.2385 C.3       3 GLC5        0.0000 
     11 CA         53.9360   -8.2260   54.7220 C.3       9 GLL5        0.0000 
     12 CA         52.8670   -5.8110   57.7550 C.3       6 GLP5        0.0000 
     13 CA         54.9255  -10.0690   56.5930 C.3       3 GLC5        0.0000 
     14 CA         55.3970   -8.6090   55.0140 C.3       9 GLL5        0.0000 
     15 CA         54.4540  -11.5290   58.1720 C.3       6 GLP5        0.0000 
     16 CA         52.4175   -6.0880   55.0660 C.3       3 GLC5        0.0000 
     17 CA         53.9950   -6.7590   54.2530 C.3       9 GLL5        0.0000 
     18 CA         50.8400   -5.4170   55.8790 C.3       6 GLP5        0.0000 
     19 CA         52.4695   -5.7940   52.9560 C.3       3 GLC5        0.0000 
     20 CA         50.9440   -4.8290   51.6590 C.3       6 GLP5        0.0000 
     21 CA         54.9855   -4.0660   54.3695 C.3       3 GLC5        0.0000 
     22 CA         55.2850   -6.2120   54.9190 C.3       9 GLL5        0.0000 
     23 CA         54.6860   -1.9200   53.8200 C.3       6 GLP5        0.0000 
     24 N          54.0725   -4.2290   52.0745 N.am      2 SEC2        0.0000 
     25 N          54.4740   -5.4410   52.2270 N.am      8 SEL2        0.0000 
     26 N          53.6710   -3.0170   51.9220 N.am      5 SEP2        0.0000 
     27 CA         52.2375   -6.1995   51.7810 C.3       3 GLC5        0.0000 
     28 CA         53.5310   -7.5700   51.9030 C.3       9 GLL5        0.0000 
     29 CA         51.0540  -10.3005   48.7620 C.3       3 GLC5        0.0000 
     30 CA         52.7550   -9.6150   47.6810 C.3       9 GLL5        0.0000 
     31 CA         49.3530  -10.9860   49.8430 C.3       6 GLP5        0.0000 
     32 CA         55.1180   -6.0890   45.5070 C.3       3 GLC5        0.0000 
     33 CA         54.0340   -7.6670   46.1230 C.3       9 GLL5        0.0000 
     34 CA         56.2020   -4.5110   44.8910 C.3       6 GLP5        0.0000 
     35 CA         51.4435  -11.2750   46.1125 C.3       3 GLC5        0.0000 
     36 CA         52.8120   -9.7620   46.2980 C.3       9 GLL5        0.0000 
     37 CA         50.0750  -12.7880   45.9270 C.3       6 GLP5        0.0000 
     38 O          53.3270  -10.3595   43.6510 O.2       1 ALC1        0.0000 
     39 O          53.4920   -9.0280   44.1140 O.2       7 ALL1        0.0000 
     40 O          53.1620  -11.6910   43.1880 O.2       4 ALP1        0.0000 
     41 N          53.6935   -8.3015   40.3110 N.am      2 SEC2        0.0000 
     42 N          53.3360   -8.2350   41.7210 N.am      8 SEL2        0.0000 
     43 N          54.0510   -8.3680   38.9010 N.am      5 SEP2        0.0000 
     44 N          52.1830   -9.3755   41.7735 N.am      2 SEC2        0.0000 
     45 N          51.0300  -10.5160   41.8260 N.am      5 SEP2        0.0000 
     46 CA         55.9340   -6.2145   43.8270 C.3       3 GLC5        0.0000 
     47 CA         55.6660   -7.9180   42.7630 C.3       9 GLL5        0.0000 
     48 CA         48.2553   -8.3340   57.8230 C.3       3 GLC5        0.0000 
     49 CA         48.8290   -9.1470   55.8950 C.3       9 GLL5        0.0000 
     50 CA         47.2030   -7.2830   59.2990 C.3       6 GLP5        0.0000 
     51 CA         47.6481  -10.4394   56.7650 C.3       3 GLC5        0.0000 
     52 CA         49.7860   -9.6230   56.7990 C.3       9 GLL5        0.0000 
     53 CA         46.2900  -11.5930   57.0800 C.3       6 GLP5        0.0000 
     54 CA         51.5812   -8.4900   57.5567 C.3       3 GLC5        0.0000 
     55 CA         52.7480   -7.1580   58.5550 C.3       6 GLP5        0.0000 
     56 CA         47.1674   -9.6176   54.4840 C.3       3 GLC5        0.0000 
     57 CA         45.6670  -10.2290   53.6510 C.3       6 GLP5        0.0000 
     58 CA         50.2510   -7.3521   55.2575 C.3       3 GLC5        0.0000 
     59 CA         54.2410   -6.2967   56.5295 C.3       3 GLC5        0.0000 
     60 CA         50.5932   -9.4143   46.9507 C.3       3 GLC5        0.0000 
     61 CA         48.4030   -9.1400   46.9120 C.3       6 GLP5        0.0000 
@<TRIPOS>BOND
@<TRIPOS>SUBSTRUCTURE
     1 ALC1       38 GROUP        1 X    ALC  0     ROOT ALC X 1
     2 SEC2       24 GROUP        1 X    SEC  0     **** SEC X 2
     3 GLC5        1 GROUP        1 X    GLC  0     **** GLC X 6
     4 ALP1       40 GROUP        1 Y    ALP  0     ROOT ALP Y 8
     5 SEP2       26 GROUP        1 Y    SEP  0     **** SEP Y 9
     6 GLP5        3 GROUP        1 Y    GLP  0     **** GLP Y 13
     7 ALL1       39 GROUP        1 Z    ALL  0     ROOT ALL Z 15
     8 SEL2       25 GROUP        1 Z    SEL  0     **** SEL Z 16
     9 GLL5        2 GROUP        1 Z    GLL  0     **** GLL Z 20
@<TRIPOS>SET

