#    Name: 3h2l_YAK_2_ligand
#    Modification time : Tue Mar 25 13:30:27 2014

@<TRIPOS>MOLECULE
3h2l_YAK_2_ligand
   58    62     1     0     0
SMALL
NO_CHARGES


@<TRIPOS>ATOM
      1 F34        47.6240   -8.7500   56.3070 F         1 YAK601      0.0000 
      2 C11        48.8290   -9.1470   55.8950 C.ar      1 YAK601      0.0000 
      3 C5         49.7860   -9.6230   56.7990 C.ar      1 YAK601      0.0000 
      4 C6         49.1090   -9.0640   54.5330 C.ar      1 YAK601      0.0000 
      5 C2         50.3550   -9.4690   54.0580 C.ar      1 YAK601      0.0000 
      6 C8         51.3120   -9.9510   54.9470 C.ar      1 YAK601      0.0000 
      7 C1         51.0430  -10.0210   56.3180 C.ar      1 YAK601      0.0000 
      8 C23        52.6520  -10.3530   54.3980 C.3       1 YAK601      0.0000 
      9 N26        53.2230   -9.1400   53.8140 N.am      1 YAK601      0.0000 
     10 C21        53.9360   -8.2260   54.7220 C.3       1 YAK601      0.0000 
     11 C19        55.3970   -8.6090   55.0140 C.3       1 YAK601      0.0000 
     12 C17        55.9450   -7.3530   55.6890 C.3       1 YAK601      0.0000 
     13 C20        53.9950   -6.7590   54.2530 C.3       1 YAK601      0.0000 
     14 C18        55.2850   -6.2120   54.9190 C.3       1 YAK601      0.0000 
     15 C14        53.9770   -6.6050   52.7380 C.2       1 YAK601      0.0000 
     16 O33        54.4740   -5.4410   52.2270 O.co2     1 YAK601      0.0000 
     17 C16        53.0100   -8.8710   52.4590 C.2       1 YAK601      0.0000 
     18 O28        52.4250   -9.6660   51.7160 O.2       1 YAK601      0.0000 
     19 C13        53.5310   -7.5700   51.9030 C.2       1 YAK601      0.0000 
     20 C15        53.7090   -7.5210   50.4320 C.2       1 YAK601      0.0000 
     21 N24        53.1860   -8.4330   49.6930 N.2       1 YAK601      0.0000 
     22 C9         53.3200   -8.4890   48.3020 C.ar      1 YAK601      0.0000 
     23 C3         52.7550   -9.6150   47.6810 C.ar      1 YAK601      0.0000 
     24 N25        54.5510   -6.4930   49.9340 N.pl3     1 YAK601      0.0000 
     25 S35        54.6450   -6.1050   48.2930 S.o2      1 YAK601      0.0000 
     26 O29        56.0430   -5.9510   47.9250 O.2       1 YAK601      0.0000 
     27 O30        53.7030   -5.0120   48.0410 O.2       1 YAK601      0.0000 
     28 C12        53.9600   -7.5320   47.5150 C.ar      1 YAK601      0.0000 
     29 C7         54.0340   -7.6670   46.1230 C.ar      1 YAK601      0.0000 
     30 C10        53.4480   -8.7940   45.5260 C.ar      1 YAK601      0.0000 
     31 C4         52.8120   -9.7620   46.2980 C.ar      1 YAK601      0.0000 
     32 N27        53.4920   -9.0280   44.1140 N.pl3     1 YAK601      0.0000 
     33 S36        53.9080   -7.8090   42.9810 S.o2      1 YAK601      0.0000 
     34 O31        53.3360   -8.2350   41.7210 O.2       1 YAK601      0.0000 
     35 O32        53.6250   -6.4810   43.4870 O.2       1 YAK601      0.0000 
     36 C22        55.6660   -7.9180   42.7630 C.3       1 YAK601      0.0000 
     37 H          49.5743   -9.6804   57.7938 H         1 YAK601      0.0000 
     38 H          48.4016   -8.7065   53.8825 H         1 YAK601      0.0000 
     39 H          50.5661   -9.4119   53.0552 H         1 YAK601      0.0000 
     40 H          51.7560  -10.3596   56.9670 H         1 YAK601      0.0000 
     41 H          52.5152  -11.1148   53.6470 H         1 YAK601      0.0000 
     42 H          53.2699  -10.7218   55.2013 H         1 YAK601      0.0000 
     43 H          53.4323   -8.1989   55.7134 H         1 YAK601      0.0000 
     44 H          55.9055   -8.7826   54.1061 H         1 YAK601      0.0000 
     45 H          55.4222   -9.4212   55.6868 H         1 YAK601      0.0000 
     46 H          56.9969   -7.3090   55.5660 H         1 YAK601      0.0000 
     47 H          55.6382   -7.3274   56.7033 H         1 YAK601      0.0000 
     48 H          53.1607   -6.2423   54.7025 H         1 YAK601      0.0000 
     49 H          55.9490   -5.8558   54.1518 H         1 YAK601      0.0000 
     50 H          55.0187   -5.4196   55.5955 H         1 YAK601      0.0000 
     51 H          52.2966  -10.3337   48.2577 H         1 YAK601      0.0000 
     52 H          55.1533   -5.9143   50.4873 H         1 YAK601      0.0000 
     53 H          54.5007   -6.9663   45.5573 H         1 YAK601      0.0000 
     54 H          52.3867  -10.5809   45.8492 H         1 YAK601      0.0000 
     55 H          53.2925   -9.8930   43.6592 H         1 YAK601      0.0000 
     56 H          56.1564   -7.7743   43.6225 H         1 YAK601      0.0000 
     57 H          55.9422   -8.8136   42.4141 H         1 YAK601      0.0000 
     58 H          56.0030   -7.2346   42.1155 H         1 YAK601      0.0000 
@<TRIPOS>BOND
     1    2    1 1    
     2    3    2 ar   
     3    4    2 ar   
     4    7    3 ar   
     5   37    3 1    
     6    5    4 ar   
     7   38    4 1    
     8    6    5 ar   
     9   39    5 1    
    10    7    6 ar   
    11    8    6 1    
    12   40    7 1    
    13    9    8 1    
    14   41    8 1    
    15   42    8 1    
    16   10    9 1    
    17   17    9 am   
    18   11   10 1    
    19   13   10 1    
    20   43   10 1    
    21   12   11 1    
    22   44   11 1    
    23   45   11 1    
    24   14   12 1    
    25   46   12 1    
    26   47   12 1    
    27   14   13 1    
    28   15   13 1    
    29   48   13 1    
    30   49   14 1    
    31   50   14 1    
    32   16   15 ar   
    33   19   15 2    
    34   18   17 2    
    35   19   17 1    
    36   20   19 1    
    37   21   20 2    
    38   24   20 1    
    39   22   21 1    
    40   23   22 ar   
    41   28   22 ar   
    42   31   23 ar   
    43   51   23 1    
    44   25   24 1    
    45   52   24 1    
    46   26   25 2    
    47   27   25 2    
    48   28   25 1    
    49   29   28 ar   
    50   30   29 ar   
    51   53   29 1    
    52   31   30 ar   
    53   32   30 1    
    54   54   31 1    
    55   33   32 1    
    56   55   32 1    
    57   34   33 2    
    58   35   33 2    
    59   36   33 1    
    60   56   36 1    
    61   57   36 1    
    62   58   36 1    
@<TRIPOS>SUBSTRUCTURE
     1 YAK601      1 GROUP   
@<TRIPOS>SET

