#    Name: 1qb8_AMP_1_INTS_M
#    Modification time : Mon Mar 24 23:18:04 2014

@<TRIPOS>MOLECULE
1qb8_AMP_1_INTS_M
   49     0     9     0     0
SMALL
NO_CHARGES


@<TRIPOS>ATOM
      1 N          30.0540   27.1005    8.1315 N.am      2 SEC2        0.0000 
      2 N          29.7100   28.1470    9.2270 N.am      8 SEL2        0.0000 
      3 N          30.3980   26.0540    7.0360 N.am      5 SEP2        0.0000 
      4 N          30.0100   26.8530    9.4330 N.am      2 SEC2        0.0000 
      5 N          30.3100   25.5590    9.6390 N.am      5 SEP2        0.0000 
      6 N          25.9660   29.5400    9.4710 N.am      2 SEC2        0.0000 
      7 N          27.2950   28.9470    9.1900 N.am      8 SEL2        0.0000 
      8 N          24.6370   30.1330    9.7520 N.am      5 SEP2        0.0000 
      9 N          27.3340   29.4455    7.8440 N.am      2 SEC2        0.0000 
     10 N          27.3730   29.9440    6.4980 N.am      5 SEP2        0.0000 
     11 N          28.0675   31.2205    9.0130 N.am      2 SEC2        0.0000 
     12 N          29.1570   30.5460    9.6960 N.am      8 SEL2        0.0000 
     13 N          26.9780   31.8950    8.3300 N.am      5 SEP2        0.0000 
     14 N          29.5280   31.0545    8.6525 N.am      2 SEC2        0.0000 
     15 N          29.8990   31.5630    7.6090 N.am      5 SEP2        0.0000 
     16 N          26.3180   25.4010   11.5380 N.am      2 SEC2        0.0000 
     17 N          27.0160   25.6820   13.1150 N.am      8 SEL2        0.0000 
     18 N          25.6200   25.1200    9.9610 N.am      5 SEP2        0.0000 
     19 CA         24.9015   27.9325   14.3970 C.3       3 GLC5        0.0000 
     20 CA         26.6910   27.5280   14.4720 C.3       9 GLL5        0.0000 
     21 CA         23.1120   28.3370   14.3220 C.3       6 GLP5        0.0000 
     22 N          26.6275   25.8695   16.8995 N.am      2 SEC2        0.0000 
     23 N          26.8260   26.4720   15.4190 N.am      8 SEL2        0.0000 
     24 N          26.4290   25.2670   18.3800 N.am      5 SEP2        0.0000 
     25 N          27.2915   26.7765   16.6465 N.am      2 SEC2        0.0000 
     26 N          27.7570   27.0810   17.8740 N.am      5 SEP2        0.0000 
     27 O          25.6335   25.6365   15.5745 O.2       1 ALC1        0.0000 
     28 O          26.8260   26.4720   15.4190 O.2       7 ALL1        0.0000 
     29 O          24.4410   24.8010   15.7300 O.2       4 ALP1        0.0000 
     30 CA         26.1935   34.0290   17.4135 C.3       3 GLC5        0.0000 
     31 CA         25.0910   32.2600   16.6090 C.3       9 GLL5        0.0000 
     32 CA         27.2960   35.7980   18.2180 C.3       6 GLP5        0.0000 
     33 CA         24.8325   33.0310   18.5280 C.3       3 GLC5        0.0000 
     34 CA         24.5740   33.8020   20.4470 C.3       6 GLP5        0.0000 
     35 O          24.0375   34.4445   17.4390 O.2       1 ALC1        0.0000 
     36 O          24.6280   33.5180   16.4440 O.2       7 ALL1        0.0000 
     37 O          23.4470   35.3710   18.4340 O.2       4 ALP1        0.0000 
     38 N          23.7960   31.8170   18.7635 N.am      2 SEC2        0.0000 
     39 N          24.6970   31.5010   17.6650 N.am      8 SEL2        0.0000 
     40 N          22.8950   32.1330   19.8620 N.am      5 SEP2        0.0000 
     41 CA         24.8655   32.0330   19.1330 C.3       3 GLC5        0.0000 
     42 CA         25.1570   30.2640   17.8190 C.3       9 GLL5        0.0000 
     43 CA         23.4685   30.7445   18.9645 C.3       3 GLC5        0.0000 
     44 CA         21.7800   31.2250   20.1100 C.3       6 GLP5        0.0000 
     45 CA         23.7730   29.2750   16.7405 C.3       3 GLC5        0.0000 
     46 CA         22.3890   28.2860   15.6620 C.3       6 GLP5        0.0000 
     47 CA         24.4695   30.4319   14.8893 C.3       3 GLC5        0.0000 
     48 CA         25.9970   31.6610   15.7110 C.3       9 GLL5        0.0000 
     49 CA         22.9570   29.7180   13.7090 C.3       6 GLP5        0.0000 
@<TRIPOS>BOND
@<TRIPOS>SUBSTRUCTURE
     1 ALC1       27 GROUP        1 X    ALC  0     ROOT ALC X 1
     2 SEC2        1 GROUP        1 X    SEC  0     **** SEC X 2
     3 GLC5       19 GROUP        1 X    GLC  0     **** GLC X 6
     4 ALP1       29 GROUP        1 Y    ALP  0     ROOT ALP Y 8
     5 SEP2        3 GROUP        1 Y    SEP  0     **** SEP Y 9
     6 GLP5       21 GROUP        1 Y    GLP  0     **** GLP Y 13
     7 ALL1       28 GROUP        1 Z    ALL  0     ROOT ALL Z 15
     8 SEL2        2 GROUP        1 Z    SEL  0     **** SEL Z 16
     9 GLL5       20 GROUP        1 Z    GLL  0     **** GLL Z 20
@<TRIPOS>SET

