#    Name: 1qb8_AMP_1_ligand
#    Modification time : Mon Mar 24 23:18:04 2014

@<TRIPOS>MOLECULE
1qb8_AMP_1_ligand
   35    37     1     0     0
SMALL
NO_CHARGES


@<TRIPOS>ATOM
      1 P          28.6520   29.0350    9.7650 P.3       1 AMP300      0.0000 
      2 O1P        29.7100   28.1470    9.2270 O.co2     1 AMP300      0.0000 
      3 O2P        27.2950   28.9470    9.1900 O.co2     1 AMP300      0.0000 
      4 O3P        29.1570   30.5460    9.6960 O.co2     1 AMP300      0.0000 
      5 O5'        28.5390   28.8250   11.2630 O.3       1 AMP300      0.0000 
      6 C5'        29.4610   27.8700   12.0090 C.3       1 AMP300      0.0000 
      7 C4'        28.8380   27.3590   13.2980 C.3       1 AMP300      0.0000 
      8 O4'        28.9970   28.3800   14.2800 O.3       1 AMP300      0.0000 
      9 C3'        27.3170   27.0590   13.1960 C.3       1 AMP300      0.0000 
     10 O3'        27.0160   25.6820   13.1150 O.3       1 AMP300      0.0000 
     11 C2'        26.6910   27.5280   14.4720 C.3       1 AMP300      0.0000 
     12 O2'        26.8260   26.4720   15.4190 O.3       1 AMP300      0.0000 
     13 C1'        27.7010   28.6500   14.7330 C.3       1 AMP300      0.0000 
     14 N9         27.2760   30.0010   14.9780 N.pl3     1 AMP300      0.0000 
     15 C8         27.3670   31.0790   14.1450 C.2       1 AMP300      0.0000 
     16 N7         26.6290   32.0740   14.5430 N.2       1 AMP300      0.0000 
     17 C5         25.9970   31.6610   15.7110 C.ar      1 AMP300      0.0000 
     18 C6         25.0910   32.2600   16.6090 C.ar      1 AMP300      0.0000 
     19 N6         24.6280   33.5180   16.4440 N.pl3     1 AMP300      0.0000 
     20 N1         24.6970   31.5010   17.6650 N.ar      1 AMP300      0.0000 
     21 C2         25.1570   30.2640   17.8190 C.ar      1 AMP300      0.0000 
     22 N3         26.0130   29.5770   17.0490 N.ar      1 AMP300      0.0000 
     23 C4         26.4200   30.3310   15.9790 C.ar      1 AMP300      0.0000 
     24 H          30.3997   28.3858   12.2417 H         1 AMP300      0.0000 
     25 H          29.6970   27.0187   11.3601 H         1 AMP300      0.0000 
     26 H          29.3386   26.4611   13.6057 H         1 AMP300      0.0000 
     27 H          26.9099   27.6243   12.3938 H         1 AMP300      0.0000 
     28 H          25.7780   27.9068   14.3003 H         1 AMP300      0.0000 
     29 H          27.9105   28.3068   16.0020 H         1 AMP300      0.0000 
     30 H          27.9439   31.0704   13.3317 H         1 AMP300      0.0000 
     31 H          24.9820   34.0170   15.6530 H         1 AMP300      0.0000 
     32 H          23.9723   33.8387   17.1275 H         1 AMP300      0.0000 
     33 H          24.7821   29.7186   18.7099 H         1 AMP300      0.0000 
     34 H          26.9948   25.3656   14.0634 H         1 AMP300      0.0000 
     35 H          25.8977   26.3002   15.7490 H         1 AMP300      0.0000 
@<TRIPOS>BOND
     1    2    1 ar   
     2    3    1 ar   
     3    4    1 ar   
     4    5    1 1    
     5    6    5 1    
     6    7    6 1    
     7   24    6 1    
     8   25    6 1    
     9    8    7 1    
    10    9    7 1    
    11   26    7 1    
    12   13    8 1    
    13   10    9 1    
    14   11    9 1    
    15   27    9 1    
    16   34   10 1    
    17   12   11 1    
    18   13   11 1    
    19   28   11 1    
    20   35   12 1    
    21   14   13 1    
    22   29   13 1    
    23   15   14 1    
    24   23   14 1    
    25   16   15 2    
    26   30   15 1    
    27   17   16 1    
    28   18   17 ar   
    29   23   17 ar   
    30   19   18 1    
    31   20   18 ar   
    32   31   19 1    
    33   32   19 1    
    34   21   20 ar   
    35   22   21 ar   
    36   33   21 1    
    37   23   22 ar   
@<TRIPOS>SUBSTRUCTURE
     1 AMP300      1 GROUP   
@<TRIPOS>SET

