#    Name: 4fhd_0TT_1_INTS_M
#    Modification time : Mon Mar 24 20:01:40 2014

@<TRIPOS>MOLECULE
4fhd_0TT_1_INTS_M
   52     0     9     0     0
SMALL
NO_CHARGES


@<TRIPOS>ATOM
      1 CA        -18.1110   -3.0270   25.9650 C.3       3 GLC5        0.0000 
      2 CA        -19.7610   -2.5740   26.7420 C.3       9 GLL5        0.0000 
      3 CA        -16.4610   -3.4800   25.1880 C.3       6 GLP5        0.0000 
      4 CA        -22.6485   -5.8640   24.9340 C.3       3 GLC5        0.0000 
      5 CA        -22.0720   -4.0390   25.0490 C.3       9 GLL5        0.0000 
      6 CA        -23.2250   -7.6890   24.8190 C.3       6 GLP5        0.0000 
      7 CA        -23.5340   -2.2815   23.1505 C.3       3 GLC5        0.0000 
      8 CA        -21.7410   -2.9490   24.0050 C.3       9 GLL5        0.0000 
      9 CA        -25.3270   -1.6140   22.2960 C.3       6 GLP5        0.0000 
     10 CA        -21.7805   -4.9110   23.0770 C.3       3 GLC5        0.0000 
     11 CA        -21.8200   -6.8730   22.1490 C.3       6 GLP5        0.0000 
     12 CA        -23.4240   -2.2710   21.8755 C.3       3 GLC5        0.0000 
     13 CA        -21.5210   -2.9280   21.4550 C.3       9 GLL5        0.0000 
     14 CA        -21.6705   -4.9005   21.8020 C.3       3 GLC5        0.0000 
     15 O         -18.2950   -5.3800   21.4870 O.2       1 ALC1        0.0000 
     16 O         -19.1980   -4.3600   21.6960 O.2       7 ALL1        0.0000 
     17 O         -17.3920   -6.4000   21.2780 O.2       4 ALP1        0.0000 
     18 CA        -21.4065   -3.1730   17.2695 C.3       3 GLC5        0.0000 
     19 CA        -20.9810   -2.6950   19.0080 C.3       9 GLL5        0.0000 
     20 CA        -21.8320   -3.6510   15.5310 C.3       6 GLP5        0.0000 
     21 CA        -17.8875   -1.7285   20.2560 C.3       3 GLC5        0.0000 
     22 CA        -19.8890   -1.1240   20.5950 C.3       9 GLL5        0.0000 
     23 CA        -15.8860   -2.3330   19.9170 C.3       6 GLP5        0.0000 
     24 CA        -18.8935   -0.1430   19.0555 C.3       3 GLC5        0.0000 
     25 CA        -17.8980    0.8380   17.5160 C.3       6 GLP5        0.0000 
     26 CA        -20.6820    0.7175   19.6510 C.3       3 GLC5        0.0000 
     27 CA        -21.4750    2.5590   18.7070 C.3       6 GLP5        0.0000 
     28 N         -16.2745   -2.3025   22.2485 N.am      2 SEC2        0.0000 
     29 N         -17.6750   -1.6820   22.3890 N.am      8 SEL2        0.0000 
     30 N         -14.8740   -2.9230   22.1080 N.am      5 SEP2        0.0000 
     31 O         -17.3890   -0.5410   24.8225 O.2       1 ALC1        0.0000 
     32 O         -18.4540   -0.3050   23.9860 O.2       7 ALL1        0.0000 
     33 O         -16.3240   -0.7770   25.6590 O.2       4 ALP1        0.0000 
     34 CA        -22.9700    4.2210   22.0085 C.3       3 GLC5        0.0000 
     35 CA        -22.2830    2.7030   23.5200 C.3       9 GLL5        0.0000 
     36 CA        -23.6570    5.7390   20.4970 C.3       6 GLP5        0.0000 
     37 CA        -24.9570    4.3225   24.4735 C.3       3 GLC5        0.0000 
     38 CA        -23.4480    2.9530   24.5070 C.3       9 GLL5        0.0000 
     39 CA        -26.4660    5.6920   24.4400 C.3       6 GLP5        0.0000 
     40 CA        -25.7115    0.7060   24.4545 C.3       3 GLC5        0.0000 
     41 CA        -24.5730    0.9000   25.6890 C.3       9 GLL5        0.0000 
     42 CA        -26.8500    0.5120   23.2200 C.3       6 GLP5        0.0000 
     43 CA        -23.6367   -4.1873   26.8715 C.3       3 GLC5        0.0000 
     44 CA        -22.2150   -3.2360   26.3110 C.3       9 GLL5        0.0000 
     45 CA        -25.1300   -4.7370   28.0630 C.3       6 GLP5        0.0000 
     46 CA        -20.2065    1.6143   21.6728 C.3       3 GLC5        0.0000 
     47 CA        -20.6000    0.3380   22.4950 C.3       9 GLL5        0.0000 
     48 CA        -20.2590    3.3250   21.1190 C.3       6 GLP5        0.0000 
     49 CA        -21.0493    2.8030   22.5362 C.3       3 GLC5        0.0000 
     50 CA        -21.3960    1.8590   24.3870 C.3       9 GLL5        0.0000 
     51 CA        -24.4726    1.5232   23.5304 C.3       3 GLC5        0.0000 
     52 CA        -25.8230    0.7360   22.2880 C.3       6 GLP5        0.0000 
@<TRIPOS>BOND
@<TRIPOS>SUBSTRUCTURE
     1 ALC1       15 GROUP        1 X    ALC  0     ROOT ALC X 1
     2 SEC2       28 GROUP        1 X    SEC  0     **** SEC X 2
     3 GLC5        1 GROUP        1 X    GLC  0     **** GLC X 6
     4 ALP1       17 GROUP        1 Y    ALP  0     ROOT ALP Y 8
     5 SEP2       30 GROUP        1 Y    SEP  0     **** SEP Y 9
     6 GLP5        3 GROUP        1 Y    GLP  0     **** GLP Y 13
     7 ALL1       16 GROUP        1 Z    ALL  0     ROOT ALL Z 15
     8 SEL2       29 GROUP        1 Z    SEL  0     **** SEL Z 16
     9 GLL5        2 GROUP        1 Z    GLL  0     **** GLL Z 20
@<TRIPOS>SET

