#    Name: 4fhd_0TT_1_ligand
#    Modification time : Mon Mar 24 20:01:40 2014

@<TRIPOS>MOLECULE
4fhd_0TT_1_ligand
   62    65     1     0     0
SMALL
NO_CHARGES


@<TRIPOS>ATOM
      1 O8        -19.4600   -3.9460   26.4910 O.3       1 0TT408      0.0000 
      2 C6        -19.7610   -2.5740   26.7420 C.3       1 0TT408      0.0000 
      3 C5        -21.0940   -2.1970   26.1430 C.3       1 0TT408      0.0000 
      4 O7        -20.9070   -2.0350   24.7230 O.3       1 0TT408      0.0000 
      5 C4        -22.2150   -3.2360   26.3110 C.3       1 0TT408      0.0000 
      6 O9        -23.4570   -2.5250   26.4290 O.3       1 0TT408      0.0000 
      7 C3        -22.0720   -4.0390   25.0490 C.3       1 0TT408      0.0000 
      8 C2        -21.7410   -2.9490   24.0050 C.3       1 0TT408      0.0000 
      9 N3        -21.0180   -3.3320   22.7810 N.am      1 0TT408      0.0000 
     10 CJ        -21.5210   -2.9280   21.4550 C.3       1 0TT408      0.0000 
     11 CK        -19.8610   -4.0790   22.8900 C.2       1 0TT408      0.0000 
     12 O5        -19.3640   -4.4740   23.9440 O.2       1 0TT408      0.0000 
     13 N4        -19.1980   -4.3600   21.6960 N.am      1 0TT408      0.0000 
     14 CL        -19.2890   -3.6310   20.5350 C.2       1 0TT408      0.0000 
     15 O6        -18.6260   -3.9570   19.5690 O.2       1 0TT408      0.0000 
     16 CI        -20.4120   -2.5950   20.4400 C.3       1 0TT408      0.0000 
     17 C1        -20.9810   -2.6950   19.0080 C.3       1 0TT408      0.0000 
     18 CH        -19.8890   -1.1240   20.5950 C.3       1 0TT408      0.0000 
     19 CF        -19.7080   -0.5310   21.9580 C.2       1 0TT408      0.0000 
     20 CE        -20.6000    0.3380   22.4950 C.2       1 0TT408      0.0000 
     21 CG        -18.5400   -0.9000   22.7460 C.2       1 0TT408      0.0000 
     22 O4        -17.6750   -1.6820   22.3890 O.2       1 0TT408      0.0000 
     23 N2        -18.4540   -0.3050   23.9860 N.am      1 0TT408      0.0000 
     24 CB        -19.3430    0.5820   24.5390 C.2       1 0TT408      0.0000 
     25 O3        -19.1520    1.0420   25.6660 O.2       1 0TT408      0.0000 
     26 N1        -20.4390    0.9140   23.7650 N.am      1 0TT408      0.0000 
     27 CD        -21.3960    1.8590   24.3870 C.3       1 0TT408      0.0000 
     28 OB        -22.2900    0.9930   25.0690 O.3       1 0TT408      0.0000 
     29 CM        -22.2830    2.7030   23.5200 C.3       1 0TT408      0.0000 
     30 CA        -23.4480    2.9530   24.5070 C.3       1 0TT408      0.0000 
     31 O1        -23.3330    4.2450   25.0790 O.3       1 0TT408      0.0000 
     32 C9        -23.3790    1.7930   25.5320 C.3       1 0TT408      0.0000 
     33 C8        -24.5730    0.9000   25.6890 C.3       1 0TT408      0.0000 
     34 OA        -24.3650    0.0890   26.8680 O.3       1 0TT408      0.0000 
     35 H         -18.9929   -1.9090   26.3128 H         1 0TT408      0.0000 
     36 H         -19.8001   -2.3625   27.8237 H         1 0TT408      0.0000 
     37 H         -21.4312   -1.2624   26.5658 H         1 0TT408      0.0000 
     38 H         -21.9702   -3.8263   27.1452 H         1 0TT408      0.0000 
     39 H         -22.9866   -4.4973   24.7906 H         1 0TT408      0.0000 
     40 H         -21.2582   -4.7069   25.1198 H         1 0TT408      0.0000 
     41 H         -22.6692   -2.4366   23.7621 H         1 0TT408      0.0000 
     42 H         -22.1743   -2.0387   21.5456 H         1 0TT408      0.0000 
     43 H         -22.1474   -3.7307   21.0199 H         1 0TT408      0.0000 
     44 H         -18.5628   -5.2230   21.6915 H         1 0TT408      0.0000 
     45 H         -20.5816   -0.4682   19.9893 H         1 0TT408      0.0000 
     46 H         -18.9137   -1.0652   20.0275 H         1 0TT408      0.0000 
     47 H         -21.4604    0.6059   21.9492 H         1 0TT408      0.0000 
     48 H         -17.5921   -0.5668   24.5864 H         1 0TT408      0.0000 
     49 H         -20.8974    2.4711   25.1161 H         1 0TT408      0.0000 
     50 H         -22.6390    2.1559   22.7027 H         1 0TT408      0.0000 
     51 H         -21.8261    3.6159   23.2923 H         1 0TT408      0.0000 
     52 H         -24.3602    2.8240   23.9377 H         1 0TT408      0.0000 
     53 H         -23.1028    2.2227   26.4927 H         1 0TT408      0.0000 
     54 H         -24.6703    0.2804   24.7992 H         1 0TT408      0.0000 
     55 H         -25.4645    1.5165   25.7897 H         1 0TT408      0.0000 
     56 H         -20.2885   -2.4853   18.3177 H         1 0TT408      0.0000 
     57 H         -21.3254   -3.6124   18.8084 H         1 0TT408      0.0000 
     58 H         -21.7397   -2.0595   18.8646 H         1 0TT408      0.0000 
     59 H         -19.0029   -3.9521   25.6016 H         1 0TT408      0.0000 
     60 H         -23.9353   -2.6951   25.5674 H         1 0TT408      0.0000 
     61 H         -22.3843    4.3071   25.3891 H         1 0TT408      0.0000 
     62 H         -24.0453   -0.7931   26.5221 H         1 0TT408      0.0000 
@<TRIPOS>BOND
     1    2    1 1    
     2   59    1 1    
     3    3    2 1    
     4   35    2 1    
     5   36    2 1    
     6    4    3 1    
     7    5    3 1    
     8   37    3 1    
     9    8    4 1    
    10    6    5 1    
    11    7    5 1    
    12   38    5 1    
    13   60    6 1    
    14    8    7 1    
    15   39    7 1    
    16   40    7 1    
    17    9    8 1    
    18   41    8 1    
    19   10    9 1    
    20   11    9 1    
    21   16   10 1    
    22   42   10 1    
    23   43   10 1    
    24   12   11 2    
    25   13   11 1    
    26   14   13 1    
    27   44   13 1    
    28   15   14 2    
    29   16   14 1    
    30   17   16 1    
    31   18   16 1    
    32   56   17 1    
    33   57   17 1    
    34   58   17 1    
    35   19   18 1    
    36   45   18 1    
    37   46   18 1    
    38   20   19 2    
    39   21   19 1    
    40   26   20 1    
    41   47   20 1    
    42   22   21 2    
    43   23   21 1    
    44   24   23 1    
    45   48   23 1    
    46   25   24 2    
    47   26   24 1    
    48   27   26 1    
    49   28   27 1    
    50   29   27 1    
    51   49   27 1    
    52   32   28 1    
    53   30   29 1    
    54   50   29 1    
    55   51   29 1    
    56   31   30 1    
    57   32   30 1    
    58   52   30 1    
    59   61   31 1    
    60   33   32 1    
    61   53   32 1    
    62   34   33 1    
    63   54   33 1    
    64   55   33 1    
    65   62   34 1    
@<TRIPOS>SUBSTRUCTURE
     1 0TT408      1 GROUP   
@<TRIPOS>SET

