#    Name: 3DEF_1_CAVITY_N1_6.mol2
#    Modification time : Tue Mar 11 16:06:42 2014

@<TRIPOS>MOLECULE
3DEF_1_CAVITY_N1_6.mol2
   60     0     5     0     0
SMALL
NO_CHARGES


@<TRIPOS>ATOM
      1 CA        -36.6671   14.8589   -6.2651 C.3       4 GLY6        0.0000 
      2 CA        -36.1096   13.4815   -6.4697 C.3       4 GLY6        0.0000 
      3 N         -36.5464   13.0992   -5.0865 N.2       2 ALA2        0.0000 
      4 CA        -36.9832   12.7170   -3.7034 C.3       4 GLY6        0.0000 
      5 N         -38.8856   19.6764   -0.7542 N.2       2 ALA2        0.0000 
      6 O         -39.3224   19.2942    0.6289 O.2       2 ALA2        0.0000 
      7 N         -37.8912   18.6812   -2.3419 N.2       2 ALA2        0.0000 
      8 CA        -38.3280   18.2990   -0.9588 C.3       4 GLY6        0.0000 
      9 N         -35.9024   16.6908   -5.5173 N.2       2 ALA2        0.0000 
     10 N         -34.9080   15.6957   -7.1050 N.2       2 ALA2        0.0000 
     11 N         -35.3449   15.3134   -5.7219 N.2       2 ALA2        0.0000 
     12 N         -35.7817   14.9312   -4.3388 N.2       2 ALA2        0.0000 
     13 N         -36.2185   14.5490   -2.9556 N.2       2 ALA2        0.0000 
     14 N         -34.3505   14.3182   -7.3096 N.2       2 ALA2        0.0000 
     15 N         -34.7873   13.9360   -5.9265 N.2       2 ALA2        0.0000 
     16 DU        -35.2241   13.5538   -4.5433 H         5 CUB7        0.0000 
     17 CA        -35.6610   13.1715   -3.1602 C.3       4 GLY6        0.0000 
     18 N         -33.7929   12.9408   -7.5142 N.2       2 ALA2        0.0000 
     19 DU        -34.2298   12.5586   -6.1310 H         5 CUB7        0.0000 
     20 DU        -34.6666   12.1764   -4.7479 H         5 CUB7        0.0000 
     21 OG        -35.1034   11.7941   -3.3647 O.2       1 SER1        0.0000 
     22 CA        -38.1209   21.5084   -0.0064 C.3       4 GLY6        0.0000 
     23 CA        -36.6897   20.8954   -2.9773 C.3       4 GLY6        0.0000 
     24 CA        -37.1265   20.5132   -1.5941 C.3       4 GLY6        0.0000 
     25 OD1       -37.5633   20.1309   -0.2110 O.3       3 ASP3        0.0000 
     26 N         -38.0002   19.7487    1.1722 N.2       2 ALA2        0.0000 
     27 N         -36.1321   19.5180   -3.1818 N.2       2 ALA2        0.0000 
     28 OD1       -36.5690   19.1358   -1.7987 O.3       3 ASP3        0.0000 
     29 N         -37.0058   18.7535   -0.4156 N.2       2 ALA2        0.0000 
     30 N         -35.5746   18.1406   -3.3864 N.2       2 ALA2        0.0000 
     31 N         -36.0114   17.7583   -2.0033 N.2       2 ALA2        0.0000 
     32 N         -36.4482   17.3761   -0.6201 N.2       2 ALA2        0.0000 
     33 N         -35.0170   16.7632   -3.5910 N.2       2 ALA2        0.0000 
     34 N         -35.4538   16.3809   -2.2078 N.2       2 ALA2        0.0000 
     35 CA        -35.8907   15.9987   -0.8247 C.3       4 GLY6        0.0000 
     36 CA        -34.0226   15.7680   -5.1787 C.3       4 GLY6        0.0000 
     37 N         -34.4595   15.3857   -3.7955 N.2       2 ALA2        0.0000 
     38 CA        -34.8963   15.0035   -2.4124 C.3       4 GLY6        0.0000 
     39 N         -33.4651   14.3906   -5.3832 N.2       2 ALA2        0.0000 
     40 CA        -33.9019   14.0083   -4.0001 C.3       4 GLY6        0.0000 
     41 OG        -34.3387   13.6261   -2.6170 O.2       1 SER1        0.0000 
     42 CA        -35.9250   22.7274   -2.2295 C.3       4 GLY6        0.0000 
     43 O         -36.3618   22.3451   -0.8463 O.2       2 ALA2        0.0000 
     44 CA        -36.7987   21.9629    0.5368 C.3       4 GLY6        0.0000 
     45 N         -35.3674   21.3500   -2.4341 N.2       2 ALA2        0.0000 
     46 OD1       -35.8043   20.9677   -1.0509 O.3       3 ASP3        0.0000 
     47 OD1       -36.2411   20.5855    0.3322 O.3       3 ASP3        0.0000 
     48 N         -36.6779   20.2032    1.7154 N.2       2 ALA2        0.0000 
     49 OD1       -34.8099   19.9725   -2.6386 O.3       3 ASP3        0.0000 
     50 OD1       -34.2523   18.5951   -2.8432 O.3       3 ASP3        0.0000 
     51 CA        -33.6948   17.2177   -3.0478 C.3       4 GLY6        0.0000 
     52 OD1       -34.1316   16.8355   -1.6646 O.3       3 ASP3        0.0000 
     53 CA        -34.5684   16.4532   -0.2815 C.3       4 GLY6        0.0000 
     54 O         -33.1372   15.8403   -3.2523 O.2       2 ALA2        0.0000 
     55 CA        -33.5741   15.4580   -1.8692 C.3       4 GLY6        0.0000 
     56 CA        -35.0396   22.7997   -0.3031 C.3       4 GLY6        0.0000 
     57 CA        -35.4764   22.4174    1.0800 C.3       4 GLY6        0.0000 
     58 OD1       -34.0452   21.8045   -1.8908 O.3       3 ASP3        0.0000 
     59 OD1       -35.3557   20.6578    2.2586 O.3       3 ASP3        0.0000 
     60 CA        -35.7925   20.2755    3.6417 C.3       4 GLY6        0.0000 
@<TRIPOS>BOND
@<TRIPOS>SUBSTRUCTURE
     1 SER1       21 GROUP   
     2 ALA2        3 GROUP   
     3 ASP3       25 GROUP   
     4 GLY6        1 GROUP   
     5 CUB7       16 GROUP   
@<TRIPOS>SET

