#    Name: 3def_GDP_1_INTS_M
#    Modification time : Mon Mar 24 23:14:05 2014

@<TRIPOS>MOLECULE
3def_GDP_1_INTS_M
   67     0    15     0     0
SMALL
NO_CHARGES


@<TRIPOS>ATOM
      1 NZ        -31.0365   19.6440   -2.9995 N.4       3 LYC4        0.0000 
      2 NZ        -31.4550   18.2170   -3.1460 N.4      13 LYL4        0.0000 
      3 NZ        -30.6180   21.0710   -2.8530 N.4       8 LYP4        0.0000 
      4 N         -31.2760   17.8415   -4.6570 N.am      2 SEC2        0.0000 
      5 N         -31.4550   18.2170   -3.1460 N.am     12 SEL2        0.0000 
      6 N         -31.0970   17.4660   -6.1680 N.am      7 SEP2        0.0000 
      7 N         -31.0070   16.8810   -3.7130 N.am      2 SEC2        0.0000 
      8 N         -30.5590   15.5450   -4.2800 N.am      7 SEP2        0.0000 
      9 N         -30.5970   17.3240   -2.4185 N.am      2 SEC2        0.0000 
     10 N         -29.7390   16.4310   -1.6910 N.am      7 SEP2        0.0000 
     11 N         -31.0365   19.6440   -2.9995 N.am      2 SEC2        0.0000 
     12 N         -30.6180   21.0710   -2.8530 N.am      7 SEP2        0.0000 
     13 NZ        -32.2420   20.0370   -3.0500 N.4       3 LYC4        0.0000 
     14 NZ        -33.8660   19.0030   -3.2470 N.4      13 LYL4        0.0000 
     15 N         -33.4850   19.1950   -4.6505 N.am      2 SEC2        0.0000 
     16 N         -33.8660   19.0030   -3.2470 N.am     12 SEL2        0.0000 
     17 N         -33.1040   19.3870   -6.0540 N.am      7 SEP2        0.0000 
     18 NZ        -31.7320   19.6425   -2.0055 N.4       3 LYC4        0.0000 
     19 NZ        -32.8460   18.2140   -1.1580 N.4      13 LYL4        0.0000 
     20 Zn        -33.3555   18.7090   -0.4185 Zn        4 ZIC7        0.0000 
     21 Zn        -32.8460   18.2140   -1.1580 Zn       14 ZIL7        0.0000 
     22 Zn        -33.8650   19.2040    0.3210 Zn        9 ZIP7        0.0000 
     23 N         -32.0225   17.3875   -0.1585 N.am      2 SEC2        0.0000 
     24 N         -32.8460   18.2140   -1.1580 N.am     12 SEL2        0.0000 
     25 N         -31.1990   16.5610    0.8410 N.am      7 SEP2        0.0000 
     26 N         -31.8760   16.0200   -3.6705 N.am      2 SEC2        0.0000 
     27 N         -33.1930   16.4950   -3.0610 N.am     12 SEL2        0.0000 
     28 N         -36.9300   15.6940   -1.5940 N.am      2 SEC2        0.0000 
     29 N         -35.3980   16.0670   -1.7690 N.am     12 SEL2        0.0000 
     30 N         -38.4620   15.3210   -1.4190 N.am      7 SEP2        0.0000 
     31 N         -32.6360   14.2770   -0.0945 N.am      2 SEC2        0.0000 
     32 N         -33.3160   14.6800   -1.2370 N.am     12 SEL2        0.0000 
     33 N         -31.9560   13.8740    1.0480 N.am      7 SEP2        0.0000 
     34 N         -33.3655   13.3425   -1.0020 N.am      2 SEC2        0.0000 
     35 N         -33.4150   12.0050   -0.7670 N.am      7 SEP2        0.0000 
     36 CA        -34.1835   16.4300   -5.6170 C.3       5 GLC5        0.0000 
     37 CA        -34.9620   14.7590   -4.6190 C.3      15 GLL5        0.0000 
     38 CA        -33.4050   18.1010   -6.6150 C.3      10 GLP5        0.0000 
     39 CA        -37.4575   14.5295   -5.7080 C.3       5 GLC5        0.0000 
     40 CA        -35.4960   13.5180   -5.3140 C.3      15 GLL5        0.0000 
     41 CA        -39.4190   15.5410   -6.1020 C.3      10 GLP5        0.0000 
     42 N         -33.2305   13.1025   -6.3595 N.am      2 SEC2        0.0000 
     43 N         -34.4250   12.6750   -5.7670 N.am     12 SEL2        0.0000 
     44 N         -32.0360   13.5300   -6.9520 N.am      7 SEP2        0.0000 
     45 N         -30.0260   10.8400   -2.6770 N.am      2 SEC2        0.0000 
     46 N         -31.1280   11.1300   -3.9030 N.am     12 SEL2        0.0000 
     47 N         -28.9240   10.5500   -1.4510 N.am      7 SEP2        0.0000 
     48 CA        -30.7400    9.2930   -3.0125 C.3       5 GLC5        0.0000 
     49 CA        -31.1640   10.0410   -4.7160 C.3      15 GLL5        0.0000 
     50 CA        -30.3160    8.5450   -1.3090 C.3      10 GLP5        0.0000 
     51 N         -28.0635    9.0895   -5.6920 N.am      2 SEC2        0.0000 
     52 N         -29.0650    8.8780   -4.6000 N.am     12 SEL2        0.0000 
     53 N         -27.0620    9.3010   -6.7840 N.am      7 SEP2        0.0000 
     54 N         -28.9555    7.9445   -3.5360 N.am      2 SEC2        0.0000 
     55 N         -28.8460    7.0110   -2.4720 N.am      7 SEP2        0.0000 
     56 O         -30.1650    6.9060   -5.6320 O.2       1 ALC1        0.0000 
     57 O         -30.7280    8.0440   -5.9490 O.2      11 ALL1        0.0000 
     58 O         -29.6020    5.7680   -5.3150 O.2       6 ALP1        0.0000 
     59 O         -31.1860    6.4610   -7.9455 O.2       1 ALC1        0.0000 
     60 O         -32.3410    7.1120   -7.3190 O.2      11 ALL1        0.0000 
     61 O         -30.0310    5.8100   -8.5720 O.2       6 ALP1        0.0000 
     62 CA        -36.2922   12.4170   -2.4283 C.3       5 GLC5        0.0000 
     63 CA        -35.4110   11.5970   -3.8910 C.3      15 GLL5        0.0000 
     64 CA        -36.7170   12.6890   -0.7340 C.3      10 GLP5        0.0000 
     65 CA        -30.6870   10.5102   -6.4787 C.3       5 GLC5        0.0000 
     66 CA        -32.5380    9.9720   -5.2610 C.3      15 GLL5        0.0000 
     67 CA        -29.5230   11.0140   -7.9690 C.3      10 GLP5        0.0000 
@<TRIPOS>BOND
@<TRIPOS>SUBSTRUCTURE
     1 ALC1       56 GROUP        1 X    ALC  0     ROOT ALC X 1
     2 SEC2        4 GROUP        1 X    SEC  0     **** SEC X 2
     3 LYC4        1 GROUP        1 X    LYC  0     **** LYC X 4
     4 ZIC7       20 GROUP        1 X    ZIC  0     **** ZIC X 5
     5 GLC5       36 GROUP        1 X    GLC  0     **** GLC X 6
     6 ALP1       58 GROUP        1 Y    ALP  0     ROOT ALP Y 8
     7 SEP2        6 GROUP        1 Y    SEP  0     **** SEP Y 9
     8 LYP4        3 GROUP        1 Y    LYP  0     **** LYP Y 11
     9 ZIP7       22 GROUP        1 Y    ZIP  0     **** ZIP Y 12
    10 GLP5       38 GROUP        1 Y    GLP  0     **** GLP Y 13
    11 ALL1       57 GROUP        1 Z    ALL  0     ROOT ALL Z 15
    12 SEL2        5 GROUP        1 Z    SEL  0     **** SEL Z 16
    13 LYL4        2 GROUP        1 Z    LYL  0     **** LYL Z 18
    14 ZIL7       21 GROUP        1 Z    ZIL  0     **** ZIL Z 19
    15 GLL5       37 GROUP        1 Z    GLL  0     **** GLL Z 20
@<TRIPOS>SET

