#    Name: 3def_GDP_1_ligand
#    Modification time : Mon Mar 24 23:14:05 2014

@<TRIPOS>MOLECULE
3def_GDP_1_ligand
   40    42     1     0     0
SMALL
NO_CHARGES


@<TRIPOS>ATOM
      1 PB        -32.8360   18.0310   -2.6150 P.3       1 GDP281      0.0000 
      2 O1B       -31.4550   18.2170   -3.1460 O.co2     1 GDP281      0.0000 
      3 O2B       -33.8660   19.0030   -3.2470 O.co2     1 GDP281      0.0000 
      4 O3B       -32.8460   18.2140   -1.1580 O.co2     1 GDP281      0.0000 
      5 O3A       -33.1930   16.4950   -3.0610 O.3       1 GDP281      0.0000 
      6 PA        -34.1100   15.4260   -2.2750 P.3       1 GDP281      0.0000 
      7 O1A       -35.3980   16.0670   -1.7690 O.co2     1 GDP281      0.0000 
      8 O2A       -33.3160   14.6800   -1.2370 O.co2     1 GDP281      0.0000 
      9 O5'       -34.3370   14.3490   -3.4070 O.3       1 GDP281      0.0000 
     10 C5'       -34.9620   14.7590   -4.6190 C.3       1 GDP281      0.0000 
     11 C4'       -35.4960   13.5180   -5.3140 C.3       1 GDP281      0.0000 
     12 O4'       -34.4250   12.6750   -5.7670 O.3       1 GDP281      0.0000 
     13 C3'       -36.3240   12.6930   -4.3540 C.3       1 GDP281      0.0000 
     14 O3'       -37.4530   12.2090   -5.0590 O.3       1 GDP281      0.0000 
     15 C2'       -35.4110   11.5970   -3.8910 C.3       1 GDP281      0.0000 
     16 O2'       -36.0560   10.3520   -3.5270 O.3       1 GDP281      0.0000 
     17 C1'       -34.5420   11.4130   -5.1240 C.3       1 GDP281      0.0000 
     18 N9        -33.1900   11.0190   -4.7760 N.pl3     1 GDP281      0.0000 
     19 C8        -32.3680   11.7100   -3.9490 C.2       1 GDP281      0.0000 
     20 N7        -31.1280   11.1300   -3.9030 N.2       1 GDP281      0.0000 
     21 C5        -31.1640   10.0410   -4.7160 C.2       1 GDP281      0.0000 
     22 C6        -30.2400    8.9800   -5.0870 C.2       1 GDP281      0.0000 
     23 O6        -29.0650    8.8780   -4.6000 O.2       1 GDP281      0.0000 
     24 N1        -30.7280    8.0440   -5.9490 N.am      1 GDP281      0.0000 
     25 C2        -31.9830    8.0630   -6.4450 C.2       1 GDP281      0.0000 
     26 N2        -32.3410    7.1120   -7.3190 N.pl3     1 GDP281      0.0000 
     27 N3        -32.8710    9.0180   -6.1560 N.2       1 GDP281      0.0000 
     28 C4        -32.5380    9.9720   -5.2610 C.2       1 GDP281      0.0000 
     29 H         -34.2598   15.2488   -5.2940 H         1 GDP281      0.0000 
     30 H         -35.8003   15.4321   -4.4376 H         1 GDP281      0.0000 
     31 H         -36.1248   13.8138   -6.1327 H         1 GDP281      0.0000 
     32 H         -36.5801   13.3145   -3.5284 H         1 GDP281      0.0000 
     33 H         -34.7750   11.9854   -3.1211 H         1 GDP281      0.0000 
     34 H         -34.9944   10.6983   -5.7688 H         1 GDP281      0.0000 
     35 H         -32.6176   12.5110   -3.4515 H         1 GDP281      0.0000 
     36 H         -30.0770    7.2539   -6.2451 H         1 GDP281      0.0000 
     37 H         -33.2883    7.1415   -7.6378 H         1 GDP281      0.0000 
     38 H         -31.6287    6.4581   -7.5740 H         1 GDP281      0.0000 
     39 H         -37.5498   11.2566   -4.7699 H         1 GDP281      0.0000 
     40 H         -35.9842   10.3050   -2.5307 H         1 GDP281      0.0000 
@<TRIPOS>BOND
     1    2    1 ar   
     2    3    1 ar   
     3    4    1 ar   
     4    5    1 1    
     5    6    5 1    
     6    7    6 ar   
     7    8    6 ar   
     8    9    6 1    
     9   10    9 1    
    10   11   10 1    
    11   29   10 1    
    12   30   10 1    
    13   12   11 1    
    14   13   11 1    
    15   31   11 1    
    16   17   12 1    
    17   14   13 1    
    18   15   13 1    
    19   32   13 1    
    20   39   14 1    
    21   16   15 1    
    22   17   15 1    
    23   33   15 1    
    24   40   16 1    
    25   18   17 1    
    26   34   17 1    
    27   19   18 1    
    28   28   18 1    
    29   20   19 2    
    30   35   19 1    
    31   21   20 1    
    32   22   21 1    
    33   28   21 2    
    34   23   22 2    
    35   24   22 am   
    36   25   24 1    
    37   36   24 1    
    38   26   25 1    
    39   27   25 2    
    40   37   26 1    
    41   38   26 1    
    42   28   27 1    
@<TRIPOS>SUBSTRUCTURE
     1 GDP281      1 GROUP   
@<TRIPOS>SET

