#    Name: 4dpm_COA_3_INTS_M
#    Modification time : Tue Mar 25 10:02:10 2014

@<TRIPOS>MOLECULE
4dpm_COA_3_INTS_M
   92     0    12     0     0
SMALL
NO_CHARGES


@<TRIPOS>ATOM
      1 CA        -13.2835   -2.4210   64.2495 C.3       4 GLC5        0.0000 
      2 CA        -13.7490   -0.8730   63.3080 C.3      12 GLL5        0.0000 
      3 CA        -12.8180   -3.9690   65.1910 C.3       8 GLP5        0.0000 
      4 CA        -15.1635   -0.1865   64.5270 C.3       4 GLC5        0.0000 
      5 CA        -16.5780    0.5000   65.7460 C.3       8 GLP5        0.0000 
      6 CA        -12.6405    0.8910   62.6795 C.3       4 GLC5        0.0000 
      7 CA        -11.5320    2.6550   62.0510 C.3       8 GLP5        0.0000 
      8 CA        -12.1470   -2.6615   64.0525 C.3       4 GLC5        0.0000 
      9 CA        -11.4760   -1.3540   62.9140 C.3      12 GLL5        0.0000 
     10 CA        -10.6280   -0.3615   60.3490 C.3       4 GLC5        0.0000 
     11 CA        -11.7720   -1.7330   61.6160 C.3      12 GLL5        0.0000 
     12 CA         -9.4840    1.0100   59.0820 C.3       8 GLP5        0.0000 
     13 CA        -12.8175    0.4775   60.9885 C.3       4 GLC5        0.0000 
     14 CA        -13.1770   -1.6720   61.1830 C.3      12 GLL5        0.0000 
     15 CA        -12.4580    2.6270   60.7940 C.3       8 GLP5        0.0000 
     16 CA        -13.3790   -1.4545   58.9705 C.3       4 GLC5        0.0000 
     17 CA        -13.5810   -1.2370   56.7580 C.3       8 GLP5        0.0000 
     18 CA         -9.3430    0.9605   64.7450 C.3       4 GLC5        0.0000 
     19 CA         -9.4850   -1.2240   64.3350 C.3      12 GLL5        0.0000 
     20 CA         -9.2010    3.1450   65.1550 C.3       8 GLP5        0.0000 
     21 CA        -10.6360   -0.8890   66.2265 C.3       4 GLC5        0.0000 
     22 CA        -11.7870   -0.5540   68.1180 C.3       8 GLP5        0.0000 
     23 CA        -11.1515   -2.5965   64.7630 C.3       4 GLC5        0.0000 
     24 N          -9.8270   -4.3560   66.0230 N.am      2 SEC2        0.0000 
     25 N          -9.0220   -3.5070   65.1680 N.am     10 SEL2        0.0000 
     26 N         -10.6320   -5.2050   66.8780 N.am      6 SEP2        0.0000 
     27 N          -7.1850   -4.2670   68.8310 N.am      2 SEC2        0.0000 
     28 N          -7.3790   -3.7480   67.6410 N.am     10 SEL2        0.0000 
     29 N          -6.9910   -4.7860   70.0210 N.am      6 SEP2        0.0000 
     30 N          -6.5515   -0.7995   68.6245 N.am      2 SEC2        0.0000 
     31 N          -7.4450   -1.6650   69.1120 N.am     10 SEL2        0.0000 
     32 N          -5.6580    0.0660   68.1370 N.am      6 SEP2        0.0000 
     33 N         -10.7605   -2.8670   67.9695 N.am      2 SEC2        0.0000 
     34 N          -9.5100   -2.9860   68.7560 N.am     10 SEL2        0.0000 
     35 N         -12.0110   -2.7480   67.1830 N.am      6 SEP2        0.0000 
     36 N          -9.4490   -4.2760   69.1235 N.am      2 SEC2        0.0000 
     37 N          -9.3880   -5.5660   69.4910 N.am      6 SEP2        0.0000 
     38 N          -8.2505   -3.8860   69.3885 N.am      2 SEC2        0.0000 
     39 CA         -5.0820    1.5240   64.9745 C.3       4 GLC5        0.0000 
     40 CA         -6.3860    0.2190   64.6400 C.3      12 GLL5        0.0000 
     41 CA         -3.7780    2.8290   65.3090 C.3       8 GLP5        0.0000 
     42 Zn         -3.9845   -2.1095   61.4580 Zn        3 ZIC7        0.0000 
     43 Zn         -4.8820   -1.5120   61.5140 Zn       11 ZIL7        0.0000 
     44 Zn         -3.0870   -2.7070   61.4020 Zn        7 ZIP7        0.0000 
     45 Zn         -2.6825   -1.5560   61.3485 Zn        3 ZIC7        0.0000 
     46 Zn         -2.2780   -0.4050   61.2950 Zn       11 ZIL7        0.0000 
     47 N          -0.9580   -0.4530   60.9395 N.am      2 SEC2        0.0000 
     48 N          -2.2780   -0.4050   61.2950 N.am     10 SEL2        0.0000 
     49 N           0.3620   -0.5010   60.5840 N.am      6 SEP2        0.0000 
     50 N          -2.0085    2.9840   63.4790 N.am      2 SEC2        0.0000 
     51 N          -1.9160    1.7540   62.6790 N.am     10 SEL2        0.0000 
     52 N          -2.1010    4.2140   64.2790 N.am      6 SEP2        0.0000 
     53 CA         -1.9190    2.2775   60.0280 C.3       4 GLC5        0.0000 
     54 CA         -3.8470    3.0320   60.7540 C.3      12 GLL5        0.0000 
     55 CA          0.0090    1.5230   59.3020 C.3       8 GLP5        0.0000 
     56 CA         -4.0925    6.6975   60.4550 C.3       4 GLC5        0.0000 
     57 CA         -4.5330    5.0550   59.9450 C.3      12 GLL5        0.0000 
     58 CA         -3.6520    8.3400   60.9650 C.3       8 GLP5        0.0000 
     59 CA         -1.3160    2.7240   58.9540 C.3       4 GLC5        0.0000 
     60 CA         -2.6410    3.9250   58.6060 C.3      12 GLL5        0.0000 
     61 O          -7.1730    4.9235   58.5770 O.2       1 ALC1        0.0000 
     62 O          -6.2220    4.6440   57.2690 O.2       9 ALL1        0.0000 
     63 O          -8.1240    5.2030   59.8850 O.2       5 ALP1        0.0000 
     64 CA         -7.9370    5.9965   54.5685 C.3       4 GLC5        0.0000 
     65 CA         -6.7370    5.5610   56.2490 C.3      12 GLL5        0.0000 
     66 CA         -9.1370    6.4320   52.8880 C.3       8 GLP5        0.0000 
     67 CA         -7.9095    7.0550   58.7275 C.3       4 GLC5        0.0000 
     68 CA         -6.4880    6.8850   57.0150 C.3      12 GLL5        0.0000 
     69 CA         -9.3310    7.2250   60.4400 C.3       8 GLP5        0.0000 
     70 CA         -7.2740    8.8410   57.7410 C.3       4 GLC5        0.0000 
     71 CA         -8.0600   10.7970   58.4670 C.3       8 GLP5        0.0000 
     72 CA         -3.0260    8.3600   59.0430 C.3       4 GLC5        0.0000 
     73 CA         -2.4000    8.3800   57.1210 C.3      12 GLL5        0.0000 
     74 CA         -0.7520    9.9710   55.8075 C.3       4 GLC5        0.0000 
     75 CA         -0.8680    9.2820   57.0270 C.3      12 GLL5        0.0000 
     76 CA         -0.6360   10.6600   54.5880 C.3       8 GLP5        0.0000 
     77 CA          0.1875    7.8235   56.9195 C.3       4 GLC5        0.0000 
     78 CA          1.2430    6.3650   56.8120 C.3       8 GLP5        0.0000 
     79 CA          0.6465   10.5900   57.1555 C.3       4 GLC5        0.0000 
     80 CA          2.1610   11.8980   57.2840 C.3       8 GLP5        0.0000 
     81 CA         -0.2050    9.4490   59.0640 C.3       4 GLC5        0.0000 
     82 CA          0.4580    9.6160   61.1010 C.3       8 GLP5        0.0000 
     83 CA        -11.5780    0.5557   62.1580 C.3       4 GLC5        0.0000 
     84 CA        -12.8888   -3.6547   61.8113 C.3       4 GLC5        0.0000 
     85 CA        -13.3030   -5.6070   62.2230 C.3       8 GLP5        0.0000 
     86 CA         -8.1275    1.5920   65.0602 C.3       4 GLC5        0.0000 
     87 CA         -7.7220   -0.1410   65.2910 C.3      12 GLL5        0.0000 
     88 CA         -8.4198    7.0575   55.8945 C.3       4 GLC5        0.0000 
     89 CA        -10.2270    7.8920   55.1570 C.3       8 GLP5        0.0000 
     90 CA         -1.6335    9.3450   55.5315 C.3       4 GLC5        0.0000 
     91 CA         -2.8620    7.6800   55.8290 C.3      12 GLL5        0.0000 
     92 CA         -0.6940    7.1975   56.6435 C.3       4 GLC5        0.0000 
@<TRIPOS>BOND
@<TRIPOS>SUBSTRUCTURE
     1 ALC1       61 GROUP        1 X    ALC  0     ROOT ALC X 1
     2 SEC2       24 GROUP        1 X    SEC  0     **** SEC X 2
     3 ZIC7       42 GROUP        1 X    ZIC  0     **** ZIC X 5
     4 GLC5        1 GROUP        1 X    GLC  0     **** GLC X 6
     5 ALP1       63 GROUP        1 Y    ALP  0     ROOT ALP Y 8
     6 SEP2       26 GROUP        1 Y    SEP  0     **** SEP Y 9
     7 ZIP7       44 GROUP        1 Y    ZIP  0     **** ZIP Y 12
     8 GLP5        3 GROUP        1 Y    GLP  0     **** GLP Y 13
     9 ALL1       62 GROUP        1 Z    ALL  0     ROOT ALL Z 15
    10 SEL2       25 GROUP        1 Z    SEL  0     **** SEL Z 16
    11 ZIL7       43 GROUP        1 Z    ZIL  0     **** ZIL Z 19
    12 GLL5        2 GROUP        1 Z    GLL  0     **** GLL Z 20
@<TRIPOS>SET

