#    Name: 4dpm_COA_3_ligand
#    Modification time : Tue Mar 25 10:02:10 2014

@<TRIPOS>MOLECULE
4dpm_COA_3_ligand
   79    81     1     0     0
SMALL
NO_CHARGES


@<TRIPOS>ATOM
      1 N1A       -14.1050   -1.2340   62.0630 N.ar      1 COA402      0.0000 
      2 C2A       -13.7490   -0.8730   63.3080 C.ar      1 COA402      0.0000 
      3 N3A       -12.4710   -0.9320   63.7390 N.ar      1 COA402      0.0000 
      4 C4A       -11.4760   -1.3540   62.9140 C.ar      1 COA402      0.0000 
      5 C5A       -11.7720   -1.7330   61.6160 C.ar      1 COA402      0.0000 
      6 C6A       -13.1770   -1.6720   61.1830 C.ar      1 COA402      0.0000 
      7 N6A       -13.5360   -2.0110   59.9270 N.pl3     1 COA402      0.0000 
      8 N7A       -10.6150   -2.1080   61.0420 N.2       1 COA402      0.0000 
      9 C8A        -9.6270   -1.9430   61.9400 C.2       1 COA402      0.0000 
     10 N9A       -10.1620   -1.4880   63.0760 N.pl3     1 COA402      0.0000 
     11 C1B        -9.4850   -1.2240   64.3350 C.3       1 COA402      0.0000 
     12 C2B        -8.4450   -2.3030   64.6600 C.3       1 COA402      0.0000 
     13 O2B        -9.0220   -3.5070   65.1680 O.3       1 COA402      0.0000 
     14 C3B        -7.6910   -1.5680   65.7540 C.3       1 COA402      0.0000 
     15 O3B        -8.4270   -1.5540   66.9240 O.3       1 COA402      0.0000 
     16 P3B        -8.1960   -2.5390   68.1520 P.3       1 COA402      0.0000 
     17 O7A        -7.3790   -3.7480   67.6410 O.co2     1 COA402      0.0000 
     18 O8A        -7.4450   -1.6650   69.1120 O.co2     1 COA402      0.0000 
     19 O9A        -9.5100   -2.9860   68.7560 O.co2     1 COA402      0.0000 
     20 C4B        -7.7220   -0.1410   65.2910 C.3       1 COA402      0.0000 
     21 O4B        -8.7590   -0.0240   64.2850 O.3       1 COA402      0.0000 
     22 C5B        -6.3860    0.2190   64.6400 C.3       1 COA402      0.0000 
     23 O5B        -5.9940   -0.7440   63.6810 O.3       1 COA402      0.0000 
     24 P1A        -5.4030   -0.2900   62.2600 P.3       1 COA402      0.0000 
     25 O1A        -4.8820   -1.5120   61.5140 O.co2     1 COA402      0.0000 
     26 O2A        -6.4170    0.5240   61.5200 O.co2     1 COA402      0.0000 
     27 O3A        -4.1690    0.6190   62.7270 O.3       1 COA402      0.0000 
     28 P2A        -2.8580    0.8990   61.8570 P.3       1 COA402      0.0000 
     29 O4A        -2.2780   -0.4050   61.2950 O.co2     1 COA402      0.0000 
     30 O5A        -1.9160    1.7540   62.6790 O.co2     1 COA402      0.0000 
     31 O6A        -3.3960    1.7100   60.6130 O.3       1 COA402      0.0000 
     32 CBP        -3.9520    3.7480   59.4030 C.3       1 COA402      0.0000 
     33 CCP        -3.8470    3.0320   60.7540 C.3       1 COA402      0.0000 
     34 CDP        -4.5330    5.0550   59.9450 C.3       1 COA402      0.0000 
     35 CEP        -2.6410    3.9250   58.6060 C.3       1 COA402      0.0000 
     36 CAP        -4.9380    2.9800   58.4840 C.3       1 COA402      0.0000 
     37 OAP        -6.1200    2.6680   59.2830 O.3       1 COA402      0.0000 
     38 C9P        -5.2560    3.7160   57.2060 C.2       1 COA402      0.0000 
     39 O9P        -4.6590    3.4590   56.1790 O.2       1 COA402      0.0000 
     40 N8P        -6.2220    4.6440   57.2690 N.am      1 COA402      0.0000 
     41 C7P        -6.7370    5.5610   56.2490 C.3       1 COA402      0.0000 
     42 C6P        -6.4880    6.8850   57.0150 C.3       1 COA402      0.0000 
     43 C5P        -5.2250    7.6820   56.6370 C.2       1 COA402      0.0000 
     44 O5P        -5.2330    8.9190   56.7160 O.2       1 COA402      0.0000 
     45 N4P        -4.1250    7.0180   56.2090 N.am      1 COA402      0.0000 
     46 C3P        -2.8620    7.6800   55.8290 C.3       1 COA402      0.0000 
     47 C2P        -2.4000    8.3800   57.1210 C.3       1 COA402      0.0000 
     48 S1P        -0.8680    9.2820   57.0270 S.3       1 COA402      0.0000 
     49 H         -14.4953   -0.5300   63.9759 H         1 COA402      0.0000 
     50 H         -12.8013   -2.3373   59.3323 H         1 COA402      0.0000 
     51 H         -14.5048   -1.9057   59.7027 H         1 COA402      0.0000 
     52 H          -8.6882   -2.1250   61.7836 H         1 COA402      0.0000 
     53 H         -10.1874   -1.2115   65.1566 H         1 COA402      0.0000 
     54 H          -7.8102   -2.4100   63.8385 H         1 COA402      0.0000 
     55 H          -6.7251   -1.8945   65.8218 H         1 COA402      0.0000 
     56 H          -7.8996    0.5049   66.1078 H         1 COA402      0.0000 
     57 H          -5.6412    0.3192   65.4517 H         1 COA402      0.0000 
     58 H          -6.4987    1.2242   64.1924 H         1 COA402      0.0000 
     59 H          -3.1723    3.6380   61.3905 H         1 COA402      0.0000 
     60 H          -4.8475    3.0840   61.2270 H         1 COA402      0.0000 
     61 H          -4.4306    2.0317   58.2272 H         1 COA402      0.0000 
     62 H          -6.7422    4.7705   58.2342 H         1 COA402      0.0000 
     63 H          -7.7643    5.4495   56.1049 H         1 COA402      0.0000 
     64 H          -6.1476    5.5601   55.3881 H         1 COA402      0.0000 
     65 H          -6.4511    6.6565   58.1026 H         1 COA402      0.0000 
     66 H          -7.3758    7.5400   56.8761 H         1 COA402      0.0000 
     67 H          -4.1210    5.9724   56.1258 H         1 COA402      0.0000 
     68 H          -3.0230    8.4205   55.0785 H         1 COA402      0.0000 
     69 H          -2.1216    6.9675   55.5434 H         1 COA402      0.0000 
     70 H          -2.2220    7.6754   57.9332 H         1 COA402      0.0000 
     71 H          -3.1099    9.1342   57.4603 H         1 COA402      0.0000 
     72 H          -4.0067    5.4016   60.7214 H         1 COA402      0.0000 
     73 H          -4.5396    5.7746   59.2507 H         1 COA402      0.0000 
     74 H          -5.4759    4.9408   60.2577 H         1 COA402      0.0000 
     75 H          -1.9669    4.4610   59.1142 H         1 COA402      0.0000 
     76 H          -2.2152    3.0460   58.3915 H         1 COA402      0.0000 
     77 H          -2.7952    4.3957   57.7373 H         1 COA402      0.0000 
     78 H          -8.2838   -3.9549   65.6724 H         1 COA402      0.0000 
     79 H          -5.8238    1.9512   59.9142 H         1 COA402      0.0000 
@<TRIPOS>BOND
     1    2    1 ar   
     2    6    1 ar   
     3    3    2 ar   
     4   49    2 1    
     5    4    3 ar   
     6    5    4 ar   
     7   10    4 1    
     8    6    5 ar   
     9    8    5 1    
    10    7    6 1    
    11   50    7 1    
    12   51    7 1    
    13    9    8 2    
    14   10    9 1    
    15   52    9 1    
    16   11   10 1    
    17   12   11 1    
    18   21   11 1    
    19   53   11 1    
    20   13   12 1    
    21   14   12 1    
    22   54   12 1    
    23   78   13 1    
    24   15   14 1    
    25   20   14 1    
    26   55   14 1    
    27   16   15 1    
    28   17   16 ar   
    29   18   16 ar   
    30   19   16 ar   
    31   21   20 1    
    32   22   20 1    
    33   56   20 1    
    34   23   22 1    
    35   57   22 1    
    36   58   22 1    
    37   24   23 1    
    38   25   24 ar   
    39   26   24 ar   
    40   27   24 1    
    41   28   27 1    
    42   29   28 ar   
    43   30   28 ar   
    44   31   28 1    
    45   33   31 1    
    46   33   32 1    
    47   34   32 1    
    48   35   32 1    
    49   36   32 1    
    50   59   33 1    
    51   60   33 1    
    52   72   34 1    
    53   73   34 1    
    54   74   34 1    
    55   75   35 1    
    56   76   35 1    
    57   77   35 1    
    58   37   36 1    
    59   38   36 1    
    60   61   36 1    
    61   79   37 1    
    62   39   38 2    
    63   40   38 am   
    64   41   40 1    
    65   62   40 1    
    66   42   41 1    
    67   63   41 1    
    68   64   41 1    
    69   43   42 1    
    70   65   42 1    
    71   66   42 1    
    72   44   43 2    
    73   45   43 am   
    74   46   45 1    
    75   67   45 1    
    76   47   46 1    
    77   68   46 1    
    78   69   46 1    
    79   48   47 1    
    80   70   47 1    
    81   71   47 1    
@<TRIPOS>SUBSTRUCTURE
     1 COA402      1 GROUP   
@<TRIPOS>SET

