#    Name: 2b67_FMN_3_INTS_M
#    Modification time : Mon Mar 24 20:18:43 2014

@<TRIPOS>MOLECULE
2b67_FMN_3_INTS_M
   88     0    12     0     0
SMALL
NO_CHARGES


@<TRIPOS>ATOM
      1 N          -9.4090  -25.2500   11.6280 N.am      2 SEC2        0.0000 
      2 N         -10.3300  -25.3550   12.8920 N.am     10 SEL2        0.0000 
      3 N          -8.4880  -25.1450   10.3640 N.am      6 SEP2        0.0000 
      4 N          -8.0815  -27.9340   12.5050 N.am      2 SEC2        0.0000 
      5 N          -9.2770  -27.3330   13.0550 N.am     10 SEL2        0.0000 
      6 N          -6.8860  -28.5350   11.9550 N.am      6 SEP2        0.0000 
      7 O          -8.1750  -26.6765   15.0395 O.2       1 ALC1        0.0000 
      8 O          -9.3310  -26.0580   14.9430 O.2       9 ALL1        0.0000 
      9 O          -7.0190  -27.2950   15.1360 O.2       5 ALP1        0.0000 
     10 N          -8.0790  -25.5825   16.9725 N.am      2 SEC2        0.0000 
     11 N          -9.3640  -24.6700   16.7250 N.am     10 SEL2        0.0000 
     12 N          -6.7940  -26.4950   17.2200 N.am      6 SEP2        0.0000 
     13 N          -8.8730  -23.0565   16.7270 N.am      2 SEC2        0.0000 
     14 N          -8.3820  -21.4430   16.7290 N.am      6 SEP2        0.0000 
     15 N          -8.6680  -23.8990   17.7660 N.am      2 SEC2        0.0000 
     16 N          -7.9720  -23.1280   18.8070 N.am      6 SEP2        0.0000 
     17 N          -9.6250  -22.0935   16.0760 N.am      2 SEC2        0.0000 
     18 N         -10.8680  -22.7440   15.4230 N.am     10 SEL2        0.0000 
     19 CA         -9.4745  -21.8650   14.6225 C.3       4 GLC5        0.0000 
     20 CA        -11.5710  -21.8220   14.6670 C.3      12 GLL5        0.0000 
     21 CA         -7.3780  -21.9080   14.5780 C.3       8 GLP5        0.0000 
     22 CA        -13.3965  -20.6160   16.0730 C.3       4 GLC5        0.0000 
     23 CA        -11.9780  -20.6160   15.2360 C.3      12 GLL5        0.0000 
     24 CA        -14.8150  -20.6160   16.9100 C.3       8 GLP5        0.0000 
     25 CA        -12.3555  -18.7345   17.0860 C.3       4 GLC5        0.0000 
     26 CA        -12.7820  -18.2710   15.0110 C.3      12 GLL5        0.0000 
     27 CA        -11.9290  -19.1980   19.1610 C.3       8 GLP5        0.0000 
     28 CA        -10.8270  -17.5060   15.4130 C.3       4 GLC5        0.0000 
     29 CA         -8.8720  -16.7410   15.8150 C.3       8 GLP5        0.0000 
     30 CA        -13.7985  -19.4435   15.9605 C.3       4 GLC5        0.0000 
     31 CA        -12.6040  -16.5450   15.4820 C.3       4 GLC5        0.0000 
     32 CA        -12.4260  -14.8190   15.9530 C.3       8 GLP5        0.0000 
     33 CA        -13.4780  -16.9630   13.8045 C.3       4 GLC5        0.0000 
     34 CA        -14.1740  -15.6550   12.5980 C.3       8 GLP5        0.0000 
     35 CA        -14.0650  -19.2005   10.4540 C.3       4 GLC5        0.0000 
     36 CA        -13.3340  -18.8240   12.2010 C.3      12 GLL5        0.0000 
     37 CA        -14.7960  -19.5770    8.7070 C.3       8 GLP5        0.0000 
     38 CA        -12.1305  -24.3870    9.4945 C.3       4 GLC5        0.0000 
     39 CA        -12.1700  -23.8180   11.5260 C.3      12 GLL5        0.0000 
     40 CA        -12.0910  -24.9560    7.4630 C.3       8 GLP5        0.0000 
     41 CA        -13.2325  -24.3295    8.9190 C.3       4 GLC5        0.0000 
     42 CA        -14.3740  -23.7030   10.3750 C.3      12 GLL5        0.0000 
     43 CA        -14.5850  -21.6400    9.5410 C.3       4 GLC5        0.0000 
     44 CA        -16.4260  -21.1595    9.1460 C.3       4 GLC5        0.0000 
     45 CA        -16.5970  -23.1030    9.3570 C.3      12 GLL5        0.0000 
     46 CA        -16.2550  -19.2160    8.9350 C.3       8 GLP5        0.0000 
     47 N         -17.4345  -24.3585    7.4445 N.am      2 SEC2        0.0000 
     48 N         -16.3440  -23.8830    8.1950 N.am     10 SEL2        0.0000 
     49 N         -18.5250  -24.8340    6.6940 N.am      6 SEP2        0.0000 
     50 NZ        -16.3020  -21.2455    5.6555 N.4       3 LYC4        0.0000 
     51 NZ        -16.7550  -22.3160    6.2750 N.4      11 LYL4        0.0000 
     52 NZ        -14.5530  -19.9140    4.9260 N.4       7 LYP4        0.0000 
     53 NZ        -17.8140  -21.6590    6.5520 N.4       3 LYC4        0.0000 
     54 NZ        -20.0940  -21.4300    7.0870 N.4       7 LYP4        0.0000 
     55 N         -16.3020  -21.2455    5.6555 N.am      2 SEC2        0.0000 
     56 N         -16.7550  -22.3160    6.2750 N.am     10 SEL2        0.0000 
     57 N         -15.8490  -20.1750    5.0360 N.am      6 SEP2        0.0000 
     58 N         -17.8140  -21.6590    6.5520 N.am      2 SEC2        0.0000 
     59 N         -18.8730  -21.0020    6.8290 N.am      6 SEP2        0.0000 
     60 N         -13.7850  -24.2485    5.5000 N.am      2 SEC2        0.0000 
     61 N         -15.3130  -24.2920    5.8920 N.am     10 SEL2        0.0000 
     62 N         -12.2570  -24.2050    5.1080 N.am      6 SEP2        0.0000 
     63 NZ        -14.0750  -21.5795    6.3515 N.4       3 LYC4        0.0000 
     64 NZ        -14.4760  -22.4410    7.2150 N.4      11 LYL4        0.0000 
     65 N         -14.0750  -21.5795    6.3515 N.am      2 SEC2        0.0000 
     66 N         -14.4760  -22.4410    7.2150 N.am     10 SEL2        0.0000 
     67 N         -13.6740  -20.7180    5.4880 N.am      6 SEP2        0.0000 
     68 N         -15.1625  -21.3080    6.1255 N.am      2 SEC2        0.0000 
     69 CA        -10.6668  -19.7790   13.8603 C.3       4 GLC5        0.0000 
     70 CA         -9.5590  -18.3390   12.7690 C.3       8 GLP5        0.0000 
     71 CA        -10.9002  -20.9050   16.6247 C.3       4 GLC5        0.0000 
     72 CA        -10.0260  -20.5910   18.2980 C.3       8 GLP5        0.0000 
     73 CA        -11.1455  -18.6547   13.7573 C.3       4 GLC5        0.0000 
     74 CA        -12.6820  -19.6700   14.4800 C.3      12 GLL5        0.0000 
     75 CA        -11.3585  -18.8597   12.7200 C.3       4 GLC5        0.0000 
     76 CA        -12.9820  -19.9370   13.1410 C.3      12 GLL5        0.0000 
     77 CA        -15.0275  -19.3092   12.6840 C.3       4 GLC5        0.0000 
     78 CA        -16.8970  -19.2380   12.6970 C.3       8 GLP5        0.0000 
     79 CA        -13.6660  -17.5177   12.6345 C.3       4 GLC5        0.0000 
     80 CA        -14.1535  -20.2344   14.2709 C.3       4 GLC5        0.0000 
     81 CA        -15.2240  -21.1550   15.5360 C.3       8 GLP5        0.0000 
     82 CA        -10.8450  -20.3293   12.1550 C.3       4 GLC5        0.0000 
     83 CA        -12.5660  -21.1360   12.5730 C.3      12 GLL5        0.0000 
     84 CA         -9.4740  -19.0520   11.3620 C.3       8 GLP5        0.0000 
     85 CA        -13.6831  -21.3489   14.4100 C.3       4 GLC5        0.0000 
     86 CA        -17.6975  -24.0650   10.8810 C.3       4 GLC5        0.0000 
     87 CA        -15.8850  -23.7650   10.5310 C.3      12 GLL5        0.0000 
     88 CA        -19.1540  -24.6960   11.8180 C.3       8 GLP5        0.0000 
@<TRIPOS>BOND
@<TRIPOS>SUBSTRUCTURE
     1 ALC1        7 GROUP        1 X    ALC  0     ROOT ALC X 1
     2 SEC2        1 GROUP        1 X    SEC  0     **** SEC X 2
     3 LYC4       50 GROUP        1 X    LYC  0     **** LYC X 4
     4 GLC5       19 GROUP        1 X    GLC  0     **** GLC X 6
     5 ALP1        9 GROUP        1 Y    ALP  0     ROOT ALP Y 8
     6 SEP2        3 GROUP        1 Y    SEP  0     **** SEP Y 9
     7 LYP4       52 GROUP        1 Y    LYP  0     **** LYP Y 11
     8 GLP5       21 GROUP        1 Y    GLP  0     **** GLP Y 13
     9 ALL1        8 GROUP        1 Z    ALL  0     ROOT ALL Z 15
    10 SEL2        2 GROUP        1 Z    SEL  0     **** SEL Z 16
    11 LYL4       51 GROUP        1 Z    LYL  0     **** LYL Z 18
    12 GLL5       20 GROUP        1 Z    GLL  0     **** GLL Z 20
@<TRIPOS>SET

