#    Name: 2b67_FMN_3_ligand
#    Modification time : Mon Mar 24 20:18:43 2014

@<TRIPOS>MOLECULE
2b67_FMN_3_ligand
   50    52     1     0     0
SMALL
NO_CHARGES


@<TRIPOS>ATOM
      1 N1        -10.3300  -25.3550   12.8920 N.2       1 FMN803      0.0000 
      2 C2         -9.6290  -26.2960   13.6120 C.2       1 FMN803      0.0000 
      3 O2         -9.2770  -27.3330   13.0550 O.2       1 FMN803      0.0000 
      4 N3         -9.3310  -26.0580   14.9430 N.am      1 FMN803      0.0000 
      5 C4         -9.7320  -24.8910   15.5710 C.2       1 FMN803      0.0000 
      6 O4         -9.3640  -24.6700   16.7250 O.2       1 FMN803      0.0000 
      7 C4A       -10.4410  -23.9320   14.8400 C.2       1 FMN803      0.0000 
      8 N5        -10.8680  -22.7440   15.4230 N.2       1 FMN803      0.0000 
      9 C5A       -11.5710  -21.8220   14.6670 C.ar      1 FMN803      0.0000 
     10 C6        -11.9780  -20.6160   15.2360 C.ar      1 FMN803      0.0000 
     11 C7        -12.6820  -19.6700   14.4800 C.ar      1 FMN803      0.0000 
     12 C7M       -12.7820  -18.2710   15.0110 C.3       1 FMN803      0.0000 
     13 C8        -12.9820  -19.9370   13.1410 C.ar      1 FMN803      0.0000 
     14 C8M       -13.3340  -18.8240   12.2010 C.3       1 FMN803      0.0000 
     15 C9        -12.5660  -21.1360   12.5730 C.ar      1 FMN803      0.0000 
     16 C9A       -11.8660  -22.0770   13.3230 C.ar      1 FMN803      0.0000 
     17 N10       -11.4640  -23.2770   12.7400 N.pl3     1 FMN803      0.0000 
     18 C10       -10.7360  -24.1850   13.4950 C.2       1 FMN803      0.0000 
     19 C1'       -12.1700  -23.8180   11.5260 C.3       1 FMN803      0.0000 
     20 C2'       -13.6780  -23.8340   11.7230 C.3       1 FMN803      0.0000 
     21 O2'       -14.0780  -25.0080   12.4010 O.3       1 FMN803      0.0000 
     22 C3'       -14.3740  -23.7030   10.3750 C.3       1 FMN803      0.0000 
     23 O3'       -14.0130  -22.4720    9.7840 O.3       1 FMN803      0.0000 
     24 C4'       -15.8850  -23.7650   10.5310 C.3       1 FMN803      0.0000 
     25 O4'       -16.2480  -25.1300   10.6220 O.3       1 FMN803      0.0000 
     26 C5'       -16.5970  -23.1030    9.3570 C.3       1 FMN803      0.0000 
     27 O5'       -16.3440  -23.8830    8.1950 O.3       1 FMN803      0.0000 
     28 P         -15.7160  -23.2200    6.8680 P.3       1 FMN803      0.0000 
     29 O1P       -16.7550  -22.3160    6.2750 O.co2     1 FMN803      0.0000 
     30 O2P       -15.3130  -24.2920    5.8920 O.co2     1 FMN803      0.0000 
     31 O3P       -14.4760  -22.4410    7.2150 O.co2     1 FMN803      0.0000 
     32 H          -8.7965  -26.7684   15.4806 H         1 FMN803      0.0000 
     33 H         -11.7599  -20.4156   16.2235 H         1 FMN803      0.0000 
     34 H         -12.7791  -21.3321   11.5801 H         1 FMN803      0.0000 
     35 H         -11.8262  -24.8372   11.3242 H         1 FMN803      0.0000 
     36 H         -11.9309  -23.1996   10.6554 H         1 FMN803      0.0000 
     37 H         -13.9338  -22.9409   12.3069 H         1 FMN803      0.0000 
     38 H         -14.0646  -24.5372    9.7564 H         1 FMN803      0.0000 
     39 H         -16.1480  -23.2342   11.4362 H         1 FMN803      0.0000 
     40 H         -16.2121  -22.0879    9.2605 H         1 FMN803      0.0000 
     41 H         -17.6597  -23.0540    9.5938 H         1 FMN803      0.0000 
     42 H         -11.8811  -17.8538   15.1304 H         1 FMN803      0.0000 
     43 H         -13.3011  -17.6768   14.3966 H         1 FMN803      0.0000 
     44 H         -13.2382  -18.2431   15.9005 H         1 FMN803      0.0000 
     45 H         -12.5938  -18.1562   12.1223 H         1 FMN803      0.0000 
     46 H         -13.5228  -19.1622   11.2791 H         1 FMN803      0.0000 
     47 H         -14.1471  -18.3261   12.5028 H         1 FMN803      0.0000 
     48 H         -14.8565  -25.3559   11.8786 H         1 FMN803      0.0000 
     49 H         -14.2745  -22.5600    8.8228 H         1 FMN803      0.0000 
     50 H         -16.1237  -25.4928    9.6985 H         1 FMN803      0.0000 
@<TRIPOS>BOND
     1    2    1 1    
     2   18    1 2    
     3    3    2 2    
     4    4    2 am   
     5    5    4 am   
     6   32    4 1    
     7    6    5 2    
     8    7    5 1    
     9    8    7 2    
    10   18    7 1    
    11    9    8 1    
    12   10    9 ar   
    13   16    9 ar   
    14   11   10 ar   
    15   33   10 1    
    16   12   11 1    
    17   13   11 ar   
    18   42   12 1    
    19   43   12 1    
    20   44   12 1    
    21   14   13 1    
    22   15   13 ar   
    23   45   14 1    
    24   46   14 1    
    25   47   14 1    
    26   16   15 ar   
    27   34   15 1    
    28   17   16 1    
    29   18   17 1    
    30   19   17 1    
    31   20   19 1    
    32   35   19 1    
    33   36   19 1    
    34   21   20 1    
    35   22   20 1    
    36   37   20 1    
    37   48   21 1    
    38   23   22 1    
    39   24   22 1    
    40   38   22 1    
    41   49   23 1    
    42   25   24 1    
    43   26   24 1    
    44   39   24 1    
    45   50   25 1    
    46   27   26 1    
    47   40   26 1    
    48   41   26 1    
    49   28   27 1    
    50   29   28 ar   
    51   30   28 ar   
    52   31   28 ar   
@<TRIPOS>SUBSTRUCTURE
     1 FMN803      1 GROUP   
@<TRIPOS>SET

