#    Name: 3gga_GGW_1_INTS_M
#    Modification time : Tue Mar 25 12:26:44 2014

@<TRIPOS>MOLECULE
3gga_GGW_1_INTS_M
  110     0     9     0     0
SMALL
NO_CHARGES


@<TRIPOS>ATOM
      1 CA         27.0045    9.4950    5.7955 C.3       3 GLC5        0.0000 
      2 CA         28.2600   10.1980    4.2880 C.3       9 GLL5        0.0000 
      3 CA         25.7490    8.7920    7.3030 C.3       6 GLP5        0.0000 
      4 N          26.5685    7.1325    5.3135 N.am      2 SEC2        0.0000 
      5 N          27.2160    7.7930    4.1620 N.am      8 SEL2        0.0000 
      6 N          25.9210    6.4720    6.4650 N.am      5 SEP2        0.0000 
      7 O          27.0600    8.9945    0.8055 O.2       1 ALC1        0.0000 
      8 O          26.9280    7.9800    1.8930 O.2       7 ALL1        0.0000 
      9 O          27.1920   10.0090   -0.2820 O.2       4 ALP1        0.0000 
     10 CA         26.3690    5.5145    3.5260 C.3       3 GLC5        0.0000 
     11 CA         26.4310    6.6240    1.8170 C.3       9 GLL5        0.0000 
     12 CA         26.3070    4.4050    5.2350 C.3       6 GLP5        0.0000 
     13 O          28.5875    4.8420    2.8130 O.2       1 ALC1        0.0000 
     14 O          28.2370    5.1430    1.3500 O.2       7 ALL1        0.0000 
     15 O          28.9380    4.5410    4.2760 O.2       4 ALP1        0.0000 
     16 N          27.8165    0.7480    2.4805 N.am      2 SEC2        0.0000 
     17 N          28.2900    1.2740    1.2840 N.am      8 SEL2        0.0000 
     18 N          27.3430    0.2220    3.6770 N.am      5 SEP2        0.0000 
     19 O          29.5985    1.1820    1.5485 O.2       1 ALC1        0.0000 
     20 O          28.2900    1.2740    1.2840 O.2       7 ALL1        0.0000 
     21 O          30.9070    1.0900    1.8130 O.2       4 ALP1        0.0000 
     22 CA         23.9060    3.5900   -2.9545 C.3       3 GLC5        0.0000 
     23 CA         25.2950    1.9820   -3.1290 C.3       9 GLL5        0.0000 
     24 CA         22.5170    5.1980   -2.7800 C.3       6 GLP5        0.0000 
     25 CA         25.2335   -1.4535   -1.2960 C.3       3 GLC5        0.0000 
     26 CA         25.9920   -0.2490   -2.7060 C.3       9 GLL5        0.0000 
     27 CA         24.4750   -2.6580    0.1140 C.3       6 GLP5        0.0000 
     28 O          28.4420   -0.1670   -1.1095 O.2       1 ALC1        0.0000 
     29 O          28.6210    1.2680   -1.5870 O.2       7 ALL1        0.0000 
     30 O          28.2630   -1.6020   -0.6320 O.2       4 ALP1        0.0000 
     31 O          28.8800    0.7110   -5.6330 O.2       1 ALC1        0.0000 
     32 O          29.2110   -0.0090   -4.5030 O.2       7 ALL1        0.0000 
     33 O          28.5490    1.4310   -6.7630 O.2       4 ALP1        0.0000 
     34 N          30.4095   -3.2250   -3.1230 N.am      2 SEC2        0.0000 
     35 N          29.5110   -2.2340   -3.9480 N.am      8 SEL2        0.0000 
     36 N          31.3080   -4.2160   -2.2980 N.am      5 SEP2        0.0000 
     37 CA         31.9785    3.6145   -3.4735 C.3       3 GLC5        0.0000 
     38 CA         31.9850    1.7840   -2.6350 C.3       9 GLL5        0.0000 
     39 CA         31.9720    5.4450   -4.3120 C.3       6 GLP5        0.0000 
     40 CA         33.1075    2.9215   -1.5715 C.3       3 GLC5        0.0000 
     41 CA         34.2300    4.0590   -0.5080 C.3       6 GLP5        0.0000 
     42 CA         34.3885    0.4030   -4.2220 C.3       3 GLC5        0.0000 
     43 CA         32.2590   -0.2030   -4.0150 C.3       9 GLL5        0.0000 
     44 CA         36.5180    1.0090   -4.4290 C.3       6 GLP5        0.0000 
     45 CA         31.6750    3.6595   -4.6545 C.3       3 GLC5        0.0000 
     46 CA         31.3780    1.8740   -4.9970 C.3       9 GLL5        0.0000 
     47 CA         33.0760    1.9280   -6.0320 C.3       3 GLC5        0.0000 
     48 CA         34.7740    1.9820   -7.0670 C.3       6 GLP5        0.0000 
     49 CA         29.4705    2.9365   -5.5145 C.3       3 GLC5        0.0000 
     50 CA         27.5630    3.9990   -6.0320 C.3       6 GLP5        0.0000 
     51 CA         31.7620    5.0250    2.9445 C.3       3 GLC5        0.0000 
     52 CA         30.6560    5.1590    1.0620 C.3       9 GLL5        0.0000 
     53 CA         32.8680    4.8910    4.8270 C.3       6 GLP5        0.0000 
     54 CA         32.4430    4.6090    0.2770 C.3       3 GLC5        0.0000 
     55 CA         31.7950    6.1680    3.4060 C.3       3 GLC5        0.0000 
     56 CA         30.7220    7.4450    1.9850 C.3       9 GLL5        0.0000 
     57 CA         31.4960    6.3210   -2.3350 C.3       3 GLC5        0.0000 
     58 CA         31.0200    7.1970   -0.3580 C.3       9 GLL5        0.0000 
     59 CA         32.6250    5.6280   -0.4330 C.3       3 GLC5        0.0000 
     60 CA         32.8480   10.9995   -0.3530 C.3       3 GLC5        0.0000 
     61 CA         31.2090   10.8440    0.5090 C.3       9 GLL5        0.0000 
     62 CA         34.4870   11.1550   -1.2150 C.3       6 GLP5        0.0000 
     63 CA         28.4775   11.6400   -1.1135 C.3       3 GLC5        0.0000 
     64 CA         30.6320   11.5360   -0.5410 C.3       9 GLL5        0.0000 
     65 CA         26.3230   11.7440   -1.6860 C.3       6 GLP5        0.0000 
     66 CA         29.4700   10.0845   -1.5000 C.3       3 GLC5        0.0000 
     67 CA         28.3080    8.6330   -2.4590 C.3       6 GLP5        0.0000 
     68 CA         22.8835    8.3370    0.1755 C.3       3 GLC5        0.0000 
     69 CA         24.6290    7.4630    0.2450 C.3       9 GLL5        0.0000 
     70 CA         21.1380    9.2110    0.1060 C.3       6 GLP5        0.0000 
     71 CA         23.7425    7.0380   -1.4755 C.3       3 GLC5        0.0000 
     72 CA         22.8560    6.6130   -3.1960 C.3       6 GLP5        0.0000 
     73 CA         22.3005    5.1080    0.9980 C.3       3 GLC5        0.0000 
     74 CA         24.4770    5.1790    1.1870 C.3       9 GLL5        0.0000 
     75 CA         20.1240    5.0370    0.8090 C.3       6 GLP5        0.0000 
     76 CA         23.3815    3.6950    0.3700 C.3       3 GLC5        0.0000 
     77 CA         22.2860    2.2110   -0.4470 C.3       6 GLP5        0.0000 
     78 CA         23.4970    5.1885   -0.7965 C.3       3 GLC5        0.0000 
     79 CA         22.7055    7.8120    4.1635 C.3       3 GLC5        0.0000 
     80 CA         24.1470    7.0890    2.6280 C.3       9 GLL5        0.0000 
     81 CA         21.2640    8.5350    5.6990 C.3       6 GLP5        0.0000 
     82 CA         22.6425    8.1500    1.3670 C.3       3 GLC5        0.0000 
     83 CA         23.7993    0.4665   -2.8545 C.3       3 GLC5        0.0000 
     84 CA         25.8400    1.0540   -2.2710 C.3       9 GLL5        0.0000 
     85 CA         22.0310   -0.5850   -3.0090 C.3       6 GLP5        0.0000 
     86 CA         23.9799    1.9136   -1.4005 C.3       3 GLC5        0.0000 
     87 CA         26.3338    2.8982   -4.8985 C.3       3 GLC5        0.0000 
     88 CA         23.5440    1.6427   -5.6545 C.3       3 GLC5        0.0000 
     89 CA         24.9140    1.6130   -4.4010 C.3       9 GLL5        0.0000 
     90 CA         22.0960    2.3230   -6.6930 C.3       6 GLP5        0.0000 
     91 CA         23.5115    0.1888   -3.8125 C.3       3 GLC5        0.0000 
     92 CA         23.9170   -0.5100   -3.1755 C.3       3 GLC5        0.0000 
     93 CA         25.6140   -0.6210   -3.9780 C.3       9 GLL5        0.0000 
     94 CA         31.9139   -0.4536   -2.0009 C.3       3 GLC5        0.0000 
     95 CA         32.0330   -1.4400   -0.4410 C.3       6 GLP5        0.0000 
     96 CA         32.7170    7.6355    1.7075 C.3       3 GLC5        0.0000 
     97 CA         34.6450    7.1450    1.4980 C.3       6 GLP5        0.0000 
     98 CA         32.3790    9.8140   -1.1420 C.3       3 GLC5        0.0000 
     99 CA         31.1560    8.5660   -0.4790 C.3       9 GLL5        0.0000 
    100 CA         33.6430   10.6470   -2.3550 C.3       6 GLP5        0.0000 
    101 CA         32.8800    8.0630    0.7845 C.3       3 GLC5        0.0000 
    102 CA         29.6878    8.3610   -1.3013 C.3       3 GLC5        0.0000 
    103 CA         31.0740    9.3960    0.6210 C.3       9 GLL5        0.0000 
    104 CA         32.7595    6.8455    0.9025 C.3       3 GLC5        0.0000 
    105 CA         32.1753   11.4340   -1.4688 C.3       3 GLC5        0.0000 
    106 CA         33.1337   12.1608   -0.1783 C.3       3 GLC5        0.0000 
    107 CA         31.5120   13.5490    0.3520 C.3       9 GLL5        0.0000 
    108 CA         24.7767    5.1116    3.2760 C.3       3 GLC5        0.0000 
    109 CA         24.9470    6.5920    1.4490 C.3       9 GLL5        0.0000 
    110 CA         25.1240    3.7360    4.5790 C.3       6 GLP5        0.0000 
@<TRIPOS>BOND
@<TRIPOS>SUBSTRUCTURE
     1 ALC1        7 GROUP        1 X    ALC  0     ROOT ALC X 1
     2 SEC2        4 GROUP        1 X    SEC  0     **** SEC X 2
     3 GLC5        1 GROUP        1 X    GLC  0     **** GLC X 6
     4 ALP1        9 GROUP        1 Y    ALP  0     ROOT ALP Y 8
     5 SEP2        6 GROUP        1 Y    SEP  0     **** SEP Y 9
     6 GLP5        3 GROUP        1 Y    GLP  0     **** GLP Y 13
     7 ALL1        8 GROUP        1 Z    ALL  0     ROOT ALL Z 15
     8 SEL2        5 GROUP        1 Z    SEL  0     **** SEL Z 16
     9 GLL5        2 GROUP        1 Z    GLL  0     **** GLL Z 20
@<TRIPOS>SET

