#    Name: 3gga_GGW_1_ligand
#    Modification time : Tue Mar 25 12:26:44 2014

@<TRIPOS>MOLECULE
3gga_GGW_1_ligand
  104   106     1     0     0
SMALL
NO_CHARGES


@<TRIPOS>ATOM
      1 C1         28.2600   10.1980    4.2880 C.3       1 GGW100      0.0000 
      2 O2         27.9000    9.6670    3.0180 O.3       1 GGW100      0.0000 
      3 C3         27.3400    8.4280    3.1200 C.2       1 GGW100      0.0000 
      4 O4         27.2160    7.7930    4.1620 O.2       1 GGW100      0.0000 
      5 N5         26.9280    7.9800    1.8930 N.am      1 GGW100      0.0000 
      6 C6         26.4310    6.6240    1.8170 C.3       1 GGW100      0.0000 
      7 C7         27.3330    5.9980    0.7870 C.2       1 GGW100      0.0000 
      8 O8         27.2690    6.2370   -0.4070 O.2       1 GGW100      0.0000 
      9 N9         28.2370    5.1430    1.3500 N.am      1 GGW100      0.0000 
     10 C10        29.3320    4.6570    0.5500 C.3       1 GGW100      0.0000 
     11 C11        29.4180    3.1530    0.5420 C.3       1 GGW100      0.0000 
     12 C12        28.0820    2.4480    0.5160 C.3       1 GGW100      0.0000 
     13 O13        28.2900    1.2740    1.2840 O.3       1 GGW100      0.0000 
     14 C14        27.6440    2.0920   -0.9000 C.3       1 GGW100      0.0000 
     15 C15        26.2650    1.4470   -0.8870 C.3       1 GGW100      0.0000 
     16 C16        25.8400    1.0540   -2.2710 C.ar      1 GGW100      0.0000 
     17 C17        25.2950    1.9820   -3.1290 C.ar      1 GGW100      0.0000 
     18 C18        24.9140    1.6130   -4.4010 C.ar      1 GGW100      0.0000 
     19 C19        25.0700    0.3120   -4.8310 C.ar      1 GGW100      0.0000 
     20 C20        25.6140   -0.6210   -3.9780 C.ar      1 GGW100      0.0000 
     21 C21        25.9920   -0.2490   -2.7060 C.ar      1 GGW100      0.0000 
     22 N22        28.6210    1.2680   -1.5870 N.am      1 GGW100      0.0000 
     23 C23        29.1370    1.6270   -2.8200 C.2       1 GGW100      0.0000 
     24 O24        28.9650    2.6970   -3.3970 O.2       1 GGW100      0.0000 
     25 C25        29.9780    0.5100   -3.3880 C.3       1 GGW100      0.0000 
     26 N26        29.2110   -0.0090   -4.5030 N.am      1 GGW100      0.0000 
     27 C27        29.0460   -1.3650   -4.6720 C.2       1 GGW100      0.0000 
     28 O28        29.5110   -2.2340   -3.9480 O.2       1 GGW100      0.0000 
     29 O29        28.2970   -1.6220   -5.7850 O.3       1 GGW100      0.0000 
     30 C30        27.9440   -3.0020   -5.8830 C.3       1 GGW100      0.0000 
     31 C31        31.3740    0.9970   -3.7680 C.3       1 GGW100      0.0000 
     32 C32        31.9850    1.7840   -2.6350 C.3       1 GGW100      0.0000 
     33 C33        32.2590   -0.2030   -4.0150 C.3       1 GGW100      0.0000 
     34 C34        31.3780    1.8740   -4.9970 C.3       1 GGW100      0.0000 
     35 C35        30.6560    5.1590    1.0620 C.3       1 GGW100      0.0000 
     36 C36        30.8000    6.6310    0.8820 C.ar      1 GGW100      0.0000 
     37 C37        30.7220    7.4450    1.9850 C.ar      1 GGW100      0.0000 
     38 C38        30.8560    8.8070    1.8490 C.ar      1 GGW100      0.0000 
     39 C39        31.0740    9.3960    0.6210 C.ar      1 GGW100      0.0000 
     40 C40        31.1560    8.5660   -0.4790 C.ar      1 GGW100      0.0000 
     41 C41        31.0200    7.1970   -0.3580 C.ar      1 GGW100      0.0000 
     42 C42        31.2090   10.8440    0.5090 C.ar      1 GGW100      0.0000 
     43 C43        30.6320   11.5360   -0.5410 C.ar      1 GGW100      0.0000 
     44 C44        30.7830   12.9060   -0.6240 C.ar      1 GGW100      0.0000 
     45 C45        31.5120   13.5490    0.3520 C.ar      1 GGW100      0.0000 
     46 C46        32.0490   12.7840    1.3650 C.ar      1 GGW100      0.0000 
     47 N47        31.9200   11.4550    1.4750 N.ar      1 GGW100      0.0000 
     48 C48        24.9470    6.5920    1.4490 C.3       1 GGW100      0.0000 
     49 C49        24.6290    7.4630    0.2450 C.3       1 GGW100      0.0000 
     50 C50        24.4770    5.1790    1.1870 C.3       1 GGW100      0.0000 
     51 C51        24.1470    7.0890    2.6280 C.3       1 GGW100      0.0000 
     52 H          26.9553    8.5401    1.0610 H         1 GGW100      0.0000 
     53 H          26.5897    6.1282    2.7555 H         1 GGW100      0.0000 
     54 H          28.1680    4.8336    2.3172 H         1 GGW100      0.0000 
     55 H          29.2377    4.9867   -0.4848 H         1 GGW100      0.0000 
     56 H          29.9836    2.8177    1.4352 H         1 GGW100      0.0000 
     57 H          30.0123    2.8288   -0.3365 H         1 GGW100      0.0000 
     58 H          27.3530    3.0825    0.9723 H         1 GGW100      0.0000 
     59 H          27.5348    3.0553   -1.4470 H         1 GGW100      0.0000 
     60 H          25.5462    2.1553   -0.4657 H         1 GGW100      0.0000 
     61 H          26.2928    0.5637   -0.2430 H         1 GGW100      0.0000 
     62 H          25.1705    2.9611   -2.8184 H         1 GGW100      0.0000 
     63 H          24.5064    2.3194   -5.0406 H         1 GGW100      0.0000 
     64 H          24.7820    0.0427   -5.7809 H         1 GGW100      0.0000 
     65 H          25.7389   -1.5966   -4.2892 H         1 GGW100      0.0000 
     66 H          26.3973   -0.9572   -2.0634 H         1 GGW100      0.0000 
     67 H          28.9205    0.3975   -1.1207 H         1 GGW100      0.0000 
     68 H          30.0654   -0.2515   -2.6169 H         1 GGW100      0.0000 
     69 H          28.7994    0.6677   -5.1558 H         1 GGW100      0.0000 
     70 H          31.4670    4.6395    0.5306 H         1 GGW100      0.0000 
     71 H          30.7484    4.9052    2.1284 H         1 GGW100      0.0000 
     72 H          30.5621    7.0338    2.9210 H         1 GGW100      0.0000 
     73 H          30.7912    9.4133    2.6976 H         1 GGW100      0.0000 
     74 H          31.3238    8.9803   -1.4192 H         1 GGW100      0.0000 
     75 H          31.0829    6.5969   -1.1950 H         1 GGW100      0.0000 
     76 H          30.0924   11.0303   -1.2570 H         1 GGW100      0.0000 
     77 H          30.3622   13.4305   -1.3939 H         1 GGW100      0.0000 
     78 H          31.6500   14.5572    0.3263 H         1 GGW100      0.0000 
     79 H          32.6107   13.3071    2.1155 H         1 GGW100      0.0000 
     80 H          28.9257    9.6183    4.7578 H         1 GGW100      0.0000 
     81 H          28.6680   11.1075    4.2082 H         1 GGW100      0.0000 
     82 H          27.4681   10.2841    4.8926 H         1 GGW100      0.0000 
     83 H          28.7518   -3.5892   -5.9347 H         1 GGW100      0.0000 
     84 H          27.4108   -3.3059   -5.0935 H         1 GGW100      0.0000 
     85 H          27.3940   -3.1877   -6.6972 H         1 GGW100      0.0000 
     86 H          32.9001    2.1156   -2.8643 H         1 GGW100      0.0000 
     87 H          31.4338    2.5843   -2.3991 H         1 GGW100      0.0000 
     88 H          32.0723    1.2332   -1.8049 H         1 GGW100      0.0000 
     89 H          33.1883    0.0666   -4.2674 H         1 GGW100      0.0000 
     90 H          32.3323   -0.7836   -3.2041 H         1 GGW100      0.0000 
     91 H          31.9088   -0.7766   -4.7555 H         1 GGW100      0.0000 
     92 H          32.3007    2.1794   -5.2323 H         1 GGW100      0.0000 
     93 H          31.0150    1.3950   -5.7962 H         1 GGW100      0.0000 
     94 H          30.8212    2.6948   -4.8694 H         1 GGW100      0.0000 
     95 H          24.8626    8.4216    0.4080 H         1 GGW100      0.0000 
     96 H          25.1342    7.1723   -0.5675 H         1 GGW100      0.0000 
     97 H          23.6570    7.4338    0.0118 H         1 GGW100      0.0000 
     98 H          24.9822    4.7527    0.4366 H         1 GGW100      0.0000 
     99 H          24.5946    4.5937    1.9893 H         1 GGW100      0.0000 
    100 H          23.5079    5.1494    0.9420 H         1 GGW100      0.0000 
    101 H          24.2925    6.5241    3.4402 H         1 GGW100      0.0000 
    102 H          24.3928    8.0263    2.8750 H         1 GGW100      0.0000 
    103 H          23.1650    7.0835    2.4393 H         1 GGW100      0.0000 
    104 H          29.2755    1.2456    1.4513 H         1 GGW100      0.0000 
@<TRIPOS>BOND
     1    2    1 1    
     2   80    1 1    
     3   81    1 1    
     4   82    1 1    
     5    3    2 1    
     6    4    3 2    
     7    5    3 am   
     8    6    5 1    
     9   52    5 1    
    10    7    6 1    
    11   48    6 1    
    12   53    6 1    
    13    8    7 2    
    14    9    7 am   
    15   10    9 1    
    16   54    9 1    
    17   11   10 1    
    18   35   10 1    
    19   55   10 1    
    20   12   11 1    
    21   56   11 1    
    22   57   11 1    
    23   13   12 1    
    24   14   12 1    
    25   58   12 1    
    26  104   13 1    
    27   15   14 1    
    28   22   14 1    
    29   59   14 1    
    30   16   15 1    
    31   60   15 1    
    32   61   15 1    
    33   17   16 ar   
    34   21   16 ar   
    35   18   17 ar   
    36   62   17 1    
    37   19   18 ar   
    38   63   18 1    
    39   20   19 ar   
    40   64   19 1    
    41   21   20 ar   
    42   65   20 1    
    43   66   21 1    
    44   23   22 am   
    45   67   22 1    
    46   24   23 2    
    47   25   23 1    
    48   26   25 1    
    49   31   25 1    
    50   68   25 1    
    51   27   26 am   
    52   69   26 1    
    53   28   27 2    
    54   29   27 1    
    55   30   29 1    
    56   83   30 1    
    57   84   30 1    
    58   85   30 1    
    59   32   31 1    
    60   33   31 1    
    61   34   31 1    
    62   86   32 1    
    63   87   32 1    
    64   88   32 1    
    65   89   33 1    
    66   90   33 1    
    67   91   33 1    
    68   92   34 1    
    69   93   34 1    
    70   94   34 1    
    71   36   35 1    
    72   70   35 1    
    73   71   35 1    
    74   37   36 ar   
    75   41   36 ar   
    76   38   37 ar   
    77   72   37 1    
    78   39   38 ar   
    79   73   38 1    
    80   40   39 ar   
    81   42   39 1    
    82   41   40 ar   
    83   74   40 1    
    84   75   41 1    
    85   43   42 ar   
    86   47   42 ar   
    87   44   43 ar   
    88   76   43 1    
    89   45   44 ar   
    90   77   44 1    
    91   46   45 ar   
    92   78   45 1    
    93   47   46 ar   
    94   79   46 1    
    95   49   48 1    
    96   50   48 1    
    97   51   48 1    
    98   95   49 1    
    99   96   49 1    
   100   97   49 1    
   101   98   50 1    
   102   99   50 1    
   103  100   50 1    
   104  101   51 1    
   105  102   51 1    
   106  103   51 1    
@<TRIPOS>SUBSTRUCTURE
     1 GGW100      1 GROUP   
@<TRIPOS>SET

