#    Name: 1QHI_2_CAVITY_N1_6.mol2
#    Modification time : Tue Mar 11 03:42:01 2014

@<TRIPOS>MOLECULE
1QHI_2_CAVITY_N1_6.mol2
   63     0     6     0     0
SMALL
NO_CHARGES


@<TRIPOS>ATOM
      1 N          24.6286   96.2169   44.5738 N.2       2 ALA2        0.0000 
      2 CZ         22.5507   96.4496   44.2160 C.ar      4 PHE5        0.0000 
      3 N          23.3855   95.5322   45.0594 N.2       2 ALA2        0.0000 
      4 N          24.2203   94.6147   45.9028 N.2       2 ALA2        0.0000 
      5 CZ         19.6380   97.5999   43.0147 C.ar      4 PHE5        0.0000 
      6 CZ         20.4728   96.6824   43.8582 C.ar      4 PHE5        0.0000 
      7 CA         21.3076   95.7650   44.7016 C.3       5 GLY6        0.0000 
      8 OG         18.3949   96.9152   43.5004 O.2       1 SER1        0.0000 
      9 CZ         19.2297   95.9977   44.3438 C.ar      4 PHE5        0.0000 
     10 CA         20.0645   95.0803   45.1872 C.3       5 GLY6        0.0000 
     11 CA         17.1517   96.2305   43.9860 C.3       5 GLY6        0.0000 
     12 CZ         17.9865   95.3130   44.8294 C.ar      4 PHE5        0.0000 
     13 CZ         18.8213   94.3956   45.6728 C.ar      4 PHE5        0.0000 
     14 O          15.9086   95.5458   44.4716 O.2       2 ALA2        0.0000 
     15 CZ         16.7434   94.6283   45.3151 C.ar      4 PHE5        0.0000 
     16 CA         23.4735   94.5629   43.9180 C.3       5 GLY6        0.0000 
     17 CZ         21.3956   94.7957   43.5602 C.ar      4 PHE5        0.0000 
     18 CZ         22.2304   93.8782   44.4036 C.ar      4 PHE5        0.0000 
     19 CA         23.0652   92.9608   45.2470 C.3       5 GLY6        0.0000 
     20 CZ         19.3176   95.0285   43.2024 C.ar      4 PHE5        0.0000 
     21 CZ         20.1524   94.1110   44.0458 C.ar      4 PHE5        0.0000 
     22 CA         20.9872   93.1935   44.8892 C.3       5 GLY6        0.0000 
     23 CA         21.8220   92.2761   45.7327 C.3       5 GLY6        0.0000 
     24 O          18.0745   94.3438   43.6880 O.2       2 ALA2        0.0000 
     25 CZ         18.9093   93.4263   44.5314 C.ar      4 PHE5        0.0000 
     26 CZ         19.7441   92.5089   45.3749 C.ar      4 PHE5        0.0000 
     27 CZ         22.3183   92.9090   43.2622 C.ar      4 PHE5        0.0000 
     28 CA         23.1531   91.9915   44.1056 C.3       5 GLY6        0.0000 
     29 O          20.2404   93.1417   42.9044 O.2       2 ALA2        0.0000 
     30 DU         21.0752   92.2243   43.7478 H         6 CUB7        0.0000 
     31 CA         21.9100   91.3068   44.5913 C.3       5 GLY6        0.0000 
     32 CA         18.9973   92.4571   43.3900 C.3       5 GLY6        0.0000 
     33 CZ         19.8321   91.5396   44.2335 C.ar      4 PHE5        0.0000 
     34 CZ         20.6669   90.6221   45.0769 C.ar      4 PHE5        0.0000 
     35 CA         21.1632   91.2550   42.6064 C.3       5 GLY6        0.0000 
     36 CA         21.9980   90.3376   43.4499 C.3       5 GLY6        0.0000 
     37 CA         19.9200   90.5703   43.0921 C.3       5 GLY6        0.0000 
     38 CZ         20.7548   89.6529   43.9355 C.ar      4 PHE5        0.0000 
     39 O          22.7831   99.9903   45.1697 O.2       2 ALA2        0.0000 
     40 CZ         21.5400   99.3056   45.6553 C.ar      4 PHE5        0.0000 
     41 CA         22.3748   98.3882   46.4988 C.3       5 GLY6        0.0000 
     42 OG         19.4621   99.5384   45.2975 O.2       1 SER1        0.0000 
     43 CA         20.2969   98.6209   46.1410 C.3       5 GLY6        0.0000 
     44 CA         21.1317   97.7035   46.9844 C.3       5 GLY6        0.0000 
     45 CA         18.2189   98.8537   45.7832 C.3       5 GLY6        0.0000 
     46 CA         19.0537   97.9362   46.6266 C.3       5 GLY6        0.0000 
     47 CA         16.9758   98.1690   46.2688 C.3       5 GLY6        0.0000 
     48 CZ         22.8711   99.0211   44.0283 C.ar      4 PHE5        0.0000 
     49 CZ         23.7059   98.1036   44.8717 C.ar      4 PHE5        0.0000 
     50 CA         24.5407   97.1861   45.7152 C.3       5 GLY6        0.0000 
     51 CZ         20.7931   99.2538   43.6705 C.ar      4 PHE5        0.0000 
     52 CZ         21.6280   98.3364   44.5139 C.ar      4 PHE5        0.0000 
     53 CZ         22.4628   97.4189   45.3574 C.ar      4 PHE5        0.0000 
     54 CA         23.2976   96.5014   46.2008 C.3       5 GLY6        0.0000 
     55 O          19.5500   98.5691   44.1561 O.2       2 ALA2        0.0000 
     56 CZ         20.3848   97.6517   44.9996 C.ar      4 PHE5        0.0000 
     57 CA         21.2196   96.7342   45.8430 C.3       5 GLY6        0.0000 
     58 CA         17.4721   98.8019   43.7983 C.3       5 GLY6        0.0000 
     59 CA         18.3069   97.8844   44.6418 C.3       5 GLY6        0.0000 
     60 CA         19.1417   96.9670   45.4852 C.3       5 GLY6        0.0000 
     61 OD1        17.0638   97.1998   45.1274 O.3       3 ASP3        0.0000 
     62 CA         17.8986   96.2823   45.9708 C.3       5 GLY6        0.0000 
     63 CA         18.7334   95.3648   46.8143 C.3       5 GLY6        0.0000 
@<TRIPOS>BOND
@<TRIPOS>SUBSTRUCTURE
     1 SER1        8 GROUP   
     2 ALA2        1 GROUP   
     3 ASP3       61 GROUP   
     4 PHE5        2 GROUP   
     5 GLY6        7 GROUP   
     6 CUB7       30 GROUP   
@<TRIPOS>SET

