#    Name: 1qhi_BPG_2_INTS_M
#    Modification time : Mon Mar 24 23:28:16 2014

@<TRIPOS>MOLECULE
1qhi_BPG_2_INTS_M
   51     0     9     0     0
SMALL
NO_CHARGES


@<TRIPOS>ATOM
      1 CA         17.3765   94.4575   46.4315 C.3       3 GLC5        0.0000 
      2 CA         17.6120   95.7470   45.0190 C.3       9 GLL5        0.0000 
      3 CA         17.1410   93.1680   47.8440 C.3       6 GLP5        0.0000 
      4 CA         16.8630   97.6985   43.3520 C.3       3 GLC5        0.0000 
      5 CA         17.4810   97.1650   45.4470 C.3       9 GLL5        0.0000 
      6 CA         16.2450   98.2320   41.2570 C.3       6 GLP5        0.0000 
      7 CA         16.2615   98.0810   46.8640 C.3       3 GLC5        0.0000 
      8 CA         15.0420   98.9970   48.2810 C.3       6 GLP5        0.0000 
      9 CA         19.9840   96.2010   46.7185 C.3       3 GLC5        0.0000 
     10 CA         18.8590   97.6520   45.6240 C.3       9 GLL5        0.0000 
     11 CA         21.1090   94.7500   47.8130 C.3       6 GLP5        0.0000 
     12 CA         18.2680   98.6240   42.7825 C.3       3 GLC5        0.0000 
     13 CA         19.4240   97.7930   44.2480 C.3       9 GLL5        0.0000 
     14 CA         17.1120   99.4550   41.3170 C.3       6 GLP5        0.0000 
     15 CA         20.5360   97.6670   42.7730 C.3       3 GLC5        0.0000 
     16 CA         21.6480   97.5410   41.2980 C.3       6 GLP5        0.0000 
     17 CA         21.5315   96.0465   46.2220 C.3       3 GLC5        0.0000 
     18 CA         21.9540   97.3430   44.6310 C.3       9 GLL5        0.0000 
     19 O          25.5460   95.5250   45.0295 O.2       1 ALC1        0.0000 
     20 O          24.2650   96.1940   44.9050 O.2       7 ALL1        0.0000 
     21 O          26.8270   94.8560   45.1540 O.2       4 ALP1        0.0000 
     22 N          26.4335   97.4430   45.6575 N.am      2 SEC2        0.0000 
     23 N          25.3900   98.1970   45.0170 N.am      8 SEL2        0.0000 
     24 N          27.4770   96.6890   46.2980 N.am      5 SEP2        0.0000 
     25 N          25.7985   99.6515   44.5630 N.am      2 SEC2        0.0000 
     26 N          26.2070  101.1060   44.1090 N.am      5 SEP2        0.0000 
     27 CA         23.6885   97.9500   46.6945 C.3       3 GLC5        0.0000 
     28 CA         23.0510   98.1450   44.7580 C.3       9 GLL5        0.0000 
     29 CA         24.3260   97.7550   48.6310 C.3       6 GLP5        0.0000 
     30 CA         23.9015   96.7355   43.2425 C.3       3 GLC5        0.0000 
     31 CA         24.7520   95.3260   41.7270 C.3       6 GLP5        0.0000 
     32 N          23.4670  100.8405   44.6975 N.am      2 SEC2        0.0000 
     33 N          22.6630   99.4780   44.6790 N.am      8 SEL2        0.0000 
     34 N          24.2710  102.2030   44.7160 N.am      5 SEP2        0.0000 
     35 CA         20.8020   90.8070   42.0070 C.3       3 GLC5        0.0000 
     36 CA         20.1710   91.2050   44.1030 C.3       9 GLL5        0.0000 
     37 CA         21.4330   90.4090   39.9110 C.3       6 GLP5        0.0000 
     38 CA         23.4535   94.2230   43.1150 C.3       3 GLC5        0.0000 
     39 CA         22.1550   93.1200   44.5030 C.3       9 GLL5        0.0000 
     40 CA         17.9930   97.2073   47.5008 C.3       3 GLC5        0.0000 
     41 CA         17.8160   97.0060   49.4660 C.3       6 GLP5        0.0000 
     42 CA         18.6905   91.6102   42.8330 C.3       3 GLC5        0.0000 
     43 CA         19.9170   92.5340   43.7950 C.3       9 GLL5        0.0000 
     44 CA         17.3370   91.3510   41.7170 C.3       6 GLP5        0.0000 
     45 CA         21.3218   94.0267   46.0275 C.3       3 GLC5        0.0000 
     46 CA         20.9140   93.4870   43.9810 C.3       9 GLL5        0.0000 
     47 CA         22.7810   91.8588   46.4193 C.3       3 GLC5        0.0000 
     48 CA         22.4110   91.7960   44.7930 C.3       9 GLL5        0.0000 
     49 CA         23.6460   92.4010   48.1390 C.3       6 GLP5        0.0000 
     50 CA         23.1865   90.1953   44.2793 C.3       3 GLC5        0.0000 
     51 CA         24.4570   89.0740   43.8590 C.3       6 GLP5        0.0000 
@<TRIPOS>BOND
@<TRIPOS>SUBSTRUCTURE
     1 ALC1       19 GROUP        1 X    ALC  0     ROOT ALC X 1
     2 SEC2       22 GROUP        1 X    SEC  0     **** SEC X 2
     3 GLC5        1 GROUP        1 X    GLC  0     **** GLC X 6
     4 ALP1       21 GROUP        1 Y    ALP  0     ROOT ALP Y 8
     5 SEP2       24 GROUP        1 Y    SEP  0     **** SEP Y 9
     6 GLP5        3 GROUP        1 Y    GLP  0     **** GLP Y 13
     7 ALL1       20 GROUP        1 Z    ALL  0     ROOT ALL Z 15
     8 SEL2       23 GROUP        1 Z    SEL  0     **** SEL Z 16
     9 GLL5        2 GROUP        1 Z    GLL  0     **** GLL Z 20
@<TRIPOS>SET

