#    Name: 1qhi_BPG_2_ligand
#    Modification time : Mon Mar 24 23:28:16 2014

@<TRIPOS>MOLECULE
1qhi_BPG_2_ligand
   39    41     1     0     0
SMALL
NO_CHARGES


@<TRIPOS>ATOM
      1 C3'        17.6120   95.7470   45.0190 C.3       1 BPG2        0.0000 
      2 O3'        16.2860   95.4480   45.2820 O.3       1 BPG2        0.0000 
      3 C2'        17.4810   97.1650   45.4470 C.3       1 BPG2        0.0000 
      4 C12        18.8590   97.6520   45.6240 C.3       1 BPG2        0.0000 
      5 C1'        19.4240   97.7930   44.2480 C.3       1 BPG2        0.0000 
      6 N9         20.8440   98.1890   44.4570 N.pl3     1 BPG2        0.0000 
      7 C4         21.9540   97.3430   44.6310 C.2       1 BPG2        0.0000 
      8 N3         21.9210   96.0080   44.6450 N.2       1 BPG2        0.0000 
      9 C2         23.1250   95.4430   44.7850 C.2       1 BPG2        0.0000 
     10 N2         23.1880   94.0500   44.7590 N.pl3     1 BPG2        0.0000 
     11 N1         24.2650   96.1940   44.9050 N.am      1 BPG2        0.0000 
     12 C6         24.3320   97.5810   44.8950 C.2       1 BPG2        0.0000 
     13 O6         25.3900   98.1970   45.0170 O.2       1 BPG2        0.0000 
     14 C5         23.0510   98.1450   44.7580 C.2       1 BPG2        0.0000 
     15 N7         22.6630   99.4780   44.6790 N.2       1 BPG2        0.0000 
     16 C8         21.3830   99.4170   44.5030 C.2       1 BPG2        0.0000 
     17 C04        20.1710   91.2050   44.1030 C.ar      1 BPG2        0.0000 
     18 C05        19.9170   92.5340   43.7950 C.ar      1 BPG2        0.0000 
     19 C06        20.9140   93.4870   43.9810 C.ar      1 BPG2        0.0000 
     20 C01        22.1550   93.1200   44.5030 C.ar      1 BPG2        0.0000 
     21 C02        22.4110   91.7960   44.7930 C.ar      1 BPG2        0.0000 
     22 C03        21.4210   90.8370   44.6060 C.ar      1 BPG2        0.0000 
     23 H          17.8523   95.7167   43.9997 H         1 BPG2        0.0000 
     24 H          18.2845   95.2568   45.6555 H         1 BPG2        0.0000 
     25 H          16.9400   97.2181   46.3779 H         1 BPG2        0.0000 
     26 H          16.9758   97.7331   44.6827 H         1 BPG2        0.0000 
     27 H          19.4433   96.9393   46.1847 H         1 BPG2        0.0000 
     28 H          18.8610   98.6115   46.1170 H         1 BPG2        0.0000 
     29 H          18.9000   98.5611   43.7133 H         1 BPG2        0.0000 
     30 H          19.3733   96.8536   43.7326 H         1 BPG2        0.0000 
     31 H          24.1631   93.6129   44.9629 H         1 BPG2        0.0000 
     32 H          25.1948   95.6687   45.0173 H         1 BPG2        0.0000 
     33 H          20.7888  100.2514   44.4011 H         1 BPG2        0.0000 
     34 H          19.4462   90.4925   43.9633 H         1 BPG2        0.0000 
     35 H          18.9991   92.8146   43.4318 H         1 BPG2        0.0000 
     36 H          20.7362   94.4711   43.7320 H         1 BPG2        0.0000 
     37 H          23.3356   91.5116   45.1490 H         1 BPG2        0.0000 
     38 H          21.6077   89.8522   44.8383 H         1 BPG2        0.0000 
     39 H          15.8422   95.4301   44.3860 H         1 BPG2        0.0000 
@<TRIPOS>BOND
     1    2    1 1    
     2    3    1 1    
     3   23    1 1    
     4   24    1 1    
     5   39    2 1    
     6    4    3 1    
     7   25    3 1    
     8   26    3 1    
     9    5    4 1    
    10   27    4 1    
    11   28    4 1    
    12    6    5 1    
    13   29    5 1    
    14   30    5 1    
    15    7    6 1    
    16   16    6 1    
    17    8    7 1    
    18   14    7 2    
    19    9    8 2    
    20   10    9 1    
    21   11    9 1    
    22   20   10 1    
    23   31   10 1    
    24   12   11 am   
    25   32   11 1    
    26   13   12 2    
    27   14   12 1    
    28   15   14 1    
    29   16   15 2    
    30   33   16 1    
    31   18   17 ar   
    32   22   17 ar   
    33   34   17 1    
    34   19   18 ar   
    35   35   18 1    
    36   20   19 ar   
    37   36   19 1    
    38   21   20 ar   
    39   22   21 ar   
    40   37   21 1    
    41   38   22 1    
@<TRIPOS>SUBSTRUCTURE
     1 BPG2        1 GROUP   
@<TRIPOS>SET

