#    Name: 3k5u_PFQ_1_INTS_M
#    Modification time : Mon Mar 24 18:48:24 2014

@<TRIPOS>MOLECULE
3k5u_PFQ_1_INTS_M
   66     0     9     0     0
SMALL
NO_CHARGES


@<TRIPOS>ATOM
      1 CA         -3.0740  -29.6260   10.1435 C.3       3 GLC5        0.0000 
      2 CA         -4.4370  -30.5870    9.6760 C.3       9 GLL5        0.0000 
      3 CA         -1.7110  -28.6650   10.6110 C.3       6 GLP5        0.0000 
      4 CA         -6.1690  -30.5935   10.8540 C.3       3 GLC5        0.0000 
      5 CA         -7.9010  -30.6000   12.0320 C.3       6 GLP5        0.0000 
      6 CA         -3.0770  -31.7175   10.8810 C.3       3 GLC5        0.0000 
      7 CA         -1.7170  -32.8480   12.0860 C.3       6 GLP5        0.0000 
      8 CA         -6.0170  -31.4565    9.0900 C.3       3 GLC5        0.0000 
      9 CA         -7.5970  -32.3260    8.5040 C.3       6 GLP5        0.0000 
     10 CA         -0.6765  -32.2660    3.7750 C.3       3 GLC5        0.0000 
     11 CA         -2.0850  -33.3120    2.3840 C.3       9 GLL5        0.0000 
     12 CA          0.7320  -31.2200    5.1660 C.3       6 GLP5        0.0000 
     13 CA         -4.0440  -27.3635    5.2545 C.3       3 GLC5        0.0000 
     14 CA         -4.7640  -28.9360    4.4230 C.3       9 GLL5        0.0000 
     15 CA         -3.3240  -25.7910    6.0860 C.3       6 GLP5        0.0000 
     16 CA         -5.0780  -26.7585    4.7220 C.3       3 GLC5        0.0000 
     17 CA         -5.4030  -28.2510    3.4060 C.3       9 GLL5        0.0000 
     18 CA         -4.7530  -25.2660    6.0380 C.3       6 GLP5        0.0000 
     19 N          -3.4010  -32.9255    9.8255 N.am      2 SEC2        0.0000 
     20 N          -3.8240  -31.5750    9.0540 N.am      8 SEL2        0.0000 
     21 N          -2.9780  -34.2760   10.5970 N.am      5 SEP2        0.0000 
     22 CA         -4.4295  -33.4510    8.7365 C.3       3 GLC5        0.0000 
     23 CA         -3.8210  -31.6010    7.7190 C.3       9 GLL5        0.0000 
     24 CA         -5.0380  -35.3010    9.7540 C.3       6 GLP5        0.0000 
     25 CA         -5.7090  -31.9635    8.1115 C.3       3 GLC5        0.0000 
     26 CA         -6.4085  -31.0060    8.0840 C.3       3 GLC5        0.0000 
     27 CA         -5.2200  -29.6860    7.6640 C.3       9 GLL5        0.0000 
     28 CA         -7.9650  -29.4750   10.2515 C.3       3 GLC5        0.0000 
     29 CA         -8.0290  -28.3500    8.4710 C.3       9 GLL5        0.0000 
     30 CA         -7.8130  -30.3380    8.4875 C.3       3 GLC5        0.0000 
     31 CA         -9.3365  -29.8415    8.9230 C.3       3 GLC5        0.0000 
     32 CA        -10.6440  -31.3330    9.3750 C.3       6 GLP5        0.0000 
     33 CA         -5.7410  -26.5135    6.9540 C.3       3 GLC5        0.0000 
     34 CA         -6.7290  -27.7610    7.8700 C.3       9 GLL5        0.0000 
     35 O         -10.0850  -28.0750   10.0685 O.2       1 ALC1        0.0000 
     36 O          -8.7000  -27.3760    9.2920 O.2       7 ALL1        0.0000 
     37 O         -11.4700  -28.7740   10.8450 O.2       4 ALP1        0.0000 
     38 CA         -3.8197  -34.4905    3.9112 C.3       3 GLC5        0.0000 
     39 CA         -2.8700  -32.8540    4.6080 C.3       9 GLL5        0.0000 
     40 CA         -4.8060  -36.2980    3.8850 C.3       6 GLP5        0.0000 
     41 CA         -1.9509  -30.9532    4.4244 C.3       3 GLC5        0.0000 
     42 CA         -2.7970  -32.5120    3.2670 C.3       9 GLL5        0.0000 
     43 CA         -0.9140  -29.4130    4.6670 C.3       6 GLP5        0.0000 
     44 CA         -3.3152  -35.1110    3.2410 C.3       3 GLC5        0.0000 
     45 CA         -0.5693  -32.8210    4.8913 C.3       3 GLC5        0.0000 
     46 CA         -1.4940  -34.8140    4.1790 C.3       9 GLL5        0.0000 
     47 CA         -3.3382  -35.3600    4.2508 C.3       3 GLC5        0.0000 
     48 CA         -2.2470  -34.0300    5.0540 C.3       9 GLL5        0.0000 
     49 CA         -4.3281  -27.9936    2.1871 C.3       3 GLC5        0.0000 
     50 CA         -3.0610  -27.2160    1.2070 C.3       6 GLP5        0.0000 
     51 CA         -6.9858  -31.9700    2.8755 C.3       3 GLC5        0.0000 
     52 CA         -6.0620  -30.3430    2.4350 C.3       9 GLL5        0.0000 
     53 CA         -8.1160  -33.2690    2.7270 C.3       6 GLP5        0.0000 
     54 CA         -2.1697  -30.4657    7.1915 C.3       3 GLC5        0.0000 
     55 CA         -4.5200  -30.6580    6.9630 C.3       9 GLL5        0.0000 
     56 CA         -0.1690  -29.8020    7.0420 C.3       6 GLP5        0.0000 
     57 CA         -3.9670  -28.3630    7.3552 C.3       3 GLC5        0.0000 
     58 CA         -3.0640  -26.5540    7.3970 C.3       6 GLP5        0.0000 
     59 CA         -5.6320  -32.2497    6.2970 C.3       3 GLC5        0.0000 
     60 CA         -7.0540  -33.3970    6.3100 C.3       6 GLP5        0.0000 
     61 CA         -6.1638  -32.0277    5.2000 C.3       3 GLC5        0.0000 
     62 CA         -4.8980  -30.3180    4.5670 C.3       9 GLL5        0.0000 
     63 CA         -2.7430  -29.8628    4.8635 C.3       3 GLC5        0.0000 
     64 CA         -4.3130  -30.9980    5.6250 C.3       9 GLL5        0.0000 
     65 CA         -6.7175  -27.2812    9.8422 C.3       3 GLC5        0.0000 
     66 CA         -6.0560  -26.5070   11.5140 C.3       6 GLP5        0.0000 
@<TRIPOS>BOND
@<TRIPOS>SUBSTRUCTURE
     1 ALC1       35 GROUP        1 X    ALC  0     ROOT ALC X 1
     2 SEC2       19 GROUP        1 X    SEC  0     **** SEC X 2
     3 GLC5        1 GROUP        1 X    GLC  0     **** GLC X 6
     4 ALP1       37 GROUP        1 Y    ALP  0     ROOT ALP Y 8
     5 SEP2       21 GROUP        1 Y    SEP  0     **** SEP Y 9
     6 GLP5        3 GROUP        1 Y    GLP  0     **** GLP Y 13
     7 ALL1       36 GROUP        1 Z    ALL  0     ROOT ALL Z 15
     8 SEL2       20 GROUP        1 Z    SEL  0     **** SEL Z 16
     9 GLL5        2 GROUP        1 Z    GLL  0     **** GLL Z 20
@<TRIPOS>SET

