#    Name: 3k5u_PFQ_1_ligand
#    Modification time : Mon Mar 24 18:48:24 2014

@<TRIPOS>MOLECULE
3k5u_PFQ_1_ligand
   42    45     1     0     0
SMALL
NO_CHARGES


@<TRIPOS>ATOM
      1 C2         -4.4370  -30.5870    9.6760 C.ar      1 PFQ1001     0.0000 
      2 C10        -3.4870  -32.0960    5.5850 C.2       1 PFQ1001     0.0000 
      3 C11        -2.8700  -32.8540    4.6080 C.ar      1 PFQ1001     0.0000 
      4 C12        -2.7970  -32.5120    3.2670 C.ar      1 PFQ1001     0.0000 
      5 C13        -2.0850  -33.3120    2.3840 C.ar      1 PFQ1001     0.0000 
      6 C14        -1.5640  -34.5360    2.8100 C.ar      1 PFQ1001     0.0000 
      7 C15        -1.4940  -34.8140    4.1790 C.ar      1 PFQ1001     0.0000 
      8 C16        -2.2470  -34.0300    5.0540 C.ar      1 PFQ1001     0.0000 
      9 C19        -4.7640  -28.9360    4.4230 C.ar      1 PFQ1001     0.0000 
     10 C20        -5.4030  -28.2510    3.4060 C.ar      1 PFQ1001     0.0000 
     11 C21        -6.1070  -28.9490    2.4200 C.ar      1 PFQ1001     0.0000 
     12 C22        -6.0620  -30.3430    2.4350 C.ar      1 PFQ1001     0.0000 
     13 N1         -3.8240  -31.5750    9.0540 N.ar      1 PFQ1001     0.0000 
     14 C6         -3.8210  -31.6010    7.7190 C.ar      1 PFQ1001     0.0000 
     15 O6         -3.1970  -32.4680    6.8720 O.3       1 PFQ1001     0.0000 
     16 C5         -4.5200  -30.6580    6.9630 C.ar      1 PFQ1001     0.0000 
     17 N9         -5.9870  -28.7640    7.0820 N.pl3     1 PFQ1001     0.0000 
     18 C4         -5.2200  -29.6860    7.6640 C.ar      1 PFQ1001     0.0000 
     19 N3         -5.1140  -29.6700    9.0090 N.ar      1 PFQ1001     0.0000 
     20 C17        -5.6490  -30.9990    3.6130 C.ar      1 PFQ1001     0.0000 
     21 C1         -4.3130  -30.9980    5.6250 C.2       1 PFQ1001     0.0000 
     22 C18        -4.8980  -30.3180    4.5670 C.ar      1 PFQ1001     0.0000 
     23 C23        -8.0290  -28.3500    8.4710 C.3       1 PFQ1001     0.0000 
     24 C8         -6.7290  -27.7610    7.8700 C.3       1 PFQ1001     0.0000 
     25 O24        -8.7000  -27.3760    9.2920 O.3       1 PFQ1001     0.0000 
     26 H          -4.3858  -30.5267   10.7340 H         1 PFQ1001     0.0000 
     27 H          -3.2707  -31.6644    2.9246 H         1 PFQ1001     0.0000 
     28 H          -1.9385  -33.0062    1.4127 H         1 PFQ1001     0.0000 
     29 H          -1.2366  -35.2230    2.1280 H         1 PFQ1001     0.0000 
     30 H          -0.9097  -35.5675    4.5259 H         1 PFQ1001     0.0000 
     31 H          -2.3489  -34.3146    6.0391 H         1 PFQ1001     0.0000 
     32 H          -4.1696  -28.4157    5.0980 H         1 PFQ1001     0.0000 
     33 H          -5.3643  -27.2222    3.3685 H         1 PFQ1001     0.0000 
     34 H          -6.6372  -28.4521    1.7115 H         1 PFQ1001     0.0000 
     35 H          -6.3212  -30.8835    1.6139 H         1 PFQ1001     0.0000 
     36 H          -6.1052  -28.6991    6.0527 H         1 PFQ1001     0.0000 
     37 H          -5.9069  -31.9813    3.7599 H         1 PFQ1001     0.0000 
     38 H          -7.7489  -29.2413    9.0460 H         1 PFQ1001     0.0000 
     39 H          -8.6577  -28.6768    7.6334 H         1 PFQ1001     0.0000 
     40 H          -7.0065  -26.9038    7.2448 H         1 PFQ1001     0.0000 
     41 H          -6.1156  -27.3868    8.6985 H         1 PFQ1001     0.0000 
     42 H          -9.4810  -27.8621    9.6841 H         1 PFQ1001     0.0000 
@<TRIPOS>BOND
     1   13    1 ar   
     2   19    1 ar   
     3   26    1 1    
     4    3    2 1    
     5   15    2 1    
     6   21    2 2    
     7    4    3 ar   
     8    8    3 ar   
     9    5    4 ar   
    10   27    4 1    
    11    6    5 ar   
    12   28    5 1    
    13    7    6 ar   
    14   29    6 1    
    15    8    7 ar   
    16   30    7 1    
    17   31    8 1    
    18   10    9 ar   
    19   22    9 ar   
    20   32    9 1    
    21   11   10 ar   
    22   33   10 1    
    23   12   11 ar   
    24   34   11 1    
    25   20   12 ar   
    26   35   12 1    
    27   14   13 ar   
    28   15   14 1    
    29   16   14 ar   
    30   18   16 ar   
    31   21   16 1    
    32   18   17 1    
    33   24   17 1    
    34   36   17 1    
    35   19   18 ar   
    36   22   20 ar   
    37   37   20 1    
    38   22   21 1    
    39   24   23 1    
    40   25   23 1    
    41   38   23 1    
    42   39   23 1    
    43   40   24 1    
    44   41   24 1    
    45   42   25 1    
@<TRIPOS>SUBSTRUCTURE
     1 PFQ1001     1 GROUP   
@<TRIPOS>SET

