#    Name: 4k6f_NAP_3_INTS_M
#    Modification time : Tue Mar 25 07:21:05 2014

@<TRIPOS>MOLECULE
4k6f_NAP_3_INTS_M
   99     0     9     0     0
SMALL
NO_CHARGES


@<TRIPOS>ATOM
      1 N          -9.6840  -32.6645   47.6840 N.am      2 SEC2        0.0000 
      2 N         -10.8800  -32.1530   48.4400 N.am      8 SEL2        0.0000 
      3 N          -8.4880  -33.1760   46.9280 N.am      5 SEP2        0.0000 
      4 CA         -9.0230  -26.1690   49.9290 C.3       3 GLC5        0.0000 
      5 CA         -9.5600  -28.1690   50.2440 C.3       9 GLL5        0.0000 
      6 CA         -8.4860  -24.1690   49.6140 C.3       6 GLP5        0.0000 
      7 N         -10.3685  -25.6460   50.2830 N.am      2 SEC2        0.0000 
      8 N          -9.8130  -26.9940   51.0280 N.am      8 SEL2        0.0000 
      9 N         -10.9240  -24.2980   49.5380 N.am      5 SEP2        0.0000 
     10 CA         -8.2065  -30.9170   50.0960 C.3       3 GLC5        0.0000 
     11 CA         -9.0920  -29.2480   51.2210 C.3       9 GLL5        0.0000 
     12 CA         -7.3210  -32.5860   48.9710 C.3       6 GLP5        0.0000 
     13 CA         -8.5005  -25.3970   51.5845 C.3       3 GLC5        0.0000 
     14 CA         -9.0530  -27.0890   52.2260 C.3       9 GLL5        0.0000 
     15 CA         -7.9480  -23.7050   50.9430 C.3       6 GLP5        0.0000 
     16 CA         -8.3000  -22.9935   57.4720 C.3       3 GLC5        0.0000 
     17 CA         -9.5620  -24.0070   56.0460 C.3       9 GLL5        0.0000 
     18 CA         -7.0380  -21.9800   58.8980 C.3       6 GLP5        0.0000 
     19 O         -10.0865  -22.3335   57.8330 O.2       1 ALC1        0.0000 
     20 O         -10.4650  -23.3470   56.8070 O.2       7 ALL1        0.0000 
     21 O          -9.7080  -21.3200   58.8590 O.2       4 ALP1        0.0000 
     22 N          -7.7910  -22.4625   56.4460 N.am      2 SEC2        0.0000 
     23 N          -8.2200  -23.8680   56.2280 N.am      8 SEL2        0.0000 
     24 N          -7.3620  -21.0570   56.6640 N.am      5 SEP2        0.0000 
     25 CA         -7.8095  -26.0855   56.2910 C.3       3 GLC5        0.0000 
     26 CA         -7.3550  -24.5480   55.4540 C.3       9 GLL5        0.0000 
     27 CA         -8.2640  -27.6230   57.1280 C.3       6 GLP5        0.0000 
     28 CA         -5.5635  -23.8440   55.8105 C.3       3 GLC5        0.0000 
     29 CA         -3.7720  -23.1400   56.1670 C.3       6 GLP5        0.0000 
     30 CA         -7.1965  -23.2640   57.1760 C.3       3 GLC5        0.0000 
     31 CA         -6.7480  -22.9400   54.6860 C.3       3 GLC5        0.0000 
     32 CA         -6.1410  -21.3320   53.9180 C.3       6 GLP5        0.0000 
     33 CA         -8.4885  -24.6305   52.5420 C.3       3 GLC5        0.0000 
     34 CA         -9.0290  -25.5560   54.1410 C.3       9 GLL5        0.0000 
     35 N          -9.1200  -31.1980   44.9940 N.am      2 SEC2        0.0000 
     36 N         -10.1200  -30.5970   45.7110 N.am      8 SEL2        0.0000 
     37 N          -8.1200  -31.7990   44.2770 N.am      5 SEP2        0.0000 
     38 CA         -9.1795  -28.7140   44.3420 C.3       3 GLC5        0.0000 
     39 CA        -10.1750  -27.6410   45.8300 C.3       9 GLL5        0.0000 
     40 CA         -8.1840  -29.7870   42.8540 C.3       6 GLP5        0.0000 
     41 CA         -9.5000  -27.0220   43.3380 C.3       3 GLC5        0.0000 
     42 CA        -10.5510  -26.3390   45.1240 C.3       9 GLL5        0.0000 
     43 CA         -8.4490  -27.7050   41.5520 C.3       6 GLP5        0.0000 
     44 CA         -9.9205  -25.1295   43.4870 C.3       3 GLC5        0.0000 
     45 CA         -9.2900  -23.9200   41.8500 C.3       6 GLP5        0.0000 
     46 CA        -11.9910  -24.6850   47.5875 C.3       3 GLC5        0.0000 
     47 CA        -11.6900  -25.5610   45.7910 C.3       9 GLL5        0.0000 
     48 CA        -12.2920  -23.8090   49.3840 C.3       6 GLP5        0.0000 
     49 N         -12.0500  -23.0025   45.4445 N.am      2 SEC2        0.0000 
     50 N         -11.3670  -24.1530   45.8610 N.am      8 SEL2        0.0000 
     51 N         -12.7330  -21.8520   45.0280 N.am      5 SEP2        0.0000 
     52 O         -10.1250  -24.4020   46.4340 O.2       1 ALC1        0.0000 
     53 O         -11.3670  -24.1530   45.8610 O.2       7 ALL1        0.0000 
     54 O          -8.8830  -24.6510   47.0070 O.2       4 ALP1        0.0000 
     55 CA        -13.4965  -23.7125   44.7345 C.3       3 GLC5        0.0000 
     56 CA        -12.8840  -25.7960   44.8890 C.3       9 GLL5        0.0000 
     57 CA        -14.1090  -21.6290   44.5800 C.3       6 GLP5        0.0000 
     58 N         -14.9090  -24.6130   44.3595 N.am      2 SEC2        0.0000 
     59 N         -13.8300  -24.7280   44.9160 N.am      8 SEL2        0.0000 
     60 N         -15.9880  -24.4980   43.8030 N.am      5 SEP2        0.0000 
     61 N         -13.2815  -23.2900   44.9720 N.am      2 SEC2        0.0000 
     62 CA        -10.7500  -24.9180   42.6930 C.3       3 GLC5        0.0000 
     63 CA        -12.2100  -25.9160   43.5360 C.3       9 GLL5        0.0000 
     64 CA        -12.4090  -29.2290   40.2755 C.3       3 GLC5        0.0000 
     65 CA        -13.9540  -28.4780   41.3760 C.3       9 GLL5        0.0000 
     66 CA        -10.8640  -29.9800   39.1750 C.3       6 GLP5        0.0000 
     67 N         -14.8460  -31.1740   39.1910 N.am      2 SEC2        0.0000 
     68 N         -15.0280  -30.3940   40.4740 N.am      8 SEL2        0.0000 
     69 N         -14.6640  -31.9540   37.9080 N.am      5 SEP2        0.0000 
     70 O         -13.5375  -32.2270   42.6635 O.2       1 ALC1        0.0000 
     71 O         -13.6170  -30.8230   42.1630 O.2       7 ALL1        0.0000 
     72 O         -13.4580  -33.6310   43.1640 O.2       4 ALP1        0.0000 
     73 CA        -13.1820  -29.1280   39.3115 C.3       3 GLC5        0.0000 
     74 CA        -14.4050  -27.6650   40.3230 C.3       9 GLL5        0.0000 
     75 CA        -11.9590  -30.5910   38.3000 C.3       6 GLP5        0.0000 
     76 CA        -12.4060  -24.9815   39.8665 C.3       3 GLC5        0.0000 
     77 CA        -13.4030  -25.7550   41.4360 C.3       9 GLL5        0.0000 
     78 CA        -11.4090  -24.2080   38.2970 C.3       6 GLP5        0.0000 
     79 N          -8.8765  -29.5980   56.2385 N.am      2 SEC2        0.0000 
     80 N          -8.8920  -30.3170   55.1500 N.am      8 SEL2        0.0000 
     81 N          -8.8610  -28.8790   57.3270 N.am      5 SEP2        0.0000 
     82 N          -6.0105  -31.5375   55.2315 N.am      2 SEC2        0.0000 
     83 N          -6.4100  -30.1330   54.8230 N.am      8 SEL2        0.0000 
     84 N          -5.6110  -32.9420   55.6400 N.am      5 SEP2        0.0000 
     85 N          -6.1680  -29.2095   55.8900 N.am      2 SEC2        0.0000 
     86 N          -5.9260  -28.2860   56.9570 N.am      5 SEP2        0.0000 
     87 CA        -11.2465  -23.2958   54.5230 C.3       3 GLC5        0.0000 
     88 CA        -12.6910  -22.1520   53.5520 C.3       6 GLP5        0.0000 
     89 CA         -8.8397  -26.3104   55.9728 C.3       3 GLC5        0.0000 
     90 CA        -10.0420  -24.8720   54.9420 C.3       9 GLL5        0.0000 
     91 CA         -9.0422  -23.1029   54.3572 C.3       3 GLC5        0.0000 
     92 CA         -8.6690  -21.2080   53.8970 C.3       6 GLP5        0.0000 
     93 CA        -13.0015  -26.7050   38.9350 C.3       3 GLC5        0.0000 
     94 CA        -14.1170  -26.2930   40.3670 C.3       9 GLL5        0.0000 
     95 CA        -11.7420  -26.4310   37.5250 C.3       6 GLP5        0.0000 
     96 CA        -14.8250  -24.3140   40.7167 C.3       3 GLC5        0.0000 
     97 CA        -15.8900  -22.6040   40.5320 C.3       6 GLP5        0.0000 
     98 CA         -7.4409  -27.8636   51.0192 C.3       3 GLC5        0.0000 
     99 CA         -5.6930  -27.4620   50.4690 C.3       6 GLP5        0.0000 
@<TRIPOS>BOND
@<TRIPOS>SUBSTRUCTURE
     1 ALC1       19 GROUP        1 X    ALC  0     ROOT ALC X 1
     2 SEC2        1 GROUP        1 X    SEC  0     **** SEC X 2
     3 GLC5        4 GROUP        1 X    GLC  0     **** GLC X 6
     4 ALP1       21 GROUP        1 Y    ALP  0     ROOT ALP Y 8
     5 SEP2        3 GROUP        1 Y    SEP  0     **** SEP Y 9
     6 GLP5        6 GROUP        1 Y    GLP  0     **** GLP Y 13
     7 ALL1       20 GROUP        1 Z    ALL  0     ROOT ALL Z 15
     8 SEL2        2 GROUP        1 Z    SEL  0     **** SEL Z 16
     9 GLL5        5 GROUP        1 Z    GLL  0     **** GLL Z 20
@<TRIPOS>SET

