#    Name: 4k6f_NAP_3_ligand
#    Modification time : Tue Mar 25 07:21:05 2014

@<TRIPOS>MOLECULE
4k6f_NAP_3_ligand
   73    77     1     0     0
SMALL
NO_CHARGES


@<TRIPOS>ATOM
      1 PA        -11.6680  -30.8720   48.5690 P.3       1 NAP300      0.0000 
      2 O1A       -10.8800  -32.1530   48.4400 O.co2     1 NAP300      0.0000 
      3 O2A       -12.8390  -30.7780   49.5080 O.co2     1 NAP300      0.0000 
      4 O5B       -10.5760  -29.7260   48.8060 O.3       1 NAP300      0.0000 
      5 C5B       -10.8450  -28.5410   49.5310 C.3       1 NAP300      0.0000 
      6 C4B        -9.5600  -28.1690   50.2440 C.3       1 NAP300      0.0000 
      7 O4B        -9.8130  -26.9940   51.0280 O.3       1 NAP300      0.0000 
      8 C3B        -9.0920  -29.2480   51.2210 C.3       1 NAP300      0.0000 
      9 O3B        -7.8480  -29.7840   50.7510 O.3       1 NAP300      0.0000 
     10 C2B        -9.0500  -28.5550   52.5870 C.3       1 NAP300      0.0000 
     11 O2B        -7.9300  -28.8360   53.4160 O.3       1 NAP300      0.0000 
     12 C1B        -9.0530  -27.0890   52.2260 C.3       1 NAP300      0.0000 
     13 N9A        -9.6940  -26.2540   53.2400 N.pl3     1 NAP300      0.0000 
     14 C8A       -11.0160  -26.0740   53.4100 C.2       1 NAP300      0.0000 
     15 N7A       -11.2390  -25.2360   54.4430 N.2       1 NAP300      0.0000 
     16 C5A       -10.0420  -24.8720   54.9420 C.ar      1 NAP300      0.0000 
     17 C6A        -9.5620  -24.0070   56.0460 C.ar      1 NAP300      0.0000 
     18 N6A       -10.4650  -23.3470   56.8070 N.pl3     1 NAP300      0.0000 
     19 N1A        -8.2200  -23.8680   56.2280 N.ar      1 NAP300      0.0000 
     20 C2A        -7.3550  -24.5480   55.4540 C.ar      1 NAP300      0.0000 
     21 N3A        -7.7300  -25.3470   54.4310 N.ar      1 NAP300      0.0000 
     22 C4A        -9.0290  -25.5560   54.1410 C.ar      1 NAP300      0.0000 
     23 O3        -12.2880  -30.5190   47.1290 O.3       1 NAP300      0.0000 
     24 PN        -11.5070  -29.9840   45.8090 P.3       1 NAP300      0.0000 
     25 O1N       -12.4440  -30.1950   44.6550 O.co2     1 NAP300      0.0000 
     26 O2N       -10.1200  -30.5970   45.7110 O.co2     1 NAP300      0.0000 
     27 O5D       -11.3450  -28.4090   46.1140 O.3       1 NAP300      0.0000 
     28 C5D       -10.1750  -27.6410   45.8300 C.3       1 NAP300      0.0000 
     29 C4D       -10.5510  -26.3390   45.1240 C.3       1 NAP300      0.0000 
     30 O4D       -11.0180  -26.6570   43.8150 O.3       1 NAP300      0.0000 
     31 C3D       -11.6900  -25.5610   45.7910 C.3       1 NAP300      0.0000 
     32 O3D       -11.3670  -24.1530   45.8610 O.3       1 NAP300      0.0000 
     33 C2D       -12.8840  -25.7960   44.8890 C.3       1 NAP300      0.0000 
     34 O2D       -13.8300  -24.7280   44.9160 O.3       1 NAP300      0.0000 
     35 C1D       -12.2100  -25.9160   43.5360 C.3       1 NAP300      0.0000 
     36 N1N       -12.9830  -26.5460   42.4430 N.pl3     1 NAP300      0.0000 
     37 C2N       -13.2330  -27.8780   42.4190 C.ar      1 NAP300      0.0000 
     38 C3N       -13.9540  -28.4780   41.3760 C.ar      1 NAP300      0.0000 
     39 C7N       -14.2320  -29.9700   41.3210 C.2       1 NAP300      0.0000 
     40 O7N       -15.0280  -30.3940   40.4740 O.2       1 NAP300      0.0000 
     41 N7N       -13.6170  -30.8230   42.1630 N.am      1 NAP300      0.0000 
     42 C4N       -14.4050  -27.6650   40.3230 C.ar      1 NAP300      0.0000 
     43 C5N       -14.1170  -26.2930   40.3670 C.ar      1 NAP300      0.0000 
     44 C6N       -13.4030  -25.7550   41.4360 C.ar      1 NAP300      0.0000 
     45 P2B        -7.7640  -30.2520   54.1830 P.3       1 NAP300      0.0000 
     46 O1X        -8.8920  -30.3170   55.1500 O.co2     1 NAP300      0.0000 
     47 O2X        -6.4100  -30.1330   54.8230 O.co2     1 NAP300      0.0000 
     48 O3X        -7.8690  -31.3180   53.1090 O.co2     1 NAP300      0.0000 
     49 H         -11.6182  -28.6839   50.2805 H         1 NAP300      0.0000 
     50 H         -11.1224  -27.7155   48.8817 H         1 NAP300      0.0000 
     51 H          -8.7890  -27.9882   49.5307 H         1 NAP300      0.0000 
     52 H          -9.8767  -29.9932   51.2482 H         1 NAP300      0.0000 
     53 H          -9.9980  -28.7484   53.0777 H         1 NAP300      0.0000 
     54 H          -8.0444  -26.7761   52.0517 H         1 NAP300      0.0000 
     55 H         -11.7139  -26.4884   52.8662 H         1 NAP300      0.0000 
     56 H         -10.0917  -22.7886   57.5478 H         1 NAP300      0.0000 
     57 H         -11.4257  -23.4761   56.5612 H         1 NAP300      0.0000 
     58 H          -6.3107  -24.4523   55.6580 H         1 NAP300      0.0000 
     59 H          -9.4797  -28.1862   45.1767 H         1 NAP300      0.0000 
     60 H          -9.6291  -27.3780   46.7466 H         1 NAP300      0.0000 
     61 H          -9.6890  -25.7016   45.0668 H         1 NAP300      0.0000 
     62 H         -11.8808  -25.9930   46.7368 H         1 NAP300      0.0000 
     63 H         -13.2956  -26.7492   45.1291 H         1 NAP300      0.0000 
     64 H         -11.9080  -24.8971   43.2406 H         1 NAP300      0.0000 
     65 H         -12.8872  -28.4931   43.1905 H         1 NAP300      0.0000 
     66 H         -13.8222  -31.7932   42.0340 H         1 NAP300      0.0000 
     67 H         -13.0100  -30.4100   42.8420 H         1 NAP300      0.0000 
     68 H         -14.9262  -28.0615   39.5500 H         1 NAP300      0.0000 
     69 H         -14.4369  -25.6828   39.6027 H         1 NAP300      0.0000 
     70 H         -13.2038  -24.7363   41.4377 H         1 NAP300      0.0000 
     71 H          -7.5558  -30.4223   51.4632 H         1 NAP300      0.0000 
     72 H         -10.3690  -24.1138   45.8119 H         1 NAP300      0.0000 
     73 H         -14.0826  -24.6305   45.8786 H         1 NAP300      0.0000 
@<TRIPOS>BOND
     1    2    1 ar   
     2    3    1 ar   
     3    4    1 1    
     4   23    1 1    
     5    5    4 1    
     6    6    5 1    
     7   49    5 1    
     8   50    5 1    
     9    7    6 1    
    10    8    6 1    
    11   51    6 1    
    12   12    7 1    
    13    9    8 1    
    14   10    8 1    
    15   52    8 1    
    16   71    9 1    
    17   11   10 1    
    18   12   10 1    
    19   53   10 1    
    20   45   11 1    
    21   13   12 1    
    22   54   12 1    
    23   14   13 1    
    24   22   13 1    
    25   15   14 2    
    26   55   14 1    
    27   16   15 1    
    28   17   16 ar   
    29   22   16 ar   
    30   18   17 1    
    31   19   17 ar   
    32   56   18 1    
    33   57   18 1    
    34   20   19 ar   
    35   21   20 ar   
    36   58   20 1    
    37   22   21 ar   
    38   24   23 1    
    39   25   24 ar   
    40   26   24 ar   
    41   27   24 1    
    42   28   27 1    
    43   29   28 1    
    44   59   28 1    
    45   60   28 1    
    46   30   29 1    
    47   31   29 1    
    48   61   29 1    
    49   35   30 1    
    50   32   31 1    
    51   33   31 1    
    52   62   31 1    
    53   72   32 1    
    54   34   33 1    
    55   35   33 1    
    56   63   33 1    
    57   73   34 1    
    58   36   35 1    
    59   64   35 1    
    60   37   36 ar   
    61   44   36 ar   
    62   38   37 ar   
    63   65   37 1    
    64   39   38 1    
    65   42   38 ar   
    66   40   39 2    
    67   41   39 am   
    68   66   41 1    
    69   67   41 1    
    70   43   42 ar   
    71   68   42 1    
    72   44   43 ar   
    73   69   43 1    
    74   70   44 1    
    75   46   45 ar   
    76   47   45 ar   
    77   48   45 ar   
@<TRIPOS>SUBSTRUCTURE
     1 NAP300      1 GROUP   
@<TRIPOS>SET

