#    Name: 5upj_UIN_1_INTS_M
#    Modification time : Tue Mar 25 13:50:26 2014

@<TRIPOS>MOLECULE
5upj_UIN_1_INTS_M
   54     0     9     0     0
SMALL
NO_CHARGES


@<TRIPOS>ATOM
      1 CA         -2.0070   17.0725   19.8590 C.3       3 GLC5        0.0000 
      2 CA         -0.3130   18.0280   20.7550 C.3       9 GLL5        0.0000 
      3 CA         -3.7010   16.1170   18.9630 C.3       6 GLP5        0.0000 
      4 N          -2.1575   15.1355   22.1740 N.am      2 SEC2        0.0000 
      5 N          -1.6890   16.3870   21.6060 N.am      8 SEL2        0.0000 
      6 N          -2.6260   13.8840   22.7420 N.am      5 SEP2        0.0000 
      7 CA         -3.1035   19.1630   20.1535 C.3       3 GLC5        0.0000 
      8 CA         -2.0880   19.7930   21.8820 C.3       9 GLL5        0.0000 
      9 CA         -4.1190   18.5330   18.4250 C.3       6 GLP5        0.0000 
     10 N           2.1545   19.8950   20.9060 N.am      2 SEC2        0.0000 
     11 N           0.9880   19.7760   19.8770 N.am      8 SEL2        0.0000 
     12 N           3.3210   20.0140   21.9350 N.am      5 SEP2        0.0000 
     13 O           1.0605   20.6065   18.9815 O.2       1 ALC1        0.0000 
     14 O           0.9880   19.7760   19.8770 O.2       7 ALL1        0.0000 
     15 O           1.1330   21.4370   18.0860 O.2       4 ALP1        0.0000 
     16 CA         -2.2905   14.6265   18.0505 C.3       3 GLC5        0.0000 
     17 CA         -0.5250   14.5230   17.5560 C.3       9 GLL5        0.0000 
     18 CA         -4.0560   14.7300   18.5450 C.3       6 GLP5        0.0000 
     19 CA          4.3770   16.4030   22.0950 C.3       3 GLC5        0.0000 
     20 CA          2.3750   16.5950   22.0140 C.3       9 GLL5        0.0000 
     21 CA          6.3790   16.2110   22.1760 C.3       6 GLP5        0.0000 
     22 CA          3.0670   17.2800   23.5240 C.3       3 GLC5        0.0000 
     23 CA          3.7590   17.9650   25.0340 C.3       6 GLP5        0.0000 
     24 CA         -4.1630   19.8890   20.0570 C.3       3 GLC5        0.0000 
     25 CA         -4.2070   21.2450   21.6890 C.3       9 GLL5        0.0000 
     26 CA         -3.5190   20.2970   19.0145 C.3       3 GLC5        0.0000 
     27 CA         -2.9190   22.0610   19.6040 C.3       9 GLL5        0.0000 
     28 CA         -3.8985   22.9510   18.0660 C.3       3 GLC5        0.0000 
     29 CA         -4.8780   23.8410   16.5280 C.3       6 GLP5        0.0000 
     30 CA         -0.1795   23.1070   22.2025 C.3       3 GLC5        0.0000 
     31 CA         -0.7770   21.7860   21.0160 C.3       9 GLL5        0.0000 
     32 CA          0.4180   24.4280   23.3890 C.3       6 GLP5        0.0000 
     33 CA          1.1605   17.7995   16.2835 C.3       3 GLC5        0.0000 
     34 CA         -0.1750   17.3160   17.7600 C.3       9 GLL5        0.0000 
     35 CA          2.7620   18.5630   15.3890 C.3       6 GLP5        0.0000 
     36 CA         -2.2465   16.0895   17.7527 C.3       3 GLC5        0.0000 
     37 CA         -0.7070   16.7560   16.5960 C.3       9 GLL5        0.0000 
     38 CA         -1.1005   13.7240   19.4495 C.3       3 GLC5        0.0000 
     39 CA         -1.9450   12.6600   20.7560 C.3       6 GLP5        0.0000 
     40 CA         -1.8460   16.0450   18.7399 C.3       3 GLC5        0.0000 
     41 CA          0.0130   15.0530   18.7300 C.3       9 GLL5        0.0000 
     42 CA          1.9960   14.8045   22.1125 C.3       3 GLC5        0.0000 
     43 CA          1.2990   16.0450   21.0860 C.3       9 GLL5        0.0000 
     44 CA          2.1550   13.2890   22.6750 C.3       6 GLP5        0.0000 
     45 CA         -4.7702   19.3840   22.7123 C.3       3 GLC5        0.0000 
     46 CA         -3.1100   20.6730   22.5560 C.3       9 GLL5        0.0000 
     47 CA         -5.8820   17.8090   23.3020 C.3       6 GLP5        0.0000 
     48 CA         -1.6125   23.8420   18.6872 C.3       3 GLC5        0.0000 
     49 CA         -1.0490   25.4650   17.6770 C.3       6 GLP5        0.0000 
     50 CA         -2.1185   22.1140   17.7353 C.3       3 GLC5        0.0000 
     51 CA         -1.4330   22.3770   19.7910 C.3       9 GLL5        0.0000 
     52 CA         -2.0610   22.0090   15.7730 C.3       6 GLP5        0.0000 
     53 CA          0.2525   23.6208   20.1298 C.3       3 GLC5        0.0000 
     54 CA          1.6100   25.1600   19.8560 C.3       6 GLP5        0.0000 
@<TRIPOS>BOND
@<TRIPOS>SUBSTRUCTURE
     1 ALC1       13 GROUP        1 X    ALC  0     ROOT ALC X 1
     2 SEC2        4 GROUP        1 X    SEC  0     **** SEC X 2
     3 GLC5        1 GROUP        1 X    GLC  0     **** GLC X 6
     4 ALP1       15 GROUP        1 Y    ALP  0     ROOT ALP Y 8
     5 SEP2        6 GROUP        1 Y    SEP  0     **** SEP Y 9
     6 GLP5        3 GROUP        1 Y    GLP  0     **** GLP Y 13
     7 ALL1       14 GROUP        1 Z    ALL  0     ROOT ALL Z 15
     8 SEL2        5 GROUP        1 Z    SEL  0     **** SEL Z 16
     9 GLL5        2 GROUP        1 Z    GLL  0     **** GLL Z 20
@<TRIPOS>SET

