#    Name: 5upj_UIN_1_ligand
#    Modification time : Tue Mar 25 13:50:26 2014

@<TRIPOS>MOLECULE
5upj_UIN_1_ligand
   47    49     1     0     0
SMALL
NO_CHARGES


@<TRIPOS>ATOM
      1 CA         -0.3130   18.0280   20.7550 C.2       1 UIN100      0.0000 
      2 CA2        -1.4450   17.5700   21.4950 C.2       1 UIN100      0.0000 
      3 OA2        -1.6890   16.3870   21.6060 O.2       1 UIN100      0.0000 
      4 OA3        -2.3370   18.4270   22.0680 O.3       1 UIN100      0.0000 
      5 CA4        -2.0880   19.7930   21.8820 C.2       1 UIN100      0.0000 
      6 CA5        -0.9840   20.2990   21.1760 C.2       1 UIN100      0.0000 
      7 CA6        -0.0940   19.3910   20.6050 C.2       1 UIN100      0.0000 
      8 OA6         0.9880   19.7760   19.8770 O.3       1 UIN100      0.0000 
      9 CB1         0.1850   16.4700   18.8470 C.ar      1 UIN100      0.0000 
     10 CB2        -0.1750   17.3160   17.7600 C.ar      1 UIN100      0.0000 
     11 CB3        -0.7070   16.7560   16.5960 C.ar      1 UIN100      0.0000 
     12 CB4        -0.8770   15.3680   16.4890 C.ar      1 UIN100      0.0000 
     13 CB5        -0.5250   14.5230   17.5560 C.ar      1 UIN100      0.0000 
     14 CB6         0.0130   15.0530   18.7300 C.ar      1 UIN100      0.0000 
     15 CG1         0.7060   17.0670   20.1320 C.3       1 UIN100      0.0000 
     16 CG2         1.2990   16.0450   21.0860 C.3       1 UIN100      0.0000 
     17 CG3         2.3750   16.5950   22.0140 C.3       1 UIN100      0.0000 
     18 CD1        -3.1100   20.6730   22.5560 C.3       1 UIN100      0.0000 
     19 CD2        -4.2070   21.2450   21.6890 C.3       1 UIN100      0.0000 
     20 CD3        -3.8210   22.4020   20.7910 C.3       1 UIN100      0.0000 
     21 CD4        -2.9190   22.0610   19.6040 C.3       1 UIN100      0.0000 
     22 CD5        -1.4330   22.3770   19.7910 C.3       1 UIN100      0.0000 
     23 CD6        -0.7770   21.7860   21.0160 C.3       1 UIN100      0.0000 
     24 H          -0.0407   18.3228   17.8423 H         1 UIN100      0.0000 
     25 H          -0.9764   17.3633   15.8112 H         1 UIN100      0.0000 
     26 H          -1.2610   14.9648   15.6262 H         1 UIN100      0.0000 
     27 H          -0.6664   13.5088   17.4668 H         1 UIN100      0.0000 
     28 H           0.2851   14.4528   19.5035 H         1 UIN100      0.0000 
     29 H           1.5823   17.7387   19.8126 H         1 UIN100      0.0000 
     30 H           1.7270   15.2105   20.4991 H         1 UIN100      0.0000 
     31 H           0.4868   15.6114   21.6995 H         1 UIN100      0.0000 
     32 H          -2.5771   21.5195   23.0617 H         1 UIN100      0.0000 
     33 H          -3.5814   20.0981   23.3947 H         1 UIN100      0.0000 
     34 H          -5.0513   21.5683   22.3442 H         1 UIN100      0.0000 
     35 H          -4.6282   20.4273   21.0560 H         1 UIN100      0.0000 
     36 H          -3.3158   23.1825   21.4033 H         1 UIN100      0.0000 
     37 H          -4.7467   22.8828   20.4021 H         1 UIN100      0.0000 
     38 H          -3.2875   22.6031   18.7093 H         1 UIN100      0.0000 
     39 H          -3.0263   20.9813   19.3738 H         1 UIN100      0.0000 
     40 H          -1.3107   23.4837   19.8103 H         1 UIN100      0.0000 
     41 H          -0.8859   22.0344   18.8836 H         1 UIN100      0.0000 
     42 H           0.3099   21.9971   20.9802 H         1 UIN100      0.0000 
     43 H          -1.1631   22.3029   21.9166 H         1 UIN100      0.0000 
     44 H           2.7355   15.8893   22.6240 H         1 UIN100      0.0000 
     45 H           3.1511   16.9660   21.5040 H         1 UIN100      0.0000 
     46 H           2.0253   17.3318   22.5926 H         1 UIN100      0.0000 
     47 H           0.6522   20.5047   19.2801 H         1 UIN100      0.0000 
@<TRIPOS>BOND
     1    2    1 1    
     2    7    1 2    
     3   15    1 1    
     4    3    2 2    
     5    4    2 1    
     6    5    4 1    
     7    6    5 2    
     8   18    5 1    
     9    7    6 1    
    10   23    6 1    
    11    8    7 1    
    12   47    8 1    
    13   10    9 ar   
    14   14    9 ar   
    15   15    9 1    
    16   11   10 ar   
    17   24   10 1    
    18   12   11 ar   
    19   25   11 1    
    20   13   12 ar   
    21   26   12 1    
    22   14   13 ar   
    23   27   13 1    
    24   28   14 1    
    25   16   15 1    
    26   29   15 1    
    27   17   16 1    
    28   30   16 1    
    29   31   16 1    
    30   44   17 1    
    31   45   17 1    
    32   46   17 1    
    33   19   18 1    
    34   32   18 1    
    35   33   18 1    
    36   20   19 1    
    37   34   19 1    
    38   35   19 1    
    39   21   20 1    
    40   36   20 1    
    41   37   20 1    
    42   22   21 1    
    43   38   21 1    
    44   39   21 1    
    45   23   22 1    
    46   40   22 1    
    47   41   22 1    
    48   42   23 1    
    49   43   23 1    
@<TRIPOS>SUBSTRUCTURE
     1 UIN100      1 GROUP   
@<TRIPOS>SET

