#    Name: 1KI6_1_CAVITY_N1_6.mol2
#    Modification time : Tue Mar 11 13:35:01 2014

@<TRIPOS>MOLECULE
1KI6_1_CAVITY_N1_6.mol2
   41     0     7     0     0
SMALL
NO_CHARGES


@<TRIPOS>ATOM
      1 NZ         50.6235   84.8434   54.8679 N.2       4 LYS4        0.0000 
      2 CZ         49.5273   85.3833   55.7380 C.ar      5 PHE5        0.0000 
      3 CA         49.9769   85.4668   53.6665 C.3       6 GLY6        0.0000 
      4 CA         48.8808   86.0066   54.5366 C.3       6 GLY6        0.0000 
      5 CZ         47.7846   86.5465   55.4067 C.ar      5 PHE5        0.0000 
      6 CA         48.2342   86.6300   53.3352 C.3       6 GLY6        0.0000 
      7 CA         51.5723   82.4272   54.9764 C.3       6 GLY6        0.0000 
      8 CA         50.4761   82.9671   55.8465 C.3       6 GLY6        0.0000 
      9 OG         49.3800   83.5069   56.7166 O.2       1 SER1        0.0000 
     10 CA         50.9257   83.0506   53.7750 C.3       6 GLY6        0.0000 
     11 DU         49.8295   83.5904   54.6451 H         7 CUB7        0.0000 
     12 OG         48.7334   84.1303   55.5152 O.2       1 SER1        0.0000 
     13 OG         47.6372   84.6701   56.3852 O.2       1 SER1        0.0000 
     14 OG         46.5411   85.2100   57.2553 O.2       1 SER1        0.0000 
     15 CZ         50.2791   83.6740   52.5737 C.ar      5 PHE5        0.0000 
     16 CZ         49.1829   84.2138   53.4437 C.ar      5 PHE5        0.0000 
     17 CA         48.0868   84.7537   54.3138 C.3       6 GLY6        0.0000 
     18 CZ         46.9906   85.2935   55.1838 C.ar      5 PHE5        0.0000 
     19 CA         45.8945   85.8333   56.0539 C.3       6 GLY6        0.0000 
     20 CA         48.5364   84.8372   52.2423 C.3       6 GLY6        0.0000 
     21 CA         46.3441   85.9169   53.9825 C.3       6 GLY6        0.0000 
     22 O          50.1317   81.7976   53.5522 O.2       2 ALA2        0.0000 
     23 O          49.0356   82.3374   54.4223 O.2       2 ALA2        0.0000 
     24 CZ         47.9394   82.8773   55.2923 C.ar      5 PHE5        0.0000 
     25 CZ         49.4851   82.4210   52.3508 C.ar      5 PHE5        0.0000 
     26 CZ         48.3890   82.9608   53.2209 C.ar      5 PHE5        0.0000 
     27 CZ         47.2928   83.5007   54.0909 C.ar      5 PHE5        0.0000 
     28 CZ         46.1967   84.0405   54.9610 C.ar      5 PHE5        0.0000 
     29 CZ         47.7424   83.5842   52.0195 C.ar      5 PHE5        0.0000 
     30 CA         45.5501   84.6639   53.7596 C.3       6 GLY6        0.0000 
     31 O          48.6912   81.1680   52.1280 O.2       2 ALA2        0.0000 
     32 O          47.5950   81.7078   52.9980 O.2       2 ALA2        0.0000 
     33 CZ         46.4989   82.2477   53.8681 C.ar      5 PHE5        0.0000 
     34 CZ         46.9484   82.3312   51.7967 C.ar      5 PHE5        0.0000 
     35 CA         45.8523   82.8711   52.6667 C.3       6 GLY6        0.0000 
     36 CZ         44.7561   83.4109   53.5368 C.ar      5 PHE5        0.0000 
     37 OD1        46.8011   80.4548   52.7752 O.3       3 ASP3        0.0000 
     38 O          46.1545   81.0782   51.5738 O.2       2 ALA2        0.0000 
     39 CZ         45.0583   81.6181   52.4439 C.ar      5 PHE5        0.0000 
     40 CZ         45.5079   81.7016   50.3724 C.ar      5 PHE5        0.0000 
     41 CA         44.4117   82.2414   51.2425 C.3       6 GLY6        0.0000 
@<TRIPOS>BOND
@<TRIPOS>SUBSTRUCTURE
     1 SER1        9 GROUP   
     2 ALA2       22 GROUP   
     3 ASP3       37 GROUP   
     4 LYS4        1 GROUP   
     5 PHE5        2 GROUP   
     6 GLY6        3 GROUP   
     7 CUB7       11 GROUP   
@<TRIPOS>SET

