#    Name: 1ki6_AHU_1_INTS_M
#    Modification time : Mon Apr  7 13:35:31 2014

@<TRIPOS>MOLECULE
1ki6_AHU_1_INTS_M
   52     0     9     0     0
SMALL
NO_CHARGES


@<TRIPOS>ATOM
      1 CA         50.9080   85.4360   53.2980 C.3       3 GLC5        0.0000 
      2 CA         50.5740   83.7250   54.5550 C.3       9 GLL5        0.0000 
      3 CA         51.2420   87.1470   52.0410 C.3       6 GLP5        0.0000 
      4 CA         50.0945   83.4680   51.6330 C.3       3 GLC5        0.0000 
      5 CA         50.5120   82.8320   53.4030 C.3       9 GLL5        0.0000 
      6 CA         49.6770   84.1040   49.8630 C.3       6 GLP5        0.0000 
      7 CA         49.1215   84.4360   51.8450 C.3       3 GLC5        0.0000 
      8 CA         48.5660   84.7680   53.8270 C.3       9 GLL5        0.0000 
      9 CA         49.2985   86.4195   53.0010 C.3       3 GLC5        0.0000 
     10 CA         50.0310   88.0710   52.1750 C.3       6 GLP5        0.0000 
     11 CA         49.1040   81.8580   56.8990 C.3       3 GLC5        0.0000 
     12 CA         48.3580   82.8840   55.4340 C.3       9 GLL5        0.0000 
     13 CA         49.8500   80.8320   58.3640 C.3       6 GLP5        0.0000 
     14 N          49.6105   84.5265   57.6670 N.am      2 SEC2        0.0000 
     15 N          50.1730   83.8420   56.7490 N.am      8 SEL2        0.0000 
     16 N          49.0480   85.2110   58.5850 N.am      5 SEP2        0.0000 
     17 O          51.7355   84.2850   56.8270 O.2       1 ALC1        0.0000 
     18 O          50.1730   83.8420   56.7490 O.2       7 ALL1        0.0000 
     19 O          53.2980   84.7280   56.9050 O.2       4 ALP1        0.0000 
     20 CA         47.5205   82.9750   51.3950 C.3       3 GLC5        0.0000 
     21 CA         46.2870   82.8540   53.2210 C.3       9 GLL5        0.0000 
     22 CA         48.7540   83.0960   49.5690 C.3       6 GLP5        0.0000 
     23 CA         45.9035   82.2970   55.0335 C.3       3 GLC5        0.0000 
     24 CA         45.5200   81.7400   56.8460 C.3       6 GLP5        0.0000 
     25 O          43.0220   84.9455   54.2250 O.2       1 ALC1        0.0000 
     26 O          44.1970   84.2580   53.9910 O.2       7 ALL1        0.0000 
     27 O          41.8470   85.6330   54.4590 O.2       4 ALP1        0.0000 
     28 N          41.9045   83.7400   52.7485 N.am      2 SEC2        0.0000 
     29 N          42.8920   83.2180   52.5420 N.am      8 SEL2        0.0000 
     30 N          40.9170   84.2620   52.9550 N.am      5 SEP2        0.0000 
     31 CA         44.4440   81.4065   53.9805 C.3       3 GLC5        0.0000 
     32 CA         45.2050   82.5640   52.5870 C.3       9 GLL5        0.0000 
     33 CA         43.6830   80.2490   55.3740 C.3       6 GLP5        0.0000 
     34 CA         46.5070   82.2285   49.9055 C.3       3 GLC5        0.0000 
     35 CA         45.2930   81.1410   51.1000 C.3       9 GLL5        0.0000 
     36 CA         47.7210   83.3160   48.7110 C.3       6 GLP5        0.0000 
     37 CA         45.0805   80.8905   49.3915 C.3       3 GLC5        0.0000 
     38 CA         44.8680   80.6400   47.6830 C.3       6 GLP5        0.0000 
     39 CA         46.6555   79.5270   51.1410 C.3       3 GLC5        0.0000 
     40 CA         48.0180   77.9130   51.1820 C.3       6 GLP5        0.0000 
     41 CA         44.3320   79.3315   51.5120 C.3       3 GLC5        0.0000 
     42 CA         43.3710   77.5220   51.9240 C.3       6 GLP5        0.0000 
     43 CA         50.4352   81.8050   56.1960 C.3       3 GLC5        0.0000 
     44 CA         49.8270   83.0750   55.6870 C.3       9 GLL5        0.0000 
     45 CA         50.6700   80.2100   57.2710 C.3       6 GLP5        0.0000 
     46 CA         52.2425   84.0317   53.6485 C.3       3 GLC5        0.0000 
     47 CA         53.9420   84.7850   53.3180 C.3       6 GLP5        0.0000 
     48 CA         47.1523   85.0468   52.7907 C.3       3 GLC5        0.0000 
     49 CA         46.1910   85.6500   51.2300 C.3       6 GLP5        0.0000 
     50 CA         46.7648   82.6207   56.0005 C.3       3 GLC5        0.0000 
     51 CA         47.6610   84.1190   54.8760 C.3       9 GLL5        0.0000 
     52 CA         45.9685   84.1795   52.0670 C.3       3 GLC5        0.0000 
@<TRIPOS>BOND
@<TRIPOS>SUBSTRUCTURE
     1 ALC1       17 GROUP        1 X    ALC  0     ROOT ALC X 1
     2 SEC2       14 GROUP        1 X    SEC  0     **** SEC X 2
     3 GLC5        1 GROUP        1 X    GLC  0     **** GLC X 6
     4 ALP1       19 GROUP        1 Y    ALP  0     ROOT ALP Y 8
     5 SEP2       16 GROUP        1 Y    SEP  0     **** SEP Y 9
     6 GLP5        3 GROUP        1 Y    GLP  0     **** GLP Y 13
     7 ALL1       18 GROUP        1 Z    ALL  0     ROOT ALL Z 15
     8 SEL2       15 GROUP        1 Z    SEL  0     **** SEL Z 16
     9 GLL5        2 GROUP        1 Z    GLL  0     **** GLL Z 20
@<TRIPOS>SET

