#    Name: 1ki6_AHU_1_ligand
#    Modification time : Mon Apr  7 13:35:31 2014

@<TRIPOS>MOLECULE
1ki6_AHU_1_ligand
   31    32     1     0     0
SMALL
NO_CHARGES


@<TRIPOS>ATOM
      1 C4'        50.5740   83.7250   54.5550 C.3       1 AHU1        0.0000 
      2 C7'        50.5120   82.8320   53.4030 C.3       1 AHU1        0.0000 
      3 O7'        50.6940   81.5690   54.0090 O.3       1 AHU1        0.0000 
      4 O5'        49.8830   84.9770   54.3050 O.3       1 AHU1        0.0000 
      5 C6'        48.5660   84.7680   53.8270 C.3       1 AHU1        0.0000 
      6 C1'        47.6610   84.1190   54.8760 C.3       1 AHU1        0.0000 
      7 C2'        48.3580   82.8840   55.4340 C.3       1 AHU1        0.0000 
      8 C3'        49.8270   83.0750   55.6870 C.3       1 AHU1        0.0000 
      9 O3'        50.1730   83.8420   56.7490 O.3       1 AHU1        0.0000 
     10 N1         46.4000   83.8350   54.2000 N.am      1 AHU1        0.0000 
     11 C6         46.2870   82.8540   53.2210 C.2       1 AHU1        0.0000 
     12 C2         45.3360   84.5990   54.6420 C.2       1 AHU1        0.0000 
     13 O2         45.3840   85.4550   55.5250 O.2       1 AHU1        0.0000 
     14 N3         44.1970   84.2580   53.9910 N.am      1 AHU1        0.0000 
     15 C4         44.0290   83.2970   52.9840 C.2       1 AHU1        0.0000 
     16 O4         42.8920   83.2180   52.5420 O.2       1 AHU1        0.0000 
     17 C5         45.2050   82.5640   52.5870 C.2       1 AHU1        0.0000 
     18 I          45.2930   81.1410   51.1000 I         1 AHU1        0.0000 
     19 H          51.5738   83.8944   54.8663 H         1 AHU1        0.0000 
     20 H          51.3049   83.0642   52.7167 H         1 AHU1        0.0000 
     21 H          49.5520   82.9131   52.9282 H         1 AHU1        0.0000 
     22 H          48.5527   84.1140   52.9320 H         1 AHU1        0.0000 
     23 H          48.0845   85.7184   53.5207 H         1 AHU1        0.0000 
     24 H          47.5198   84.8382   55.6629 H         1 AHU1        0.0000 
     25 H          48.2123   82.0470   54.7268 H         1 AHU1        0.0000 
     26 H          47.8576   82.5916   56.3753 H         1 AHU1        0.0000 
     27 H          50.2956   82.0617   55.7899 H         1 AHU1        0.0000 
     28 H          47.2001   82.3173   53.0058 H         1 AHU1        0.0000 
     29 H          43.2874   84.7883   54.2740 H         1 AHU1        0.0000 
     30 H          50.5528   80.9064   53.2734 H         1 AHU1        0.0000 
     31 H          51.1486   84.0257   56.6285 H         1 AHU1        0.0000 
@<TRIPOS>BOND
     1    2    1 1    
     2    4    1 1    
     3    8    1 1    
     4   19    1 1    
     5    3    2 1    
     6   20    2 1    
     7   21    2 1    
     8   30    3 1    
     9    5    4 1    
    10    6    5 1    
    11   22    5 1    
    12   23    5 1    
    13    7    6 1    
    14   10    6 1    
    15   24    6 1    
    16    8    7 1    
    17   25    7 1    
    18   26    7 1    
    19    9    8 1    
    20   27    8 1    
    21   31    9 1    
    22   11   10 1    
    23   12   10 1    
    24   17   11 2    
    25   28   11 1    
    26   13   12 2    
    27   14   12 1    
    28   15   14 1    
    29   29   14 1    
    30   16   15 2    
    31   17   15 1    
    32   18   17 1    
@<TRIPOS>SUBSTRUCTURE
     1 AHU1        1 GROUP   
@<TRIPOS>SET

