#    Name: 1urw_I1P_1_INTS_M
#    Modification time : Tue Mar 25 07:03:24 2014

@<TRIPOS>MOLECULE
1urw_I1P_1_INTS_M
   67     0     9     0     0
SMALL
NO_CHARGES


@<TRIPOS>ATOM
      1 CA         19.3690   -6.2605   12.6965 C.3       3 GLC5        0.0000 
      2 CA         17.4510   -5.8040   13.3890 C.3       9 GLL5        0.0000 
      3 CA         21.2870   -6.7170   12.0040 C.3       6 GLP5        0.0000 
      4 CA         12.2950   -6.6635   13.7700 C.3       3 GLC5        0.0000 
      5 CA         13.9060   -7.9330   12.9490 C.3       9 GLL5        0.0000 
      6 CA         10.6840   -5.3940   14.5910 C.3       6 GLP5        0.0000 
      7 CA         15.4005   -5.3700   15.1045 C.3       3 GLC5        0.0000 
      8 CA         17.0620   -6.5740   14.4790 C.3       9 GLL5        0.0000 
      9 CA         13.7390   -4.1660   15.7300 C.3       6 GLP5        0.0000 
     10 CA         17.3955   -4.3765   14.7870 C.3       3 GLC5        0.0000 
     11 CA         17.7290   -2.1790   15.0950 C.3       6 GLP5        0.0000 
     12 CA         13.1320   -8.9260   10.3040 C.3       3 GLC5        0.0000 
     13 CA         13.5960   -7.4850   11.5970 C.3       9 GLL5        0.0000 
     14 CA         12.6680  -10.3670    9.0110 C.3       6 GLP5        0.0000 
     15 CA         11.3600  -11.7995   11.4490 C.3       3 GLC5        0.0000 
     16 CA          9.6150  -10.8910   12.0370 C.3       9 GLL5        0.0000 
     17 CA         13.1050  -12.7080   10.8610 C.3       6 GLP5        0.0000 
     18 CA         12.2590  -11.5575   12.4060 C.3       3 GLC5        0.0000 
     19 CA         11.4130  -10.4070   13.9510 C.3       9 GLL5        0.0000 
     20 CA         13.3080  -11.2555   14.3825 C.3       3 GLC5        0.0000 
     21 CA         15.2030  -12.1040   14.8140 C.3       6 GLP5        0.0000 
     22 CA         10.3765   -8.8380   13.7760 C.3       3 GLC5        0.0000 
     23 CA          9.3400   -7.2690   13.6010 C.3       6 GLP5        0.0000 
     24 CA         12.1105  -11.6135   16.7840 C.3       3 GLC5        0.0000 
     25 CA         12.5900   -9.9160   15.8700 C.3       9 GLL5        0.0000 
     26 CA         11.6310  -13.3110   17.6980 C.3       6 GLP5        0.0000 
     27 CA         11.2055   -9.6420   17.5280 C.3       3 GLC5        0.0000 
     28 CA          9.8210   -9.3680   19.1860 C.3       6 GLP5        0.0000 
     29 N          10.6820  -11.2425   16.1890 N.am      2 SEC2        0.0000 
     30 N          11.6090  -10.6050   15.2590 N.am      8 SEL2        0.0000 
     31 N           9.7550  -11.8800   17.1190 N.am      5 SEP2        0.0000 
     32 O           9.2965  -11.7045   14.1225 O.2       1 ALC1        0.0000 
     33 O          10.3630  -11.1090   13.2540 O.2       7 ALL1        0.0000 
     34 O           8.2300  -12.3000   14.9910 O.2       4 ALP1        0.0000 
     35 O           8.1620   -8.0750    7.6530 O.2       1 ALC1        0.0000 
     36 O           8.0120   -9.4770    7.0960 O.2       7 ALL1        0.0000 
     37 O           8.3120   -6.6730    8.2100 O.2       4 ALP1        0.0000 
     38 N           5.8920   -8.4835    9.9645 N.am      2 SEC2        0.0000 
     39 N           5.8420   -9.3400    8.6930 N.am      8 SEL2        0.0000 
     40 N           5.9420   -7.6270   11.2360 N.am      5 SEP2        0.0000 
     41 N           5.0405  -12.0605    7.1465 N.am      2 SEC2        0.0000 
     42 N           6.5250  -11.6650    7.7570 N.am      8 SEL2        0.0000 
     43 N           3.5560  -12.4560    6.5360 N.am      5 SEP2        0.0000 
     44 CA         17.2260   -3.8708   13.2085 C.3       3 GLC5        0.0000 
     45 CA         16.7050   -5.7110   12.2190 C.3       9 GLL5        0.0000 
     46 CA         17.3740   -1.9840   13.6130 C.3       6 GLP5        0.0000 
     47 CA         15.2685   -9.0395   11.6155 C.3       3 GLC5        0.0000 
     48 CA         16.7860  -10.3700   10.9580 C.3       6 GLP5        0.0000 
     49 CA         17.0660   -7.3009   11.1405 C.3       3 GLC5        0.0000 
     50 CA         15.3940   -6.5600   12.1540 C.3       9 GLL5        0.0000 
     51 CA         17.8960   -8.4430    9.8020 C.3       6 GLP5        0.0000 
     52 CA         13.4882   -8.5098   17.2785 C.3       3 GLC5        0.0000 
     53 CA         13.4070   -8.9970   15.1560 C.3       9 GLL5        0.0000 
     54 CA         13.9780   -7.5630   19.0440 C.3       6 GLP5        0.0000 
     55 CA         14.0669  -10.7601   14.9875 C.3       3 GLC5        0.0000 
     56 CA         13.1360   -8.8360   13.7480 C.3       9 GLL5        0.0000 
     57 CA         11.4139   -8.0426   15.0255 C.3       3 GLC5        0.0000 
     58 CA          9.8970   -6.6690   14.8900 C.3       6 GLP5        0.0000 
     59 CA         11.0585  -10.0210    9.8025 C.3       3 GLC5        0.0000 
     60 CA          9.8370   -9.7660   11.1720 C.3       9 GLL5        0.0000 
     61 CA          8.5610   -7.8485   10.4985 C.3       3 GLC5        0.0000 
     62 CA          7.6730   -6.0220   10.4030 C.3       6 GLP5        0.0000 
     63 CA          9.3667   -8.6126   12.2056 C.3       3 GLC5        0.0000 
     64 CA          9.0610   -9.5840   10.0160 C.3       9 GLL5        0.0000 
     65 CA          6.6141  -10.4044   11.3571 C.3       3 GLC5        0.0000 
     66 CA          8.0550  -10.5260    9.7140 C.3       9 GLL5        0.0000 
     67 CA          5.0960   -9.6730   12.2970 C.3       6 GLP5        0.0000 
@<TRIPOS>BOND
@<TRIPOS>SUBSTRUCTURE
     1 ALC1       32 GROUP        1 X    ALC  0     ROOT ALC X 1
     2 SEC2       29 GROUP        1 X    SEC  0     **** SEC X 2
     3 GLC5        1 GROUP        1 X    GLC  0     **** GLC X 6
     4 ALP1       34 GROUP        1 Y    ALP  0     ROOT ALP Y 8
     5 SEP2       31 GROUP        1 Y    SEP  0     **** SEP Y 9
     6 GLP5        3 GROUP        1 Y    GLP  0     **** GLP Y 13
     7 ALL1       33 GROUP        1 Z    ALL  0     ROOT ALL Z 15
     8 SEL2       30 GROUP        1 Z    SEL  0     **** SEL Z 16
     9 GLL5        2 GROUP        1 Z    GLL  0     **** GLL Z 20
@<TRIPOS>SET

