#    Name: 1urw_I1P_1_ligand
#    Modification time : Tue Mar 25 07:03:24 2014

@<TRIPOS>MOLECULE
1urw_I1P_1_ligand
   57    60     1     0     0
SMALL
NO_CHARGES


@<TRIPOS>ATOM
      1 C22         8.6020  -11.8350   11.7020 C.ar      1 I1P1300     0.0000 
      2 C1         17.4510   -5.8040   13.3890 C.ar      1 I1P1300     0.0000 
      3 C2         16.7050   -5.7110   12.2190 C.ar      1 I1P1300     0.0000 
      4 C7         13.9060   -7.9330   12.9490 C.ar      1 I1P1300     0.0000 
      5 C6         17.0620   -6.5740   14.4790 C.ar      1 I1P1300     0.0000 
      6 C3         15.3940   -6.5600   12.1540 C.ar      1 I1P1300     0.0000 
      7 N5         15.9460   -7.2920   14.4550 N.ar      1 I1P1300     0.0000 
      8 C11        13.4070   -8.9970   15.1560 C.ar      1 I1P1300     0.0000 
      9 C10        13.1360   -8.8360   13.7480 C.ar      1 I1P1300     0.0000 
     10 C9         13.5960   -7.4850   11.5970 C.ar      1 I1P1300     0.0000 
     11 C17         9.6150  -10.8910   12.0370 C.ar      1 I1P1300     0.0000 
     12 C14        11.4130  -10.4070   13.9510 C.ar      1 I1P1300     0.0000 
     13 C13        12.5900   -9.9160   15.8700 C.ar      1 I1P1300     0.0000 
     14 N15        12.1280   -9.5630   13.1890 N.ar      1 I1P1300     0.0000 
     15 C18         9.8370   -9.7660   11.1720 C.ar      1 I1P1300     0.0000 
     16 C19         9.0610   -9.5840   10.0160 C.ar      1 I1P1300     0.0000 
     17 C20         8.0550  -10.5260    9.7140 C.ar      1 I1P1300     0.0000 
     18 N4         15.1460   -7.3460   13.2810 N.pl3     1 I1P1300     0.0000 
     19 N8         14.5560   -6.5990   11.0750 N.ar      1 I1P1300     0.0000 
     20 N13        11.6090  -10.6050   15.2590 N.ar      1 I1P1300     0.0000 
     21 N16        10.3630  -11.1090   13.2540 N.pl3     1 I1P1300     0.0000 
     22 C21         7.8170  -11.6560   10.5390 C.ar      1 I1P1300     0.0000 
     23 S23         7.0600  -10.2820    8.3090 S.o2      1 I1P1300     0.0000 
     24 N24         8.0120   -9.4770    7.0960 N.pl3     1 I1P1300     0.0000 
     25 C25         8.9500  -10.4070    6.4280 C.3       1 I1P1300     0.0000 
     26 C26         9.2920   -9.9200    5.0140 C.3       1 I1P1300     0.0000 
     27 C27         8.0420   -9.8120    4.0910 C.3       1 I1P1300     0.0000 
     28 N28         8.2740   -9.6630    2.6080 N.4       1 I1P1300     0.0000 
     29 C29         8.6270  -10.9290    1.9080 C.3       1 I1P1300     0.0000 
     30 C30         9.2700   -8.5860    2.2800 C.3       1 I1P1300     0.0000 
     31 O31         5.8420   -9.3400    8.6930 O.2       1 I1P1300     0.0000 
     32 O32         6.5250  -11.6650    7.7570 O.2       1 I1P1300     0.0000 
     33 H           8.4455  -12.6423   12.3065 H         1 I1P1300     0.0000 
     34 H          18.3514   -5.2666   13.4518 H         1 I1P1300     0.0000 
     35 H          16.9191   -5.1680   11.4345 H         1 I1P1300     0.0000 
     36 H          17.6819   -6.5692   15.3250 H         1 I1P1300     0.0000 
     37 H          14.1338   -8.4843   15.5975 H         1 I1P1300     0.0000 
     38 H          12.8048   -7.7816   11.1290 H         1 I1P1300     0.0000 
     39 H          12.7812  -10.0350   16.8867 H         1 I1P1300     0.0000 
     40 H          10.5734   -9.0965   11.4134 H         1 I1P1300     0.0000 
     41 H           9.2188   -8.7886    9.4055 H         1 I1P1300     0.0000 
     42 H          10.0516  -12.0516   13.7841 H         1 I1P1300     0.0000 
     43 H           7.0949  -12.3235   10.2966 H         1 I1P1300     0.0000 
     44 H           7.8558   -8.6001    6.9864 H         1 I1P1300     0.0000 
     45 H           8.5094  -11.4055    6.3508 H         1 I1P1300     0.0000 
     46 H           9.8802  -10.4881    6.9984 H         1 I1P1300     0.0000 
     47 H          10.0031  -10.6122    4.5539 H         1 I1P1300     0.0000 
     48 H           9.7642   -8.9351    5.0737 H         1 I1P1300     0.0000 
     49 H           7.4276   -8.9521    4.4581 H         1 I1P1300     0.0000 
     50 H           7.4083  -10.7148    4.2779 H         1 I1P1300     0.0000 
     51 H           7.2914   -9.3146    2.1629 H         1 I1P1300     0.0000 
     52 H           8.7691  -10.7847    0.9287 H         1 I1P1300     0.0000 
     53 H           9.4678  -11.3316    2.2700 H         1 I1P1300     0.0000 
     54 H           7.9082  -11.6179    2.0015 H         1 I1P1300     0.0000 
     55 H          10.1642   -8.7704    2.6879 H         1 I1P1300     0.0000 
     56 H           9.4102   -8.4977    1.2938 H         1 I1P1300     0.0000 
     57 H           8.9738   -7.6916    2.6152 H         1 I1P1300     0.0000 
@<TRIPOS>BOND
     1   11    1 ar   
     2   22    1 ar   
     3   33    1 1    
     4    3    2 ar   
     5    5    2 ar   
     6   34    2 1    
     7    6    3 ar   
     8   35    3 1    
     9    9    4 1    
    10   10    4 ar   
    11   18    4 ar   
    12    7    5 ar   
    13   36    5 1    
    14   18    6 ar   
    15   19    6 ar   
    16   18    7 ar   
    17    9    8 ar   
    18   13    8 ar   
    19   37    8 1    
    20   14    9 ar   
    21   19   10 ar   
    22   38   10 1    
    23   15   11 ar   
    24   21   11 1    
    25   14   12 ar   
    26   20   12 ar   
    27   21   12 1    
    28   20   13 ar   
    29   39   13 1    
    30   16   15 ar   
    31   40   15 1    
    32   17   16 ar   
    33   41   16 1    
    34   22   17 ar   
    35   23   17 1    
    36   42   21 1    
    37   43   22 1    
    38   24   23 1    
    39   31   23 2    
    40   32   23 2    
    41   25   24 1    
    42   44   24 1    
    43   26   25 1    
    44   45   25 1    
    45   46   25 1    
    46   27   26 1    
    47   47   26 1    
    48   48   26 1    
    49   28   27 1    
    50   49   27 1    
    51   50   27 1    
    52   29   28 1    
    53   30   28 1    
    54   51   28 1    
    55   52   29 1    
    56   53   29 1    
    57   54   29 1    
    58   55   30 1    
    59   56   30 1    
    60   57   30 1    
@<TRIPOS>SUBSTRUCTURE
     1 I1P1300     1 GROUP   
@<TRIPOS>SET

