#    Name: 3ml9_ML9_1_INTS_M
#    Modification time : Mon Mar 24 23:25:28 2014

@<TRIPOS>MOLECULE
3ml9_ML9_1_INTS_M
   74     0     9     0     0
SMALL
NO_CHARGES


@<TRIPOS>ATOM
      1 CA         41.6180   14.2800   28.9195 C.3       3 GLC5        0.0000 
      2 CA         41.4270   13.2580   30.6630 C.3       9 GLL5        0.0000 
      3 CA         41.8090   15.3020   27.1760 C.3       6 GLP5        0.0000 
      4 CA         39.7280   14.0035   29.8955 C.3       3 GLC5        0.0000 
      5 CA         38.0290   14.7490   29.1280 C.3       6 GLP5        0.0000 
      6 CA         38.9765   13.9800   30.8135 C.3       3 GLC5        0.0000 
      7 CA         39.9240   13.2110   32.4990 C.3       9 GLL5        0.0000 
      8 CA         49.6455   13.0285   29.5885 C.3       3 GLC5        0.0000 
      9 CA         48.3390   14.1230   28.5740 C.3       9 GLL5        0.0000 
     10 CA         50.9520   11.9340   30.6030 C.3       6 GLP5        0.0000 
     11 CA         48.8200   12.8700   27.0085 C.3       3 GLC5        0.0000 
     12 CA         49.3010   11.6170   25.4430 C.3       6 GLP5        0.0000 
     13 CA         47.3190   15.5175   27.8825 C.3       3 GLC5        0.0000 
     14 CA         46.2990   16.9120   27.1910 C.3       6 GLP5        0.0000 
     15 CA         44.1190   11.4190   30.6620 C.3       3 GLC5        0.0000 
     16 CA         44.4530   13.3450   30.0590 C.3       9 GLL5        0.0000 
     17 CA         43.7850    9.4930   31.2650 C.3       6 GLP5        0.0000 
     18 CA         43.2565   15.7775   29.6750 C.3       3 GLC5        0.0000 
     19 CA         43.8490   14.1590   30.9400 C.3       9 GLL5        0.0000 
     20 CA         42.6640   17.3960   28.4100 C.3       6 GLP5        0.0000 
     21 CA         44.2945   17.7930   29.6960 C.3       3 GLC5        0.0000 
     22 CA         45.9250   18.1900   30.9820 C.3       9 GLL5        0.0000 
     23 CA         46.5515   14.9725   33.3390 C.3       3 GLC5        0.0000 
     24 CA         47.1110   16.7740   32.8060 C.3       9 GLL5        0.0000 
     25 CA         45.9920   13.1710   33.8720 C.3       6 GLP5        0.0000 
     26 CA         44.8730   10.3340   27.1840 C.3       3 GLC5        0.0000 
     27 CA         45.8150   11.5160   28.0440 C.3       9 GLL5        0.0000 
     28 CA         43.9310    9.1520   26.3240 C.3       6 GLP5        0.0000 
     29 CA         44.8000   10.5045   29.6545 C.3       3 GLC5        0.0000 
     30 CA         45.9095   12.6280   26.3035 C.3       3 GLC5        0.0000 
     31 CA         46.0040   13.7400   24.5630 C.3       6 GLP5        0.0000 
     32 CA         37.2820   10.9100   33.7300 C.3       3 GLC5        0.0000 
     33 CA         37.7090   12.3850   32.2490 C.3       9 GLL5        0.0000 
     34 CA         36.8550    9.4350   35.2110 C.3       6 GLP5        0.0000 
     35 CA         36.9825   10.7370   30.9290 C.3       3 GLC5        0.0000 
     36 CA         36.2560    9.0890   29.6090 C.3       6 GLP5        0.0000 
     37 CA         39.4605   11.3255   32.5100 C.3       3 GLC5        0.0000 
     38 CA         41.2120   10.2660   32.7710 C.3       6 GLP5        0.0000 
     39 CA         37.8690   13.5670   30.6885 C.3       3 GLC5        0.0000 
     40 CA         49.1335   23.7250   33.1765 C.3       3 GLC5        0.0000 
     41 CA         47.9050   22.5730   34.4790 C.3       9 GLL5        0.0000 
     42 CA         50.3620   24.8770   31.8740 C.3       6 GLP5        0.0000 
     43 N          48.6125   11.9530   27.9800 N.am      2 SEC2        0.0000 
     44 N          47.7000   13.0150   28.1300 N.am      8 SEL2        0.0000 
     45 N          49.5250   10.8910   27.8300 N.am      5 SEP2        0.0000 
     46 O          50.5605   13.5735   27.7345 O.2       1 ALC1        0.0000 
     47 O          49.6190   14.3930   28.1040 O.2       7 ALL1        0.0000 
     48 O          51.5020   12.7540   27.3650 O.2       4 ALP1        0.0000 
     49 CA         44.1480   13.5520   33.0055 C.3       3 GLC5        0.0000 
     50 CA         42.4720   13.8180   31.4550 C.3       9 GLL5        0.0000 
     51 CA         39.8377   13.4223   34.6535 C.3       3 GLC5        0.0000 
     52 CA         40.8770   13.7520   33.3550 C.3       9 GLL5        0.0000 
     53 CA         39.2750   13.3630   36.3800 C.3       6 GLP5        0.0000 
     54 CA         41.5808   11.9020   31.9150 C.3       3 GLC5        0.0000 
     55 CA         46.0748   13.6657   31.8002 C.3       3 GLC5        0.0000 
     56 CA         45.7950   13.5940   29.5250 C.3       9 GLL5        0.0000 
     57 CA         47.6970   11.1390   29.2210 C.3       3 GLC5        0.0000 
     58 CA         46.4430   12.7580   28.5980 C.3       9 GLL5        0.0000 
     59 CA         49.2650   10.1410   30.1210 C.3       6 GLP5        0.0000 
     60 CA         47.0490   11.5105   26.8120 C.3       3 GLC5        0.0000 
     61 CA         47.9690   10.8840   25.3030 C.3       6 GLP5        0.0000 
     62 CA         46.3092   15.4318   28.3439 C.3       3 GLC5        0.0000 
     63 CA         40.9636   11.9108   32.7825 C.3       3 GLC5        0.0000 
     64 CA         42.1360   14.0480   32.8230 C.3       9 GLL5        0.0000 
     65 CA         45.0715   13.4615   32.1857 C.3       3 GLC5        0.0000 
     66 CA         44.1980   14.0928   28.0311 C.3       3 GLC5        0.0000 
     67 CA         43.1100   14.9250   26.5020 C.3       6 GLP5        0.0000 
     68 CA         46.3047   17.2193   29.1657 C.3       3 GLC5        0.0000 
     69 CA         46.6960   16.8630   31.2990 C.3       9 GLL5        0.0000 
     70 CA         47.3438   16.9423   34.7945 C.3       3 GLC5        0.0000 
     71 CA         47.1840   16.4810   36.5740 C.3       6 GLP5        0.0000 
     72 CA         48.9652   16.2617   33.1155 C.3       3 GLC5        0.0000 
     73 CA         47.8960   18.0330   33.2240 C.3       9 GLL5        0.0000 
     74 CA         50.4270   15.1200   33.2160 C.3       6 GLP5        0.0000 
@<TRIPOS>BOND
@<TRIPOS>SUBSTRUCTURE
     1 ALC1       46 GROUP        1 X    ALC  0     ROOT ALC X 1
     2 SEC2       43 GROUP        1 X    SEC  0     **** SEC X 2
     3 GLC5        1 GROUP        1 X    GLC  0     **** GLC X 6
     4 ALP1       48 GROUP        1 Y    ALP  0     ROOT ALP Y 8
     5 SEP2       45 GROUP        1 Y    SEP  0     **** SEP Y 9
     6 GLP5        3 GROUP        1 Y    GLP  0     **** GLP Y 13
     7 ALL1       47 GROUP        1 Z    ALL  0     ROOT ALL Z 15
     8 SEL2       44 GROUP        1 Z    SEL  0     **** SEL Z 16
     9 GLL5        2 GROUP        1 Z    GLL  0     **** GLL Z 20
@<TRIPOS>SET

