#    Name: 3ml9_ML9_1_ligand
#    Modification time : Mon Mar 24 23:25:29 2014

@<TRIPOS>MOLECULE
3ml9_ML9_1_ligand
   58    61     1     0     0
SMALL
NO_CHARGES


@<TRIPOS>ATOM
      1 C14        42.1360   14.0480   32.8230 C.ar      1 ML99999     0.0000 
      2 C15        40.8770   13.7520   33.3550 C.ar      1 ML99999     0.0000 
      3 C18        41.4270   13.2580   30.6630 C.ar      1 ML99999     0.0000 
      4 C13        42.4720   13.8180   31.4550 C.ar      1 ML99999     0.0000 
      5 C5         45.7950   13.5940   29.5250 C.ar      1 ML99999     0.0000 
      6 C6         46.4430   12.7580   28.5980 C.ar      1 ML99999     0.0000 
      7 C4         46.5200   14.7270   29.9320 C.ar      1 ML99999     0.0000 
      8 C16        39.9240   13.2110   32.4990 C.ar      1 ML99999     0.0000 
      9 C2         48.3390   14.1230   28.5740 C.ar      1 ML99999     0.0000 
     10 C10        44.4530   13.3450   30.0590 C.2       1 ML99999     0.0000 
     11 C9         43.8490   14.1590   30.9400 C.2       1 ML99999     0.0000 
     12 C8         44.5950   15.4080   31.3970 C.2       1 ML99999     0.0000 
     13 C23        45.9250   18.1900   30.9820 C.3       1 ML99999     0.0000 
     14 C27        47.1110   16.7740   32.8060 C.3       1 ML99999     0.0000 
     15 C24        46.7130   19.4200   31.4470 C.3       1 ML99999     0.0000 
     16 C26        47.8960   18.0330   33.2240 C.3       1 ML99999     0.0000 
     17 C22        46.6960   16.8630   31.2990 C.3       1 ML99999     0.0000 
     18 C25        47.0620   19.3070   32.9540 C.3       1 ML99999     0.0000 
     19 C21        45.8150   11.5160   28.0440 C.3       1 ML99999     0.0000 
     20 C20        37.7090   12.3850   32.2490 C.3       1 ML99999     0.0000 
     21 C30        47.9050   22.5730   34.4790 C.3       1 ML99999     0.0000 
     22 C29        47.0370   21.3660   34.1800 C.3       1 ML99999     0.0000 
     23 N17        40.1740   12.9540   31.1540 N.ar      1 ML99999     0.0000 
     24 N1         47.7000   13.0150   28.1300 N.ar      1 ML99999     0.0000 
     25 N3         47.7800   14.9770   29.4560 N.ar      1 ML99999     0.0000 
     26 N7         45.9050   15.6370   30.8730 N.am      1 ML99999     0.0000 
     27 N12        49.6190   14.3930   28.1040 N.pl3     1 ML99999     0.0000 
     28 O11        44.0460   16.1770   32.2070 O.2       1 ML99999     0.0000 
     29 O31        48.0420   23.3480   33.2880 O.3       1 ML99999     0.0000 
     30 O19        38.6950   12.9420   33.1040 O.3       1 ML99999     0.0000 
     31 O28        47.7820   20.4910   33.3230 O.3       1 ML99999     0.0000 
     32 H          42.8683   14.4542   33.4420 H         1 ML99999     0.0000 
     33 H          40.6704   13.9267   34.3292 H         1 ML99999     0.0000 
     34 H          41.6417   13.0735   29.6512 H         1 ML99999     0.0000 
     35 H          43.9841   12.4770   29.7053 H         1 ML99999     0.0000 
     36 H          45.7624   18.2431   29.9090 H         1 ML99999     0.0000 
     37 H          44.9646   18.1570   31.4889 H         1 ML99999     0.0000 
     38 H          46.2152   16.6896   33.4062 H         1 ML99999     0.0000 
     39 H          47.7313   15.8984   32.9420 H         1 ML99999     0.0000 
     40 H          46.1165   20.3127   31.2921 H         1 ML99999     0.0000 
     41 H          47.6342   19.4964   30.8794 H         1 ML99999     0.0000 
     42 H          48.8170   18.0856   32.6547 H         1 ML99999     0.0000 
     43 H          48.1244   17.9771   34.2822 H         1 ML99999     0.0000 
     44 H          47.6292   16.8878   30.7133 H         1 ML99999     0.0000 
     45 H          46.1338   19.2289   33.4942 H         1 ML99999     0.0000 
     46 H          48.8722   22.2147   34.8420 H         1 ML99999     0.0000 
     47 H          47.4287   23.1441   35.2808 H         1 ML99999     0.0000 
     48 H          46.1218   21.7127   33.7030 H         1 ML99999     0.0000 
     49 H          46.7834   20.8850   35.1233 H         1 ML99999     0.0000 
     50 H          49.7417   15.2708   27.6410 H         1 ML99999     0.0000 
     51 H          50.3067   13.6861   28.2695 H         1 ML99999     0.0000 
     52 H          46.4217   11.0479   27.4015 H         1 ML99999     0.0000 
     53 H          45.5896   10.8605   28.7648 H         1 ML99999     0.0000 
     54 H          44.9666   11.7157   27.5537 H         1 ML99999     0.0000 
     55 H          37.4976   12.9906   31.4818 H         1 ML99999     0.0000 
     56 H          38.0044   11.5121   31.8606 H         1 ML99999     0.0000 
     57 H          36.8508   12.2149   32.7332 H         1 ML99999     0.0000 
     58 H          48.9933   23.6563   33.2880 H         1 ML99999     0.0000 
@<TRIPOS>BOND
     1    2    1 ar   
     2    4    1 ar   
     3   32    1 1    
     4    8    2 ar   
     5   33    2 1    
     6    4    3 ar   
     7   23    3 ar   
     8   34    3 1    
     9   11    4 1    
    10    6    5 ar   
    11    7    5 ar   
    12   10    5 1    
    13   19    6 1    
    14   24    6 ar   
    15   25    7 ar   
    16   26    7 1    
    17   23    8 ar   
    18   30    8 1    
    19   24    9 ar   
    20   25    9 ar   
    21   27    9 1    
    22   11   10 2    
    23   35   10 1    
    24   12   11 1    
    25   26   12 am   
    26   28   12 2    
    27   15   13 1    
    28   17   13 1    
    29   36   13 1    
    30   37   13 1    
    31   16   14 1    
    32   17   14 1    
    33   38   14 1    
    34   39   14 1    
    35   18   15 1    
    36   40   15 1    
    37   41   15 1    
    38   18   16 1    
    39   42   16 1    
    40   43   16 1    
    41   26   17 1    
    42   44   17 1    
    43   31   18 1    
    44   45   18 1    
    45   52   19 1    
    46   53   19 1    
    47   54   19 1    
    48   30   20 1    
    49   55   20 1    
    50   56   20 1    
    51   57   20 1    
    52   22   21 1    
    53   29   21 1    
    54   46   21 1    
    55   47   21 1    
    56   31   22 1    
    57   48   22 1    
    58   49   22 1    
    59   50   27 1    
    60   51   27 1    
    61   58   29 1    
@<TRIPOS>SUBSTRUCTURE
     1 ML99999     1 GROUP   
@<TRIPOS>SET

