#    Name: 4eht_ADP_1_INTS_M
#    Modification time : Mon Mar 24 17:50:54 2014

@<TRIPOS>MOLECULE
4eht_ADP_1_INTS_M
   68     0    15     0     0
SMALL
NO_CHARGES


@<TRIPOS>ATOM
      1 NZ         11.5130   61.4630   13.7265 N.4       3 LYC4        0.0000 
      2 NZ         10.9050   62.9810   14.0740 N.4      13 LYL4        0.0000 
      3 NZ         12.1210   59.9450   13.3790 N.4       8 LYP4        0.0000 
      4 N           9.6240   63.7675   14.0940 N.am      2 SEC2        0.0000 
      5 N          10.9050   62.9810   14.0740 N.am     12 SEL2        0.0000 
      6 N           8.3430   64.5540   14.1140 N.am      7 SEP2        0.0000 
      7 N           9.8825   62.7770   13.0955 N.am      2 SEC2        0.0000 
      8 N           8.8600   62.5730   12.1170 N.am      7 SEP2        0.0000 
      9 NZ         12.5785   60.9780   14.2225 N.4       3 LYC4        0.0000 
     10 NZ         13.0360   62.0110   15.0660 N.4      13 LYL4        0.0000 
     11 Zn         13.7340   61.7615   15.8465 Zn        4 ZIC7        0.0000 
     12 Zn         13.0360   62.0110   15.0660 Zn       14 ZIL7        0.0000 
     13 Zn         14.4320   61.5120   16.6270 Zn        9 ZIP7        0.0000 
     14 N          12.5785   60.9780   14.2225 N.am      2 SEC2        0.0000 
     15 N          13.0360   62.0110   15.0660 N.am     12 SEL2        0.0000 
     16 N          12.1210   59.9450   13.3790 N.am      7 SEP2        0.0000 
     17 NZ         12.6615   60.9610   12.5410 N.4       3 LYC4        0.0000 
     18 NZ         13.2020   61.9770   11.7030 N.4      13 LYL4        0.0000 
     19 N          12.6615   60.9610   12.5410 N.am      2 SEC2        0.0000 
     20 N          13.2020   61.9770   11.7030 N.am     12 SEL2        0.0000 
     21 N          13.3275   61.5990   10.3705 N.am      2 SEC2        0.0000 
     22 N          13.4530   61.2210    9.0380 N.am      7 SEP2        0.0000 
     23 N          16.3440   62.6750   11.8845 N.am      2 SEC2        0.0000 
     24 N          15.3460   62.5980   13.0150 N.am     12 SEL2        0.0000 
     25 N          17.3420   62.7520   10.7540 N.am      7 SEP2        0.0000 
     26 N          13.4245   65.3955   13.5040 N.am      2 SEC2        0.0000 
     27 N          13.1090   63.8610   13.3670 N.am     12 SEL2        0.0000 
     28 N          13.7400   66.9300   13.6410 N.am      7 SEP2        0.0000 
     29 N          15.8805   63.4275   10.9960 N.am      2 SEC2        0.0000 
     30 N          14.4190   64.1030   11.2380 N.am     12 SEL2        0.0000 
     31 CA         11.5285   65.4840   10.7490 C.3       5 GLC5        0.0000 
     32 CA         13.4010   64.8710   10.6300 C.3      15 GLL5        0.0000 
     33 CA          9.6560   66.0970   10.8680 C.3      10 GLP5        0.0000 
     34 CA         15.8700   66.9955    9.9830 C.3       5 GLC5        0.0000 
     35 CA         14.0880   65.9520    9.8060 C.3      15 GLL5        0.0000 
     36 CA         17.6520   68.0390   10.1600 C.3      10 GLP5        0.0000 
     37 CA         11.3520   66.4430    9.9705 C.3       5 GLC5        0.0000 
     38 CA         13.0480   66.7890    9.0730 C.3      15 GLL5        0.0000 
     39 O          12.3345   69.2180    8.9880 O.2       1 ALC1        0.0000 
     40 O          13.1900   68.1490    9.4720 O.2      11 ALL1        0.0000 
     41 O          11.4790   70.2870    8.5040 O.2       6 ALP1        0.0000 
     42 O          13.0505   69.1055    6.8220 O.2       1 ALC1        0.0000 
     43 O          13.1360   67.6800    6.7500 O.2      11 ALL1        0.0000 
     44 O          12.9650   70.5310    6.8940 O.2       6 ALP1        0.0000 
     45 CA         15.9225   64.5755    8.4915 C.3       5 GLC5        0.0000 
     46 CA         14.8390   66.1700    7.6180 C.3      15 GLL5        0.0000 
     47 CA         17.0060   62.9810    9.3650 C.3      10 GLP5        0.0000 
     48 CA         16.2455   67.1045    8.8890 C.3       5 GLC5        0.0000 
     49 CA         16.7685   62.7315    5.0340 C.3       5 GLC5        0.0000 
     50 CA         15.8250   64.3730    4.5610 C.3      15 GLL5        0.0000 
     51 CA         17.7120   61.0900    5.5070 C.3      10 GLP5        0.0000 
     52 CA         16.7180   65.5730    1.7470 C.3       5 GLC5        0.0000 
     53 CA         16.7160   64.2990    3.3820 C.3      15 GLL5        0.0000 
     54 CA         16.7200   66.8470    0.1120 C.3      10 GLP5        0.0000 
     55 CA         18.1615   63.5025    4.2200 C.3       5 GLC5        0.0000 
     56 CA         19.6070   62.7060    5.0580 C.3      10 GLP5        0.0000 
     57 CA         15.8630   67.2915    3.6615 C.3       5 GLC5        0.0000 
     58 CA         17.7700   66.2730    4.1270 C.3      15 GLL5        0.0000 
     59 CA         13.9560   68.3100    3.1960 C.3      10 GLP5        0.0000 
     60 CA         17.2450   66.5600    2.1195 C.3       5 GLC5        0.0000 
     61 CA         18.6885   64.4895    4.5925 C.3       5 GLC5        0.0000 
     62 CA         19.5215   67.1115    4.5380 C.3       5 GLC5        0.0000 
     63 CA         21.2730   67.9500    4.9490 C.3      10 GLP5        0.0000 
     64 CA         14.9785   66.9060    4.3435 C.3       5 GLC5        0.0000 
     65 CA         16.0010   65.5020    5.4910 C.3      15 GLL5        0.0000 
     66 CA         15.3753   64.1962    9.7915 C.3       5 GLC5        0.0000 
     67 CA         13.1151   67.0001   11.3543 C.3       5 GLC5        0.0000 
     68 CA         12.8340   67.9000   13.0630 C.3      10 GLP5        0.0000 
@<TRIPOS>BOND
@<TRIPOS>SUBSTRUCTURE
     1 ALC1       39 GROUP        1 X    ALC  0     ROOT ALC X 1
     2 SEC2        4 GROUP        1 X    SEC  0     **** SEC X 2
     3 LYC4        1 GROUP        1 X    LYC  0     **** LYC X 4
     4 ZIC7       11 GROUP        1 X    ZIC  0     **** ZIC X 5
     5 GLC5       31 GROUP        1 X    GLC  0     **** GLC X 6
     6 ALP1       41 GROUP        1 Y    ALP  0     ROOT ALP Y 8
     7 SEP2        6 GROUP        1 Y    SEP  0     **** SEP Y 9
     8 LYP4        3 GROUP        1 Y    LYP  0     **** LYP Y 11
     9 ZIP7       13 GROUP        1 Y    ZIP  0     **** ZIP Y 12
    10 GLP5       33 GROUP        1 Y    GLP  0     **** GLP Y 13
    11 ALL1       40 GROUP        1 Z    ALL  0     ROOT ALL Z 15
    12 SEL2        5 GROUP        1 Z    SEL  0     **** SEL Z 16
    13 LYL4        2 GROUP        1 Z    LYL  0     **** LYL Z 18
    14 ZIL7       12 GROUP        1 Z    ZIL  0     **** ZIL Z 19
    15 GLL5       32 GROUP        1 Z    GLL  0     **** GLL Z 20
@<TRIPOS>SET

