#    Name: 4eht_ADP_1_ligand
#    Modification time : Mon Mar 24 17:50:54 2014

@<TRIPOS>MOLECULE
4eht_ADP_1_ligand
   39    41     1     0     0
SMALL
NO_CHARGES


@<TRIPOS>ATOM
      1 PB         12.2730   63.2360   14.6240 P.3       1 ADP302      0.0000 
      2 O1B        10.9050   62.9810   14.0740 O.co2     1 ADP302      0.0000 
      3 O2B        12.3580   64.2980   15.6860 O.co2     1 ADP302      0.0000 
      4 O3B        13.0360   62.0110   15.0660 O.co2     1 ADP302      0.0000 
      5 PA         14.0710   63.0180   12.3460 P.3       1 ADP302      0.0000 
      6 O1A        13.2020   61.9770   11.7030 O.co2     1 ADP302      0.0000 
      7 O2A        15.3460   62.5980   13.0150 O.co2     1 ADP302      0.0000 
      8 O3A        13.1090   63.8610   13.3670 O.3       1 ADP302      0.0000 
      9 O5'        14.4190   64.1030   11.2380 O.3       1 ADP302      0.0000 
     10 C5'        13.4010   64.8710   10.6300 C.3       1 ADP302      0.0000 
     11 C4'        14.0880   65.9520    9.8060 C.3       1 ADP302      0.0000 
     12 O4'        14.9560   65.3950    8.8120 O.3       1 ADP302      0.0000 
     13 C3'        13.0480   66.7890    9.0730 C.3       1 ADP302      0.0000 
     14 O3'        13.1900   68.1490    9.4720 O.3       1 ADP302      0.0000 
     15 C2'        13.3760   66.5670    7.6070 C.3       1 ADP302      0.0000 
     16 O2'        13.1360   67.6800    6.7500 O.3       1 ADP302      0.0000 
     17 C1'        14.8390   66.1700    7.6180 C.3       1 ADP302      0.0000 
     18 N9         15.0820   65.3240    6.4460 N.pl3     1 ADP302      0.0000 
     19 C8         14.3620   64.2160    6.1790 C.2       1 ADP302      0.0000 
     20 N7         14.8040   63.6260    5.0410 N.2       1 ADP302      0.0000 
     21 C5         15.8250   64.3730    4.5610 C.ar      1 ADP302      0.0000 
     22 C6         16.7160   64.2990    3.3820 C.ar      1 ADP302      0.0000 
     23 N6         16.5700   63.2710    2.5060 N.pl3     1 ADP302      0.0000 
     24 N1         17.6650   65.2630    3.2290 N.ar      1 ADP302      0.0000 
     25 C2         17.7700   66.2730    4.1270 C.ar      1 ADP302      0.0000 
     26 N3         16.9760   66.4060    5.2210 N.ar      1 ADP302      0.0000 
     27 C4         16.0010   65.5020    5.4910 C.ar      1 ADP302      0.0000 
     28 H          12.7619   65.3632   11.3598 H         1 ADP302      0.0000 
     29 H          12.7829   64.2806    9.9572 H         1 ADP302      0.0000 
     30 H          14.6280   66.6076   10.4691 H         1 ADP302      0.0000 
     31 H          12.0947   66.3783    9.2806 H         1 ADP302      0.0000 
     32 H          12.8234   65.6762    7.2897 H         1 ADP302      0.0000 
     33 H          15.4266   67.0244    7.6304 H         1 ADP302      0.0000 
     34 H          13.6240   63.8812    6.7263 H         1 ADP302      0.0000 
     35 H          15.8470   62.6129    2.7164 H         1 ADP302      0.0000 
     36 H          17.1984   63.2631    1.7281 H         1 ADP302      0.0000 
     37 H          18.5245   67.0115    3.9651 H         1 ADP302      0.0000 
     38 H          12.4884   68.6437    8.9591 H         1 ADP302      0.0000 
     39 H          13.1875   68.4813    7.3461 H         1 ADP302      0.0000 
@<TRIPOS>BOND
     1    2    1 ar   
     2    3    1 ar   
     3    4    1 ar   
     4    8    1 1    
     5    6    5 ar   
     6    7    5 ar   
     7    8    5 1    
     8    9    5 1    
     9   10    9 1    
    10   11   10 1    
    11   28   10 1    
    12   29   10 1    
    13   12   11 1    
    14   13   11 1    
    15   30   11 1    
    16   17   12 1    
    17   14   13 1    
    18   15   13 1    
    19   31   13 1    
    20   38   14 1    
    21   16   15 1    
    22   17   15 1    
    23   32   15 1    
    24   39   16 1    
    25   18   17 1    
    26   33   17 1    
    27   19   18 1    
    28   27   18 1    
    29   20   19 2    
    30   34   19 1    
    31   21   20 1    
    32   22   21 ar   
    33   27   21 ar   
    34   23   22 1    
    35   24   22 ar   
    36   35   23 1    
    37   36   23 1    
    38   25   24 ar   
    39   26   25 ar   
    40   37   25 1    
    41   27   26 ar   
@<TRIPOS>SUBSTRUCTURE
     1 ADP302      1 GROUP   
@<TRIPOS>SET

