#    Name: 2wti_WTI_1_INTS_M
#    Modification time : Tue Mar 25 04:38:28 2014

@<TRIPOS>MOLECULE
2wti_WTI_1_INTS_M
   68     0     9     0     0
SMALL
NO_CHARGES


@<TRIPOS>ATOM
      1 O         -44.2830   13.7490  -14.8650 O.2       1 ALC1        0.0000 
      2 O         -45.1480   14.3200  -13.6520 O.2       7 ALL1        0.0000 
      3 O         -43.4180   13.1780  -16.0780 O.2       4 ALP1        0.0000 
      4 N         -47.1190   12.2930  -14.7880 N.am      2 SEC2        0.0000 
      5 N         -46.5170   12.4830  -13.4470 N.am      8 SEL2        0.0000 
      6 N         -47.7210   12.1030  -16.1290 N.am      5 SEP2        0.0000 
      7 CA        -44.0385   18.3770   -6.9710 C.3       3 GLC5        0.0000 
      8 CA        -46.0260   19.1250   -6.2590 C.3       9 GLL5        0.0000 
      9 CA        -42.0510   17.6290   -7.6830 C.3       6 GLP5        0.0000 
     10 CA        -49.3385   21.0365   -3.4400 C.3       3 GLC5        0.0000 
     11 CA        -47.8170   20.7530   -2.0640 C.3       9 GLL5        0.0000 
     12 CA        -50.8600   21.3200   -4.8160 C.3       6 GLP5        0.0000 
     13 CA        -47.9510   17.6520   -0.7860 C.3       3 GLC5        0.0000 
     14 CA        -48.0260   19.2280   -1.8630 C.3       9 GLL5        0.0000 
     15 CA        -47.8760   16.0760    0.2910 C.3       6 GLP5        0.0000 
     16 CA        -49.2295   18.9830   -5.0555 C.3       3 GLC5        0.0000 
     17 CA        -47.4420   18.8790   -4.1600 C.3       9 GLL5        0.0000 
     18 CA        -51.0170   19.0870   -5.9510 C.3       6 GLP5        0.0000 
     19 CA        -50.1385   16.3030   -4.2965 C.3       3 GLC5        0.0000 
     20 CA        -48.5370   16.2380   -5.0500 C.3       9 GLL5        0.0000 
     21 CA        -51.7400   16.3680   -3.5430 C.3       6 GLP5        0.0000 
     22 CA        -48.2925   14.7810   -3.6810 C.3       3 GLC5        0.0000 
     23 CA        -48.0480   13.3240   -2.3120 C.3       6 GLP5        0.0000 
     24 N         -49.1660   14.2045   -4.2760 N.am      2 SEC2        0.0000 
     25 N         -49.0420   14.9690   -5.4860 N.am      8 SEL2        0.0000 
     26 N         -49.2900   13.4400   -3.0660 N.am      5 SEP2        0.0000 
     27 CA        -50.4520   14.6530   -6.9885 C.3       3 GLC5        0.0000 
     28 CA        -48.6630   14.4410   -6.7530 C.3       9 GLL5        0.0000 
     29 CA        -52.2410   14.8650   -7.2240 C.3       6 GLP5        0.0000 
     30 CA        -47.7855   13.6470   -4.9855 C.3       3 GLC5        0.0000 
     31 CA        -46.9080   12.8530   -3.2180 C.3       6 GLP5        0.0000 
     32 CA        -47.0115   13.5075   -6.9795 C.3       3 GLC5        0.0000 
     33 CA        -45.3600   12.5740   -7.2060 C.3       6 GLP5        0.0000 
     34 O         -50.0385   12.3285   -6.2865 O.2       1 ALC1        0.0000 
     35 O         -49.2330   13.1650   -7.1670 O.2       7 ALL1        0.0000 
     36 O         -50.8440   11.4920   -5.4060 O.2       4 ALP1        0.0000 
     37 CA        -46.0800   11.7475  -10.6200 C.3       3 GLC5        0.0000 
     38 CA        -47.6100   13.1790  -10.8630 C.3       9 GLL5        0.0000 
     39 CA        -44.5500   10.3160  -10.3770 C.3       6 GLP5        0.0000 
     40 CA        -47.5542   15.9752  -11.4677 C.3       3 GLC5        0.0000 
     41 CA        -46.5490   13.8890  -11.5360 C.3       9 GLL5        0.0000 
     42 CA        -48.8940   17.4940  -11.7220 C.3       6 GLP5        0.0000 
     43 CA        -48.0808   13.6485  -13.0388 C.3       3 GLC5        0.0000 
     44 CA        -49.0820   13.7630  -14.8780 C.3       6 GLP5        0.0000 
     45 CA        -44.9232   12.9797  -10.9413 C.3       3 GLC5        0.0000 
     46 CA        -43.6320   11.5030  -10.6690 C.3       6 GLP5        0.0000 
     47 CA        -45.7175   13.8993   -8.7168 C.3       3 GLC5        0.0000 
     48 CA        -45.8800   15.0240  -10.8910 C.3       9 GLL5        0.0000 
     49 CA        -47.8487   16.2822  -10.4723 C.3       3 GLC5        0.0000 
     50 CA        -47.3370   14.7160   -8.8810 C.3       9 GLL5        0.0000 
     51 CA        -48.8490   16.8295   -8.5183 C.3       3 GLC5        0.0000 
     52 CA        -47.7380   15.1870   -7.6190 C.3       9 GLL5        0.0000 
     53 CA        -50.2070   17.8370   -9.6310 C.3       6 GLP5        0.0000 
     54 CA        -46.3754   14.1391   -7.4635 C.3       3 GLC5        0.0000 
     55 CA        -47.2440   16.4570   -7.1920 C.3       9 GLL5        0.0000 
     56 CA        -49.5500   17.8470   -5.7152 C.3       3 GLC5        0.0000 
     57 CA        -47.6290   16.9760   -5.9090 C.3       9 GLL5        0.0000 
     58 CA        -48.0685   19.7873   -6.3948 C.3       3 GLC5        0.0000 
     59 CA        -47.1200   18.2100   -5.4660 C.3       9 GLL5        0.0000 
     60 CA        -49.5640   20.9070   -6.9270 C.3       6 GLP5        0.0000 
     61 CA        -47.8548   20.6100   -5.8208 C.3       3 GLC5        0.0000 
     62 CA        -45.7230   20.3720   -5.3610 C.3       9 GLL5        0.0000 
     63 CA        -49.2730   12.4537  -10.6780 C.3       3 GLC5        0.0000 
     64 CA        -48.0060   13.5860   -9.5310 C.3       9 GLL5        0.0000 
     65 CA        -50.7380   11.5250  -11.1590 C.3       6 GLP5        0.0000 
     66 CA        -46.5840   12.9782   -8.7015 C.3       3 GLC5        0.0000 
     67 CA        -45.2272   18.4681   -4.0114 C.3       3 GLC5        0.0000 
     68 CA        -43.8780   17.3930   -3.1600 C.3       6 GLP5        0.0000 
@<TRIPOS>BOND
@<TRIPOS>SUBSTRUCTURE
     1 ALC1        1 GROUP        1 X    ALC  0     ROOT ALC X 1
     2 SEC2        4 GROUP        1 X    SEC  0     **** SEC X 2
     3 GLC5        7 GROUP        1 X    GLC  0     **** GLC X 6
     4 ALP1        3 GROUP        1 Y    ALP  0     ROOT ALP Y 8
     5 SEP2        6 GROUP        1 Y    SEP  0     **** SEP Y 9
     6 GLP5        9 GROUP        1 Y    GLP  0     **** GLP Y 13
     7 ALL1        2 GROUP        1 Z    ALL  0     ROOT ALL Z 15
     8 SEL2        5 GROUP        1 Z    SEL  0     **** SEL Z 16
     9 GLL5        8 GROUP        1 Z    GLL  0     **** GLL Z 20
@<TRIPOS>SET

