#    Name: 2wti_WTI_1_ligand
#    Modification time : Tue Mar 25 04:38:28 2014

@<TRIPOS>MOLECULE
2wti_WTI_1_ligand
   40    43     1     0     0
SMALL
NO_CHARGES


@<TRIPOS>ATOM
      1 N01       -45.1480   14.3200  -13.6520 N.am      1 WTI1513     0.0000 
      2 C02       -46.1060   13.4790  -12.9480 C.2       1 WTI1513     0.0000 
      3 O03       -46.5170   12.4830  -13.4470 O.2       1 WTI1513     0.0000 
      4 C04       -46.5490   13.8890  -11.5360 C.ar      1 WTI1513     0.0000 
      5 C05       -45.8800   15.0240  -10.8910 C.ar      1 WTI1513     0.0000 
      6 C06       -46.2700   15.4250   -9.5640 C.ar      1 WTI1513     0.0000 
      7 C07       -47.3370   14.7160   -8.8810 C.ar      1 WTI1513     0.0000 
      8 C08       -47.7380   15.1870   -7.6190 C.ar      1 WTI1513     0.0000 
      9 C09       -47.2440   16.4570   -7.1920 C.ar      1 WTI1513     0.0000 
     10 C10       -47.6290   16.9760   -5.9090 C.ar      1 WTI1513     0.0000 
     11 C11       -47.1200   18.2100   -5.4660 C.2       1 WTI1513     0.0000 
     12 S12       -46.0260   19.1250   -6.2590 S.3       1 WTI1513     0.0000 
     13 C13       -45.7230   20.3720   -5.3610 C.2       1 WTI1513     0.0000 
     14 C14       -46.5680   20.2540   -4.0680 C.2       1 WTI1513     0.0000 
     15 O15       -46.6780   21.0800   -2.9010 O.3       1 WTI1513     0.0000 
     16 C16       -47.8170   20.7530   -2.0640 C.3       1 WTI1513     0.0000 
     17 C17       -48.0260   19.2280   -1.8630 C.3       1 WTI1513     0.0000 
     18 O18       -48.3240   18.5310   -3.0950 O.3       1 WTI1513     0.0000 
     19 C19       -47.4420   18.8790   -4.1600 C.2       1 WTI1513     0.0000 
     20 C20       -48.5370   16.2380   -5.0500 C.ar      1 WTI1513     0.0000 
     21 N21       -49.0420   14.9690   -5.4860 N.ar      1 WTI1513     0.0000 
     22 C22       -48.6630   14.4410   -6.7530 C.ar      1 WTI1513     0.0000 
     23 N23       -49.2330   13.1650   -7.1670 N.pl3     1 WTI1513     0.0000 
     24 C24       -48.0060   13.5860   -9.5310 C.ar      1 WTI1513     0.0000 
     25 C25       -47.6100   13.1790  -10.8630 C.ar      1 WTI1513     0.0000 
     26 H         -44.8585   15.1505  -13.1761 H         1 WTI1513     0.0000 
     27 H         -44.8585   13.9977  -14.5533 H         1 WTI1513     0.0000 
     28 H         -45.1523   15.5132  -11.3841 H         1 WTI1513     0.0000 
     29 H         -45.8069   16.1948   -9.1064 H         1 WTI1513     0.0000 
     30 H         -46.6250   16.9921   -7.7880 H         1 WTI1513     0.0000 
     31 H         -45.1649   21.0250   -5.5651 H         1 WTI1513     0.0000 
     32 H         -48.7557   21.1573   -2.4910 H         1 WTI1513     0.0000 
     33 H         -47.7154   21.2037   -1.0573 H         1 WTI1513     0.0000 
     34 H         -48.8395   19.1054   -1.1249 H         1 WTI1513     0.0000 
     35 H         -47.1086   18.8333   -1.3896 H         1 WTI1513     0.0000 
     36 H         -48.8047   16.6202   -4.1584 H         1 WTI1513     0.0000 
     37 H         -48.6569   12.5951   -7.7529 H         1 WTI1513     0.0000 
     38 H         -50.1532   12.9645   -6.8310 H         1 WTI1513     0.0000 
     39 H         -48.7398   13.0977   -9.0454 H         1 WTI1513     0.0000 
     40 H         -48.0720   12.4074  -11.3137 H         1 WTI1513     0.0000 
@<TRIPOS>BOND
     1    2    1 am   
     2   26    1 1    
     3   27    1 1    
     4    3    2 2    
     5    4    2 1    
     6    5    4 ar   
     7   25    4 ar   
     8    6    5 ar   
     9   28    5 1    
    10    7    6 ar   
    11   29    6 1    
    12    8    7 1    
    13   24    7 ar   
    14    9    8 ar   
    15   22    8 ar   
    16   10    9 ar   
    17   30    9 1    
    18   11   10 1    
    19   20   10 ar   
    20   12   11 1    
    21   19   11 2    
    22   13   12 1    
    23   14   13 2    
    24   31   13 1    
    25   15   14 1    
    26   19   14 1    
    27   16   15 1    
    28   17   16 1    
    29   32   16 1    
    30   33   16 1    
    31   18   17 1    
    32   34   17 1    
    33   35   17 1    
    34   19   18 1    
    35   21   20 ar   
    36   36   20 1    
    37   22   21 ar   
    38   23   22 1    
    39   37   23 1    
    40   38   23 1    
    41   25   24 ar   
    42   39   24 1    
    43   40   25 1    
@<TRIPOS>SUBSTRUCTURE
     1 WTI1513     1 GROUP   
@<TRIPOS>SET

