#    Name: 2zoq_5ID_1_INTS_M
#    Modification time : Tue Mar 25 10:56:15 2014

@<TRIPOS>MOLECULE
2zoq_5ID_1_INTS_M
   53     0     9     0     0
SMALL
NO_CHARGES


@<TRIPOS>ATOM
      1 N          26.4325    7.1760   14.1130 N.am      2 SEC2        0.0000 
      2 N          26.7550    8.4290   14.9830 N.am      8 SEL2        0.0000 
      3 N          26.1100    5.9230   13.2430 N.am      5 SEP2        0.0000 
      4 CA         27.6130   11.5455   14.5105 C.3       3 GLC5        0.0000 
      5 CA         27.6450    9.4940   15.0450 C.3       9 GLL5        0.0000 
      6 CA         27.5810   13.5970   13.9760 C.3       6 GLP5        0.0000 
      7 CA         26.2260   10.3940   13.9700 C.3       3 GLC5        0.0000 
      8 CA         24.8070   11.2940   12.8950 C.3       6 GLP5        0.0000 
      9 CA         30.2950    9.4330   19.1440 C.3       3 GLC5        0.0000 
     10 CA         29.7360    8.3050   17.6810 C.3       9 GLL5        0.0000 
     11 CA         30.8540   10.5610   20.6070 C.3       6 GLP5        0.0000 
     12 CA         30.6975    4.3030   21.8540 C.3       3 GLC5        0.0000 
     13 CA         28.9100    5.4230   21.4470 C.3       9 GLL5        0.0000 
     14 CA         32.4850    3.1830   22.2610 C.3       6 GLP5        0.0000 
     15 N          30.8280    5.0525   23.1260 N.am      2 SEC2        0.0000 
     16 N          30.0810    5.8620   21.9880 N.am      8 SEL2        0.0000 
     17 N          31.5750    4.2430   24.2640 N.am      5 SEP2        0.0000 
     18 CA         30.8635    8.6615   21.0085 C.3       3 GLC5        0.0000 
     19 CA         30.8730    6.7620   21.4100 C.3       9 GLL5        0.0000 
     20 CA         31.0445    7.0035   23.3880 C.3       3 GLC5        0.0000 
     21 CA         31.2160    7.2450   25.3660 C.3       6 GLP5        0.0000 
     22 CA         31.6790    4.9725   21.8355 C.3       3 GLC5        0.0000 
     23 CA         31.0885    5.5480   19.5980 C.3       3 GLC5        0.0000 
     24 CA         31.3040    4.3340   17.7860 C.3       6 GLP5        0.0000 
     25 CA         30.1425    8.7210   20.1395 C.3       3 GLC5        0.0000 
     26 CA         29.4310    6.8810   19.6720 C.3       9 GLL5        0.0000 
     27 CA         30.3675    5.6075   18.7290 C.3       3 GLC5        0.0000 
     28 O          28.1935    3.7430   23.2920 O.2       1 ALC1        0.0000 
     29 O          28.1770    4.5120   22.1140 O.2       7 ALL1        0.0000 
     30 O          28.2100    2.9740   24.4700 O.2       4 ALP1        0.0000 
     31 O          30.8125    6.5205   13.9000 O.2       1 ALC1        0.0000 
     32 O          30.1940    7.8960   14.0610 O.2       7 ALL1        0.0000 
     33 O          31.4310    5.1450   13.7390 O.2       4 ALP1        0.0000 
     34 CA         25.7560    6.9170   19.7760 C.3       3 GLC5        0.0000 
     35 CA         25.7510    4.7200   19.3300 C.3       9 GLL5        0.0000 
     36 CA         25.7610    9.1140   20.2220 C.3       6 GLP5        0.0000 
     37 CA         27.6890    3.8720   19.2245 C.3       3 GLC5        0.0000 
     38 CA         29.6270    3.0240   19.1190 C.3       6 GLP5        0.0000 
     39 CA         26.8315    4.0585   17.6465 C.3       3 GLC5        0.0000 
     40 CA         27.9120    3.3970   15.9630 C.3       6 GLP5        0.0000 
     41 CA         26.9255    9.7002   16.6700 C.3       3 GLC5        0.0000 
     42 CA         28.9610    9.1890   15.7230 C.3       9 GLL5        0.0000 
     43 CA         25.5480   10.0590   17.9560 C.3       6 GLP5        0.0000 
     44 CA         30.6887    6.1517   17.4295 C.3       3 GLC5        0.0000 
     45 CA         28.6375    4.6598   18.9303 C.3       3 GLC5        0.0000 
     46 CA         27.8390    6.7360   18.2180 C.3       9 GLL5        0.0000 
     47 CA         27.7800    4.8462   17.3522 C.3       3 GLC5        0.0000 
     48 CA         27.4570    5.8550   19.2650 C.3       9 GLL5        0.0000 
     49 CA         27.8843    6.2353   22.4640 C.3       3 GLC5        0.0000 
     50 CA         28.5470    5.9440   20.2410 C.3       9 GLL5        0.0000 
     51 CA         27.0400    6.7870   24.0840 C.3       6 GLP5        0.0000 
     52 CA         29.1777    4.3537   19.9815 C.3       3 GLC5        0.0000 
     53 CA         27.0397    7.7340   19.7855 C.3       3 GLC5        0.0000 
@<TRIPOS>BOND
@<TRIPOS>SUBSTRUCTURE
     1 ALC1       28 GROUP        1 X    ALC  0     ROOT ALC X 1
     2 SEC2        1 GROUP        1 X    SEC  0     **** SEC X 2
     3 GLC5        4 GROUP        1 X    GLC  0     **** GLC X 6
     4 ALP1       30 GROUP        1 Y    ALP  0     ROOT ALP Y 8
     5 SEP2        3 GROUP        1 Y    SEP  0     **** SEP Y 9
     6 GLP5        6 GROUP        1 Y    GLP  0     **** GLP Y 13
     7 ALL1       29 GROUP        1 Z    ALL  0     ROOT ALL Z 15
     8 SEL2        2 GROUP        1 Z    SEL  0     **** SEL Z 16
     9 GLL5        5 GROUP        1 Z    GLL  0     **** GLL Z 20
@<TRIPOS>SET

