#    Name: 2zoq_5ID_1_ligand
#    Modification time : Tue Mar 25 10:56:15 2014

@<TRIPOS>MOLECULE
2zoq_5ID_1_ligand
   33    35     1     0     0
SMALL
NO_CHARGES


@<TRIPOS>ATOM
      1 O5'        26.7550    8.4290   14.9830 O.3       1 5ID382      0.0000 
      2 C5'        27.6450    9.4940   15.0450 C.3       1 5ID382      0.0000 
      3 C4'        28.9610    9.1890   15.7230 C.3       1 5ID382      0.0000 
      4 O4'        28.8080    9.2050   17.1410 O.3       1 5ID382      0.0000 
      5 C1'        29.7360    8.3050   17.6810 C.3       1 5ID382      0.0000 
      6 N9         29.0210    7.3310   18.4930 N.pl3     1 5ID382      0.0000 
      7 C8         27.8390    6.7360   18.2180 C.2       1 5ID382      0.0000 
      8 C7         27.4570    5.8550   19.2650 C.2       1 5ID382      0.0000 
      9 C5         28.5470    5.9440   20.2410 C.ar      1 5ID382      0.0000 
     10 C6         28.9100    5.4230   21.4470 C.ar      1 5ID382      0.0000 
     11 N1         30.0810    5.8620   21.9880 N.ar      1 5ID382      0.0000 
     12 C2         30.8730    6.7620   21.4100 C.ar      1 5ID382      0.0000 
     13 N3         30.5870    7.3120   20.2310 N.ar      1 5ID382      0.0000 
     14 C4         29.4310    6.8810   19.6720 C.ar      1 5ID382      0.0000 
     15 N6         28.1770    4.5120   22.1140 N.pl3     1 5ID382      0.0000 
     16 C2'        30.4110    7.6340   16.4650 C.3       1 5ID382      0.0000 
     17 O2'        31.4800    8.5240   16.1750 O.3       1 5ID382      0.0000 
     18 C3'        29.4540    7.8250   15.2970 C.3       1 5ID382      0.0000 
     19 O3'        30.1940    7.8960   14.0610 O.3       1 5ID382      0.0000 
     20 IAE        25.7510    4.7200   19.3300 I         1 5ID382      0.0000 
     21 H          27.1993   10.3781   15.5795 H         1 5ID382      0.0000 
     22 H          27.8894    9.8921   14.0214 H         1 5ID382      0.0000 
     23 H          29.6887    9.9231   15.4039 H         1 5ID382      0.0000 
     24 H          30.4909    8.8027   18.2390 H         1 5ID382      0.0000 
     25 H          27.2970    6.8671   17.4257 H         1 5ID382      0.0000 
     26 H          31.7675    7.0532   21.9075 H         1 5ID382      0.0000 
     27 H          28.5234    4.2405   23.0119 H         1 5ID382      0.0000 
     28 H          27.3514    4.1880   21.6521 H         1 5ID382      0.0000 
     29 H          30.6490    6.6952   16.6347 H         1 5ID382      0.0000 
     30 H          28.7031    7.1437   15.3567 H         1 5ID382      0.0000 
     31 H          25.8606    8.8481   14.8269 H         1 5ID382      0.0000 
     32 H          31.5155    8.5691   15.1766 H         1 5ID382      0.0000 
     33 H          30.6045    6.9906   13.9529 H         1 5ID382      0.0000 
@<TRIPOS>BOND
     1    2    1 1    
     2   31    1 1    
     3    3    2 1    
     4   21    2 1    
     5   22    2 1    
     6    4    3 1    
     7   18    3 1    
     8   23    3 1    
     9    5    4 1    
    10    6    5 1    
    11   16    5 1    
    12   24    5 1    
    13    7    6 1    
    14   14    6 1    
    15    8    7 2    
    16   25    7 1    
    17    9    8 1    
    18   20    8 1    
    19   10    9 ar   
    20   14    9 ar   
    21   11   10 ar   
    22   15   10 1    
    23   12   11 ar   
    24   13   12 ar   
    25   26   12 1    
    26   14   13 ar   
    27   27   15 1    
    28   28   15 1    
    29   17   16 1    
    30   18   16 1    
    31   29   16 1    
    32   32   17 1    
    33   19   18 1    
    34   30   18 1    
    35   33   19 1    
@<TRIPOS>SUBSTRUCTURE
     1 5ID382      1 GROUP   
@<TRIPOS>SET

