#    Name: 4hai_I23_1_INTS_M
#    Modification time : Tue Mar 25 00:45:29 2014

@<TRIPOS>MOLECULE
4hai_I23_1_INTS_M
   56     0     6     0     0
SMALL
NO_CHARGES


@<TRIPOS>ATOM
      1 N          16.1295    9.2975   16.6665 N.am      1 SEC2        0.0000 
      2 N          16.8890   10.7120   17.2100 N.am      5 SEL2        0.0000 
      3 N          15.3700    7.8830   16.1230 N.am      3 SEP2        0.0000 
      4 N          18.1815   10.4340   17.2565 N.am      1 SEC2        0.0000 
      5 N          19.4740   10.1560   17.3030 N.am      3 SEP2        0.0000 
      6 CA         16.6590   12.6795   19.3125 C.3       2 GLC5        0.0000 
      7 CA         14.8690   12.0960   18.8600 C.3       6 GLL5        0.0000 
      8 CA         18.4490   13.2630   19.7650 C.3       4 GLP5        0.0000 
      9 CA         15.6330   13.3655   20.6835 C.3       2 GLC5        0.0000 
     10 CA         13.9400   12.9710   19.7110 C.3       6 GLL5        0.0000 
     11 CA         17.3260   13.7600   21.6560 C.3       4 GLP5        0.0000 
     12 CA         12.3460   14.3375   19.4320 C.3       2 GLC5        0.0000 
     13 CA         10.7520   15.7040   19.1530 C.3       4 GLP5        0.0000 
     14 CA         14.7015   12.8160   22.2905 C.3       2 GLC5        0.0000 
     15 CA         13.1740   12.2420   20.8210 C.3       6 GLL5        0.0000 
     16 CA         16.2290   13.3900   23.7600 C.3       4 GLP5        0.0000 
     17 CA         12.8065   13.8045   22.2905 C.3       2 GLC5        0.0000 
     18 CA         12.4390   15.3670   23.7600 C.3       4 GLP5        0.0000 
     19 CA         11.4185   11.5595   18.2495 C.3       2 GLC5        0.0000 
     20 CA         12.1990   11.2250   20.2580 C.3       6 GLL5        0.0000 
     21 CA         10.6380   11.8940   16.2410 C.3       4 GLP5        0.0000 
     22 CA         19.2355   11.9195   11.6595 C.3       2 GLC5        0.0000 
     23 CA         18.5310   10.5850   13.2630 C.3       6 GLL5        0.0000 
     24 CA         19.9400   13.2540   10.0560 C.3       4 GLP5        0.0000 
     25 CA         14.5570    9.1500   11.9010 C.3       2 GLC5        0.0000 
     26 CA         16.2360    9.7630   12.4360 C.3       6 GLL5        0.0000 
     27 CA         12.8780    8.5370   11.3660 C.3       4 GLP5        0.0000 
     28 CA         16.1865   11.6375   11.5655 C.3       2 GLC5        0.0000 
     29 CA         16.1370   13.5120   10.6950 C.3       4 GLP5        0.0000 
     30 CA         13.9515    9.0830   13.7850 C.3       2 GLC5        0.0000 
     31 CA         15.6270   10.1590   13.7950 C.3       6 GLL5        0.0000 
     32 CA         12.2760    8.0070   13.7750 C.3       4 GLP5        0.0000 
     33 CA         17.8210    4.9400   13.3260 C.3       2 GLC5        0.0000 
     34 CA         18.1290    5.4350   11.4290 C.3       6 GLL5        0.0000 
     35 CA         17.5130    4.4450   15.2230 C.3       4 GLP5        0.0000 
     36 CA         19.5875    4.3675   11.6450 C.3       2 GLC5        0.0000 
     37 CA         21.0460    3.3000   11.8610 C.3       4 GLP5        0.0000 
     38 CA         16.5590   11.7960    9.9455 C.3       2 GLC5        0.0000 
     39 CA         16.9810   10.0800    9.1960 C.3       6 GLL5        0.0000 
     40 CA         18.1835   11.3440    9.0715 C.3       2 GLC5        0.0000 
     41 CA         19.3860   12.6080    8.9470 C.3       4 GLP5        0.0000 
     42 CA         12.2112   11.3090   17.1358 C.3       2 GLC5        0.0000 
     43 CA         14.0860   11.3790   17.7560 C.3       6 GLL5        0.0000 
     44 CA         12.2238    8.5538   18.1892 C.3       2 GLC5        0.0000 
     45 CA         13.4830   10.0690   18.3050 C.3       6 GLL5        0.0000 
     46 CA         11.2170    7.0700   17.3430 C.3       4 GLP5        0.0000 
     47 CA         16.1055    8.4915   15.0935 C.3       2 GLC5        0.0000 
     48 CA         16.6490   10.3150   14.9270 C.3       6 GLL5        0.0000 
     49 CA         16.0730    6.7460   15.8260 C.3       4 GLP5        0.0000 
     50 CA         19.8953   11.1472   14.7245 C.3       2 GLC5        0.0000 
     51 CA         17.7060   11.2580   14.3650 C.3       6 GLL5        0.0000 
     52 CA         21.6720   11.3730   15.6350 C.3       4 GLP5        0.0000 
     53 CA         16.3220    4.4810   10.5585 C.3       2 GLC5        0.0000 
     54 CA         14.8320    3.0730   10.2010 C.3       4 GLP5        0.0000 
     55 CA         15.3533    4.5023    9.1549 C.3       2 GLC5        0.0000 
     56 CA         16.7450    5.7330    9.3960 C.3       6 GLL5        0.0000 
@<TRIPOS>BOND
@<TRIPOS>SUBSTRUCTURE
     1 SEC2        1 GROUP        1 X    SEC  0     ROOT SEC X 2
     2 GLC5        6 GROUP        1 X    GLC  0     **** GLC X 6
     3 SEP2        3 GROUP        1 Y    SEP  0     ROOT SEP Y 9
     4 GLP5        8 GROUP        1 Y    GLP  0     **** GLP Y 13
     5 SEL2        2 GROUP        1 Z    SEL  0     ROOT SEL Z 16
     6 GLL5        7 GROUP        1 Z    GLL  0     **** GLL Z 20
@<TRIPOS>SET

