#    Name: 4hai_I23_1_ligand
#    Modification time : Tue Mar 25 00:45:29 2014

@<TRIPOS>MOLECULE
4hai_I23_1_ligand
   62    64     1     0     0
SMALL
NO_CHARGES


@<TRIPOS>ATOM
      1 O28        16.8890   10.7120   17.2100 O.2       1 I23603      0.0000 
      2 C9         16.1000   10.7500   16.2920 C.2       1 I23603      0.0000 
      3 N8         14.8020   11.0980   16.4820 N.am      1 I23603      0.0000 
      4 C7         14.0860   11.3790   17.7560 C.3       1 I23603      0.0000 
      5 C6         14.8690   12.0960   18.8600 C.3       1 I23603      0.0000 
      6 C5         13.9400   12.9710   19.7110 C.3       1 I23603      0.0000 
      7 C4         13.1740   12.2420   20.8210 C.3       1 I23603      0.0000 
      8 C3         12.1990   11.2250   20.2580 C.3       1 I23603      0.0000 
      9 C2         12.9780   10.0060   19.7660 C.3       1 I23603      0.0000 
     10 C1         13.4830   10.0690   18.3050 C.3       1 I23603      0.0000 
     11 C10        16.6490   10.3150   14.9270 C.3       1 I23603      0.0000 
     12 C27        17.7060   11.2580   14.3650 C.3       1 I23603      0.0000 
     13 C26        18.5310   10.5850   13.2630 C.3       1 I23603      0.0000 
     14 N13        17.7130    9.6790   12.4400 N.pl3     1 I23603      0.0000 
     15 C12        16.2360    9.7630   12.4360 C.3       1 I23603      0.0000 
     16 C11        15.6270   10.1590   13.7950 C.3       1 I23603      0.0000 
     17 S14        18.4840    8.6530   11.5570 S.o2      1 I23603      0.0000 
     18 O15        19.5060    9.3800   10.8510 O.2       1 I23603      0.0000 
     19 O25        19.1540    7.7190   12.4310 O.2       1 I23603      0.0000 
     20 C16        17.6280    7.8470   10.4300 C.ar      1 I23603      0.0000 
     21 C23        17.4950    6.3430   10.4030 C.ar      1 I23603      0.0000 
     22 C24        18.1290    5.4350   11.4290 C.3       1 I23603      0.0000 
     23 C22        16.7450    5.7330    9.3960 C.ar      1 I23603      0.0000 
     24 C20        16.1150    6.4730    8.3910 C.ar      1 I23603      0.0000 
     25 C21        15.3190    5.7600    7.3240 C.3       1 I23603      0.0000 
     26 C19        16.2090    7.8660    8.3540 C.ar      1 I23603      0.0000 
     27 C17        16.9330    8.5770    9.3150 C.ar      1 I23603      0.0000 
     28 C18        16.9810   10.0800    9.1960 C.3       1 I23603      0.0000 
     29 H          14.1594   11.1970   15.6142 H         1 I23603      0.0000 
     30 H          13.1959   12.0212   17.5190 H         1 I23603      0.0000 
     31 H          15.6349   12.7228   18.4077 H         1 I23603      0.0000 
     32 H          15.3475   11.3565   19.4988 H         1 I23603      0.0000 
     33 H          13.2086   13.4672   19.0416 H         1 I23603      0.0000 
     34 H          14.5392   13.7843   20.1680 H         1 I23603      0.0000 
     35 H          12.6290   12.9789   21.4173 H         1 I23603      0.0000 
     36 H          13.8919   11.7372   21.4733 H         1 I23603      0.0000 
     37 H          11.6562   11.6603   19.4287 H         1 I23603      0.0000 
     38 H          11.5058   10.9177   21.0306 H         1 I23603      0.0000 
     39 H          12.3420    9.1036   19.8747 H         1 I23603      0.0000 
     40 H          13.8529    9.8454   20.4289 H         1 I23603      0.0000 
     41 H          14.2420    9.2491   18.1649 H         1 I23603      0.0000 
     42 H          12.6333    9.7660   17.6311 H         1 I23603      0.0000 
     43 H          17.1469    9.3311   15.0377 H         1 I23603      0.0000 
     44 H          18.3748   11.5720   15.1686 H         1 I23603      0.0000 
     45 H          17.2186   12.1440   13.9537 H         1 I23603      0.0000 
     46 H          19.3548   10.0349   13.7397 H         1 I23603      0.0000 
     47 H          18.9784   11.3730   12.6407 H         1 I23603      0.0000 
     48 H          15.7979    8.7912   12.1389 H         1 I23603      0.0000 
     49 H          15.8963   10.5012   11.6847 H         1 I23603      0.0000 
     50 H          15.0802   11.1086   13.6728 H         1 I23603      0.0000 
     51 H          14.8855    9.3961   14.0846 H         1 I23603      0.0000 
     52 H          16.6516    4.6972    9.3925 H         1 I23603      0.0000 
     53 H          15.7299    8.3860    7.5948 H         1 I23603      0.0000 
     54 H          19.1243    5.5310   11.4454 H         1 I23603      0.0000 
     55 H          17.8003    5.6318   12.3527 H         1 I23603      0.0000 
     56 H          17.9303    4.4721   11.2461 H         1 I23603      0.0000 
     57 H          15.8859    5.1240    6.8005 H         1 I23603      0.0000 
     58 H          14.5668    5.2291    7.7143 H         1 I23603      0.0000 
     59 H          14.9170    6.4009    6.6700 H         1 I23603      0.0000 
     60 H          17.9179   10.4149    9.0958 H         1 I23603      0.0000 
     61 H          16.4667   10.4064    8.4029 H         1 I23603      0.0000 
     62 H          16.5939   10.5289   10.0014 H         1 I23603      0.0000 
@<TRIPOS>BOND
     1    2    1 2    
     2    3    2 am   
     3   11    2 1    
     4    4    3 1    
     5   29    3 1    
     6    5    4 1    
     7   10    4 1    
     8   30    4 1    
     9    6    5 1    
    10   31    5 1    
    11   32    5 1    
    12    7    6 1    
    13   33    6 1    
    14   34    6 1    
    15    8    7 1    
    16   35    7 1    
    17   36    7 1    
    18    9    8 1    
    19   37    8 1    
    20   38    8 1    
    21   10    9 1    
    22   39    9 1    
    23   40    9 1    
    24   41   10 1    
    25   42   10 1    
    26   12   11 1    
    27   16   11 1    
    28   43   11 1    
    29   13   12 1    
    30   44   12 1    
    31   45   12 1    
    32   14   13 1    
    33   46   13 1    
    34   47   13 1    
    35   15   14 1    
    36   17   14 1    
    37   16   15 1    
    38   48   15 1    
    39   49   15 1    
    40   50   16 1    
    41   51   16 1    
    42   18   17 2    
    43   19   17 2    
    44   20   17 1    
    45   21   20 ar   
    46   27   20 ar   
    47   22   21 1    
    48   23   21 ar   
    49   54   22 1    
    50   55   22 1    
    51   56   22 1    
    52   24   23 ar   
    53   52   23 1    
    54   25   24 1    
    55   26   24 ar   
    56   57   25 1    
    57   58   25 1    
    58   59   25 1    
    59   27   26 ar   
    60   53   26 1    
    61   28   27 1    
    62   60   28 1    
    63   61   28 1    
    64   62   28 1    
@<TRIPOS>SUBSTRUCTURE
     1 I23603      1 GROUP   
@<TRIPOS>SET

