#    Name: 2d7d_ADP_1_INTS_M
#    Modification time : Tue Mar 25 09:43:56 2014

@<TRIPOS>MOLECULE
2d7d_ADP_1_INTS_M
   63     0    12     0     0
SMALL
NO_CHARGES


@<TRIPOS>ATOM
      1 N          -0.7570   -8.6410    5.8600 N.am      2 SEC2        0.0000 
      2 N          -1.8520   -8.1880    6.7930 N.am     10 SEL2        0.0000 
      3 N           0.3380   -9.0940    4.9270 N.am      6 SEP2        0.0000 
      4 N          -0.6460   -7.4515    7.1500 N.am      2 SEC2        0.0000 
      5 N           0.5600   -6.7150    7.5070 N.am      6 SEP2        0.0000 
      6 NZ         -2.7650  -10.7320    5.6070 N.4       3 LYC4        0.0000 
      7 NZ         -2.7920   -9.3560    4.8520 N.4      11 LYL4        0.0000 
      8 NZ         -2.7380  -12.1080    6.3620 N.4       7 LYP4        0.0000 
      9 N          -1.2270   -9.2250    4.8895 N.am      2 SEC2        0.0000 
     10 N          -2.7920   -9.3560    4.8520 N.am     10 SEL2        0.0000 
     11 N          -1.6940   -9.1340    3.6205 N.am      2 SEC2        0.0000 
     12 N          -0.5960   -8.9120    2.3890 N.am      6 SEP2        0.0000 
     13 N          -4.0625   -8.9950    3.8390 N.am      2 SEC2        0.0000 
     14 N          -5.3330   -8.6340    2.8260 N.am      6 SEP2        0.0000 
     15 N          -2.7650  -10.7320    5.6070 N.am      2 SEC2        0.0000 
     16 N          -2.7380  -12.1080    6.3620 N.am      6 SEP2        0.0000 
     17 NZ         -0.0385   -4.8930    6.2650 N.4       3 LYC4        0.0000 
     18 NZ         -1.2840   -5.0370    5.9850 N.4      11 LYL4        0.0000 
     19 NZ          1.5090   -5.8270    7.2440 N.4       7 LYP4        0.0000 
     20 N          -0.0385   -4.8930    6.2650 N.am      2 SEC2        0.0000 
     21 N          -1.2840   -5.0370    5.9850 N.am     10 SEL2        0.0000 
     22 N           1.2070   -4.7490    6.5450 N.am      6 SEP2        0.0000 
     23 N          -0.3620   -5.8760    6.7460 N.am      2 SEC2        0.0000 
     24 N          -2.6150   -7.2465    3.2320 N.am      2 SEC2        0.0000 
     25 N          -2.3660   -6.9460    4.6440 N.am     10 SEL2        0.0000 
     26 N          -2.8640   -7.5470    1.8200 N.am      6 SEP2        0.0000 
     27 CA          0.0285   -6.0710    3.6630 C.3       4 GLC5        0.0000 
     28 CA         -0.6170   -4.2450    3.1410 C.3      12 GLL5        0.0000 
     29 CA          0.6740   -7.8970    4.1850 C.3       8 GLP5        0.0000 
     30 CA          0.7865   -2.0430    1.8475 C.3       4 GLC5        0.0000 
     31 CA         -0.7650   -2.7770    2.7740 C.3      12 GLL5        0.0000 
     32 CA          2.3380   -1.3090    0.9210 C.3       8 GLP5        0.0000 
     33 CA         -4.5200   -1.1330    1.3755 C.3       4 GLC5        0.0000 
     34 CA         -3.0620   -2.1290    2.7050 C.3      12 GLL5        0.0000 
     35 CA         -5.9780   -0.1370    0.0460 C.3       8 GLP5        0.0000 
     36 O          -4.2755    0.0295    2.2095 O.2       1 ALC1        0.0000 
     37 O          -4.0550   -1.1630    3.0560 O.2       9 ALL1        0.0000 
     38 O          -4.4960    1.2220    1.3630 O.2       5 ALP1        0.0000 
     39 CA         -3.7585   -0.5235    0.7240 C.3       4 GLC5        0.0000 
     40 CA         -2.4560   -1.9490    1.3060 C.3      12 GLL5        0.0000 
     41 CA         -5.0610    0.9020    0.1420 C.3       8 GLP5        0.0000 
     42 CA         -1.5020   -3.1790   -0.1100 C.3       4 GLC5        0.0000 
     43 CA         -0.5480   -4.4090   -1.5260 C.3       8 GLP5        0.0000 
     44 N          -4.7810   -5.3185   -1.5550 N.am      2 SEC2        0.0000 
     45 N          -4.5660   -3.8770   -1.0650 N.am     10 SEL2        0.0000 
     46 N          -4.9960   -6.7600   -2.0450 N.am      6 SEP2        0.0000 
     47 CA         -3.4505   -3.1120   -5.1095 C.3       4 GLC5        0.0000 
     48 CA         -4.0990   -2.6820   -3.3590 C.3      12 GLL5        0.0000 
     49 CA         -2.8020   -3.5420   -6.8600 C.3       8 GLP5        0.0000 
     50 O          -5.3145   -3.1460   -5.4415 O.2       1 ALC1        0.0000 
     51 O          -4.8770   -3.4050   -4.1910 O.2       9 ALL1        0.0000 
     52 O          -5.7520   -2.8870   -6.6920 O.2       5 ALP1        0.0000 
     53 O          -5.2600   -4.8405   -4.1695 O.2       1 ALC1        0.0000 
     54 O          -5.6430   -6.2760   -4.1480 O.2       5 ALP1        0.0000 
     55 CA         -4.6885   -0.5005   -3.3420 C.3       4 GLC5        0.0000 
     56 CA         -2.5930   -0.8700   -3.0220 C.3      12 GLL5        0.0000 
     57 CA         -6.7840   -0.1310   -3.6620 C.3       8 GLP5        0.0000 
     58 CA         -1.2210   -2.2230   -2.7950 C.3       4 GLC5        0.0000 
     59 CA          0.1510   -3.5760   -2.5680 C.3       8 GLP5        0.0000 
     60 CA         -5.4220   -1.4812   -3.1475 C.3       4 GLC5        0.0000 
     61 CA         -4.0210   -2.9810   -1.9070 C.3      12 GLL5        0.0000 
     62 CA         -2.0745   -3.4401   -1.6925 C.3       4 GLC5        0.0000 
     63 CA         -3.1420   -2.1110   -1.0850 C.3      12 GLL5        0.0000 
@<TRIPOS>BOND
@<TRIPOS>SUBSTRUCTURE
     1 ALC1       36 GROUP        1 X    ALC  0     ROOT ALC X 1
     2 SEC2        1 GROUP        1 X    SEC  0     **** SEC X 2
     3 LYC4        6 GROUP        1 X    LYC  0     **** LYC X 4
     4 GLC5       27 GROUP        1 X    GLC  0     **** GLC X 6
     5 ALP1       38 GROUP        1 Y    ALP  0     ROOT ALP Y 8
     6 SEP2        3 GROUP        1 Y    SEP  0     **** SEP Y 9
     7 LYP4        8 GROUP        1 Y    LYP  0     **** LYP Y 11
     8 GLP5       29 GROUP        1 Y    GLP  0     **** GLP Y 13
     9 ALL1       37 GROUP        1 Z    ALL  0     ROOT ALL Z 15
    10 SEL2        2 GROUP        1 Z    SEL  0     **** SEL Z 16
    11 LYL4        7 GROUP        1 Z    LYL  0     **** LYL Z 18
    12 GLL5       28 GROUP        1 Z    GLL  0     **** GLL Z 20
@<TRIPOS>SET

