#    Name: 2d7d_ADP_1_ligand
#    Modification time : Tue Mar 25 09:43:56 2014

@<TRIPOS>MOLECULE
2d7d_ADP_1_ligand
   39    41     1     0     0
SMALL
NO_CHARGES


@<TRIPOS>ATOM
      1 PB         -2.8710   -8.0980    5.6730 P.3       1 ADP662      0.0000 
      2 O1B        -1.8520   -8.1880    6.7930 O.co2     1 ADP662      0.0000 
      3 O2B        -4.2800   -7.6370    6.0680 O.co2     1 ADP662      0.0000 
      4 O3B        -2.7920   -9.3560    4.8520 O.co2     1 ADP662      0.0000 
      5 PA         -2.3130   -5.3540    4.9400 P.3       1 ADP662      0.0000 
      6 O1A        -3.7470   -4.9570    5.1400 O.co2     1 ADP662      0.0000 
      7 O2A        -1.2840   -5.0370    5.9850 O.co2     1 ADP662      0.0000 
      8 O3A        -2.3660   -6.9460    4.6440 O.3       1 ADP662      0.0000 
      9 O5'        -1.8960   -4.7330    3.5090 O.3       1 ADP662      0.0000 
     10 C5'        -0.6170   -4.2450    3.1410 C.3       1 ADP662      0.0000 
     11 C4'        -0.7650   -2.7770    2.7740 C.3       1 ADP662      0.0000 
     12 O4'        -1.1660   -2.6090    1.4060 O.3       1 ADP662      0.0000 
     13 C3'        -1.8330   -2.0850    3.6040 C.3       1 ADP662      0.0000 
     14 O3'        -1.3660   -0.7550    3.7690 O.3       1 ADP662      0.0000 
     15 C2'        -3.0620   -2.1290    2.7050 C.3       1 ADP662      0.0000 
     16 O2'        -4.0550   -1.1630    3.0560 O.3       1 ADP662      0.0000 
     17 C1'        -2.4560   -1.9490    1.3060 C.3       1 ADP662      0.0000 
     18 N9         -3.2280   -2.5510    0.1680 N.pl3     1 ADP662      0.0000 
     19 C8         -4.0700   -3.6120    0.1770 C.2       1 ADP662      0.0000 
     20 N7         -4.5660   -3.8770   -1.0650 N.2       1 ADP662      0.0000 
     21 C5         -4.0210   -2.9810   -1.9070 C.ar      1 ADP662      0.0000 
     22 C6         -4.0990   -2.6820   -3.3590 C.ar      1 ADP662      0.0000 
     23 N6         -4.8770   -3.4050   -4.1910 N.pl3     1 ADP662      0.0000 
     24 N1         -3.3860   -1.6210   -3.8270 N.ar      1 ADP662      0.0000 
     25 C2         -2.5930   -0.8700   -3.0220 C.ar      1 ADP662      0.0000 
     26 N3         -2.4730   -1.0750   -1.6850 N.ar      1 ADP662      0.0000 
     27 C4         -3.1420   -2.1110   -1.0850 C.ar      1 ADP662      0.0000 
     28 H          -0.2112   -4.7687    2.2746 H         1 ADP662      0.0000 
     29 H           0.1008   -4.3161    3.9591 H         1 ADP662      0.0000 
     30 H           0.1720   -2.2683    2.9538 H         1 ADP662      0.0000 
     31 H          -1.9895   -2.6108    4.4712 H         1 ADP662      0.0000 
     32 H          -3.4349   -3.1526    2.7472 H         1 ADP662      0.0000 
     33 H          -2.2953   -0.8971    1.1438 H         1 ADP662      0.0000 
     34 H          -4.2992   -4.1320    0.9806 H         1 ADP662      0.0000 
     35 H          -4.8733   -3.1252   -5.1511 H         1 ADP662      0.0000 
     36 H          -5.3881   -4.1564   -3.7736 H         1 ADP662      0.0000 
     37 H          -2.0352   -0.0780   -3.4613 H         1 ADP662      0.0000 
     38 H          -0.4020   -0.8483    4.0178 H         1 ADP662      0.0000 
     39 H          -3.9413   -0.4227    2.3934 H         1 ADP662      0.0000 
@<TRIPOS>BOND
     1    2    1 ar   
     2    3    1 ar   
     3    4    1 ar   
     4    8    1 1    
     5    6    5 ar   
     6    7    5 ar   
     7    8    5 1    
     8    9    5 1    
     9   10    9 1    
    10   11   10 1    
    11   28   10 1    
    12   29   10 1    
    13   12   11 1    
    14   13   11 1    
    15   30   11 1    
    16   17   12 1    
    17   14   13 1    
    18   15   13 1    
    19   31   13 1    
    20   38   14 1    
    21   16   15 1    
    22   17   15 1    
    23   32   15 1    
    24   39   16 1    
    25   18   17 1    
    26   33   17 1    
    27   19   18 1    
    28   27   18 1    
    29   20   19 2    
    30   34   19 1    
    31   21   20 1    
    32   22   21 ar   
    33   27   21 ar   
    34   23   22 1    
    35   24   22 ar   
    36   35   23 1    
    37   36   23 1    
    38   25   24 ar   
    39   26   25 ar   
    40   37   25 1    
    41   27   26 ar   
@<TRIPOS>SUBSTRUCTURE
     1 ADP662      1 GROUP   
@<TRIPOS>SET

