#    Name: 4acx_S8Z_1_INTS_M
#    Modification time : Tue Mar 25 05:30:38 2014

@<TRIPOS>MOLECULE
4acx_S8Z_1_INTS_M
   76     0    12     0     0
SMALL
NO_CHARGES


@<TRIPOS>ATOM
      1 CA          1.0760   -4.3595  -18.2695 C.3       4 GLC5        0.0000 
      2 CA          2.0910   -3.0830  -17.2670 C.3      12 GLL5        0.0000 
      3 CA          0.0610   -5.6360  -19.2720 C.3       8 GLP5        0.0000 
      4 CA          1.6015   -1.1635  -17.7430 C.3       4 GLC5        0.0000 
      5 CA          1.1120    0.7560  -18.2190 C.3       8 GLP5        0.0000 
      6 CA          2.5590   -1.3870  -16.0850 C.3       4 GLC5        0.0000 
      7 CA          3.0270    0.3090  -14.9030 C.3       8 GLP5        0.0000 
      8 CA          2.4120   -3.0020  -15.0480 C.3       4 GLC5        0.0000 
      9 CA          2.7330   -2.9210  -12.8290 C.3       8 GLP5        0.0000 
     10 CA          3.1290   -5.9485  -18.9330 C.3       4 GLC5        0.0000 
     11 CA          3.2650   -3.8510  -19.0790 C.3      12 GLL5        0.0000 
     12 CA          2.9930   -8.0460  -18.7870 C.3       8 GLP5        0.0000 
     13 CA          1.6630   -4.7435  -19.1755 C.3       4 GLC5        0.0000 
     14 CA          1.7340   -3.4095  -20.4345 C.3       4 GLC5        0.0000 
     15 CA          0.2030   -2.9680  -21.7900 C.3       8 GLP5        0.0000 
     16 CA          6.1635   -3.4025  -21.6200 C.3       4 GLC5        0.0000 
     17 CA          6.1190   -1.3360  -22.2390 C.3      12 GLL5        0.0000 
     18 CA          6.2080   -5.4690  -21.0010 C.3       8 GLP5        0.0000 
     19 CA          8.5700   -0.9795  -23.9965 C.3       4 GLC5        0.0000 
     20 CA          6.7960   -0.3300  -22.9000 C.3      12 GLL5        0.0000 
     21 CA         10.3440   -1.6290  -25.0930 C.3       8 GLP5        0.0000 
     22 CA          9.3540    3.1425  -19.9495 C.3       4 GLC5        0.0000 
     23 CA          8.1670    3.0600  -18.3720 C.3      12 GLL5        0.0000 
     24 CA         10.5410    3.2250  -21.5270 C.3       8 GLP5        0.0000 
     25 CA         10.0235    2.2990  -18.3215 C.3       4 GLC5        0.0000 
     26 CA         11.8800    1.5380  -18.2710 C.3       8 GLP5        0.0000 
     27 OD1         2.4045    3.5465  -20.3210 O.co2     3 ASC3        0.0000 
     28 OD1         4.1570    3.4310  -19.4440 O.co2    11 ASL3        0.0000 
     29 OD1         0.5740    3.4450  -20.0850 O.co2     7 ASP3        0.0000 
     30 OD1         2.9450    3.1570  -21.2800 O.co2     3 ASC3        0.0000 
     31 OD1         1.7770    3.3420  -21.9150 O.co2     7 ASP3        0.0000 
     32 O           2.9450    3.1570  -21.2800 O.2       1 ALC1        0.0000 
     33 O           4.1130    2.9720  -20.6450 O.2       9 ALL1        0.0000 
     34 O           1.7770    3.3420  -21.9150 O.2       5 ALP1        0.0000 
     35 O           1.8030    3.5980  -19.4060 O.2       1 ALC1        0.0000 
     36 O           3.0320    3.7510  -18.7270 O.2       9 ALL1        0.0000 
     37 O           0.5740    3.4450  -20.0850 O.2       5 ALP1        0.0000 
     38 O           2.4045    3.5465  -20.3210 O.2       1 ALC1        0.0000 
     39 O           2.7815    4.0905  -17.3245 O.2       1 ALC1        0.0000 
     40 O           2.5310    4.4300  -15.9220 O.2       5 ALP1        0.0000 
     41 N           7.3455    5.7665  -26.5470 N.am      2 SEC2        0.0000 
     42 N           6.5150    6.3990  -25.3470 N.am     10 SEL2        0.0000 
     43 N           8.1760    5.1340  -27.7470 N.am      6 SEP2        0.0000 
     44 CA          6.5440    9.7920  -26.6550 C.3       4 GLC5        0.0000 
     45 CA          6.0270    8.2040  -26.6500 C.3      12 GLL5        0.0000 
     46 CA          7.0610   11.3800  -26.6600 C.3       8 GLP5        0.0000 
     47 CA          4.4245    5.0625  -28.6880 C.3       4 GLC5        0.0000 
     48 CA          5.0260    6.2700  -27.0690 C.3      12 GLL5        0.0000 
     49 CA          3.8230    3.8550  -30.3070 C.3       8 GLP5        0.0000 
     50 CA          2.9632   -1.7880  -21.3938 C.3       4 GLC5        0.0000 
     51 CA          3.9720   -2.8360  -19.8530 C.3      12 GLL5        0.0000 
     52 CA          1.6630   -1.1580  -22.6190 C.3       8 GLP5        0.0000 
     53 CA          4.1173   -3.3070  -21.9832 C.3       4 GLC5        0.0000 
     54 CA          4.5550   -2.0000  -20.4840 C.3      12 GLL5        0.0000 
     55 CA          3.9710   -4.1960  -23.7980 C.3       8 GLP5        0.0000 
     56 CA          5.1474   -4.0704  -20.4880 C.3       4 GLC5        0.0000 
     57 CA          4.8330   -0.2742  -23.4090 C.3       4 GLC5        0.0000 
     58 CA          5.2490   -1.0030  -21.2210 C.3      12 GLL5        0.0000 
     59 CA          3.9820    0.6210  -25.0880 C.3       8 GLP5        0.0000 
     60 CA          5.3392    0.4750  -23.9040 C.3       4 GLC5        0.0000 
     61 CA          4.6783    0.7220  -23.1480 C.3       4 GLC5        0.0000 
     62 CA          5.7050    1.3310  -21.5390 C.3      12 GLL5        0.0000 
     63 CA          3.5135   -0.7926  -21.9612 C.3       4 GLC5        0.0000 
     64 CA          5.0440    0.3150  -20.8770 C.3      12 GLL5        0.0000 
     65 CA          4.4688    2.4613  -24.4428 C.3       4 GLC5        0.0000 
     66 CA          5.0710    4.7400  -24.3180 C.3      12 GLL5        0.0000 
     67 CA          3.9156    5.7259  -23.4749 C.3       4 GLC5        0.0000 
     68 CA          4.8400    3.8630  -23.2770 C.3      12 GLL5        0.0000 
     69 CA          2.2430    6.5470  -22.8880 C.3       8 GLP5        0.0000 
     70 CA          7.7480    7.9085  -26.2510 C.3       4 GLC5        0.0000 
     71 CA          5.5030    7.0820  -26.0880 C.3      12 GLL5        0.0000 
     72 CA          9.7310    8.1740  -26.1330 C.3       8 GLP5        0.0000 
     73 CA          3.9272    7.3783  -27.7405 C.3       4 GLC5        0.0000 
     74 CA          2.4590    7.8000  -28.7620 C.3       8 GLP5        0.0000 
     75 CA          6.2288    6.6002  -28.2140 C.3       4 GLC5        0.0000 
     76 CA          7.0620    6.2440  -29.7090 C.3       8 GLP5        0.0000 
@<TRIPOS>BOND
@<TRIPOS>SUBSTRUCTURE
     1 ALC1       32 GROUP        1 X    ALC  0     ROOT ALC X 1
     2 SEC2       41 GROUP        1 X    SEC  0     **** SEC X 2
     3 ASC3       27 GROUP        1 X    ASC  0     **** ASC X 3
     4 GLC5        1 GROUP        1 X    GLC  0     **** GLC X 6
     5 ALP1       34 GROUP        1 Y    ALP  0     ROOT ALP Y 8
     6 SEP2       43 GROUP        1 Y    SEP  0     **** SEP Y 9
     7 ASP3       29 GROUP        1 Y    ASP  0     **** ASP Y 10
     8 GLP5        3 GROUP        1 Y    GLP  0     **** GLP Y 13
     9 ALL1       33 GROUP        1 Z    ALL  0     ROOT ALL Z 15
    10 SEL2       42 GROUP        1 Z    SEL  0     **** SEL Z 16
    11 ASL3       28 GROUP        1 Z    ASL  0     **** ASL Z 17
    12 GLL5        2 GROUP        1 Z    GLL  0     **** GLL Z 20
@<TRIPOS>SET

