#    Name: 4acx_S8Z_1_ligand
#    Modification time : Tue Mar 25 05:30:39 2014

@<TRIPOS>MOLECULE
4acx_S8Z_1_ligand
   55    58     1     0     0
SMALL
NO_CHARGES


@<TRIPOS>ATOM
      1 C1          2.0910   -3.0830  -17.2670 C.3       1 S8Z1504     0.0000 
      2 O2          3.3560   -3.5730  -17.6880 O.3       1 S8Z1504     0.0000 
      3 C3          3.2650   -3.8510  -19.0790 C.3       1 S8Z1504     0.0000 
      4 C4          3.9720   -2.8360  -19.8530 C.1       1 S8Z1504     0.0000 
      5 C5          4.5550   -2.0000  -20.4840 C.1       1 S8Z1504     0.0000 
      6 C6          5.2490   -1.0030  -21.2210 C.ar      1 S8Z1504     0.0000 
      7 C7          6.1190   -1.3360  -22.2390 C.ar      1 S8Z1504     0.0000 
      8 C8          6.7960   -0.3300  -22.9000 C.ar      1 S8Z1504     0.0000 
      9 C9          6.5970    0.9880  -22.5400 C.ar      1 S8Z1504     0.0000 
     10 C10         5.7050    1.3310  -21.5390 C.ar      1 S8Z1504     0.0000 
     11 C11         5.0440    0.3150  -20.8770 C.ar      1 S8Z1504     0.0000 
     12 C12         5.4780    2.7600  -21.1240 C.3       1 S8Z1504     0.0000 
     13 C13         6.3040    3.0030  -19.8920 C.2       1 S8Z1504     0.0000 
     14 N14         7.5520    2.7400  -19.6670 N.pl3     1 S8Z1504     0.0000 
     15 C15         8.1670    3.0600  -18.3720 C.3       1 S8Z1504     0.0000 
     16 C16         7.3630    4.0970  -17.6060 C.3       1 S8Z1504     0.0000 
     17 C17         5.8770    3.7870  -17.6080 C.3       1 S8Z1504     0.0000 
     18 N18         5.4370    3.5580  -18.9780 N.pl3     1 S8Z1504     0.0000 
     19 C19         4.1570    3.4310  -19.4440 C.cat     1 S8Z1504     0.0000 
     20 N20         4.1130    2.9720  -20.6450 N.pl3     1 S8Z1504     0.0000 
     21 N21         3.0320    3.7510  -18.7270 N.pl3     1 S8Z1504     0.0000 
     22 F22         7.5650    5.3300  -18.1420 F         1 S8Z1504     0.0000 
     23 F23         7.8190    4.1630  -16.3270 F         1 S8Z1504     0.0000 
     24 C24         5.7530    3.7370  -22.2430 C.ar      1 S8Z1504     0.0000 
     25 C25         4.8400    3.8630  -23.2770 C.ar      1 S8Z1504     0.0000 
     26 C26         5.0710    4.7400  -24.3180 C.ar      1 S8Z1504     0.0000 
     27 C27         6.2210    5.5080  -24.3260 C.ar      1 S8Z1504     0.0000 
     28 C28         7.1430    5.3930  -23.3090 C.ar      1 S8Z1504     0.0000 
     29 C29         6.9020    4.5100  -22.2770 C.ar      1 S8Z1504     0.0000 
     30 O30         6.5150    6.3990  -25.3470 O.3       1 S8Z1504     0.0000 
     31 C31         5.5030    7.0820  -26.0880 C.3       1 S8Z1504     0.0000 
     32 F32         6.0270    8.2040  -26.6500 F         1 S8Z1504     0.0000 
     33 F33         5.0260    6.2700  -27.0690 F         1 S8Z1504     0.0000 
     34 H           2.2066   -3.8850  -19.4035 H         1 S8Z1504     0.0000 
     35 H           3.6917   -4.8469  -19.3084 H         1 S8Z1504     0.0000 
     36 H           6.2613   -2.3170  -22.5016 H         1 S8Z1504     0.0000 
     37 H           7.4502   -0.5634  -23.6625 H         1 S8Z1504     0.0000 
     38 H           7.1261    1.7373  -23.0288 H         1 S8Z1504     0.0000 
     39 H           4.3844    0.5493  -20.1105 H         1 S8Z1504     0.0000 
     40 H           8.1893    2.2989  -20.3602 H         1 S8Z1504     0.0000 
     41 H           9.1867    3.4482  -18.5165 H         1 S8Z1504     0.0000 
     42 H           8.2478    2.1549  -17.7511 H         1 S8Z1504     0.0000 
     43 H           5.3464    4.6304  -17.1630 H         1 S8Z1504     0.0000 
     44 H           5.7063    2.9039  -16.9901 H         1 S8Z1504     0.0000 
     45 H           3.3641    2.7690  -21.2161 H         1 S8Z1504     0.0000 
     46 H           3.1838    4.0950  -17.8004 H         1 S8Z1504     0.0000 
     47 H           2.1585    3.6123  -19.1937 H         1 S8Z1504     0.0000 
     48 H           3.9757    3.2926  -23.2673 H         1 S8Z1504     0.0000 
     49 H           4.3903    4.8227  -25.0859 H         1 S8Z1504     0.0000 
     50 H           8.0007    5.9581  -23.3182 H         1 S8Z1504     0.0000 
     51 H           7.5961    4.4209  -21.5069 H         1 S8Z1504     0.0000 
     52 H           4.6929    7.3505  -25.3908 H         1 S8Z1504     0.0000 
     53 H           2.0830   -2.8657  -16.2909 H         1 S8Z1504     0.0000 
     54 H           1.8347   -2.2487  -17.7551 H         1 S8Z1504     0.0000 
     55 H           1.3630   -3.7502  -17.4247 H         1 S8Z1504     0.0000 
@<TRIPOS>BOND
     1    2    1 1    
     2   53    1 1    
     3   54    1 1    
     4   55    1 1    
     5    3    2 1    
     6    4    3 1    
     7   34    3 1    
     8   35    3 1    
     9    5    4 3    
    10    6    5 1    
    11    7    6 ar   
    12   11    6 ar   
    13    8    7 ar   
    14   36    7 1    
    15    9    8 ar   
    16   37    8 1    
    17   10    9 ar   
    18   38    9 1    
    19   11   10 ar   
    20   12   10 1    
    21   39   11 1    
    22   13   12 1    
    23   20   12 1    
    24   24   12 1    
    25   14   13 2    
    26   18   13 1    
    27   15   14 1    
    28   40   14 1    
    29   16   15 1    
    30   41   15 1    
    31   42   15 1    
    32   17   16 1    
    33   22   16 1    
    34   23   16 1    
    35   18   17 1    
    36   43   17 1    
    37   44   17 1    
    38   19   18 ar   
    39   20   19 ar   
    40   21   19 ar   
    41   45   20 1    
    42   46   21 1    
    43   47   21 1    
    44   25   24 ar   
    45   29   24 ar   
    46   26   25 ar   
    47   48   25 1    
    48   27   26 ar   
    49   49   26 1    
    50   28   27 ar   
    51   30   27 1    
    52   29   28 ar   
    53   50   28 1    
    54   51   29 1    
    55   31   30 1    
    56   32   31 1    
    57   33   31 1    
    58   52   31 1    
@<TRIPOS>SUBSTRUCTURE
     1 S8Z1504     1 GROUP   
@<TRIPOS>SET

