#    Name: 3tjd_6TP_2_INTS_M
#    Modification time : Mon Mar 24 20:11:55 2014

@<TRIPOS>MOLECULE
3tjd_6TP_2_INTS_M
   58     0     9     0     0
SMALL
NO_CHARGES


@<TRIPOS>ATOM
      1 N          77.5835  114.9865   16.8275 N.am      2 SEC2        0.0000 
      2 N          77.5840  114.3430   18.1430 N.am      8 SEL2        0.0000 
      3 N          77.5830  115.6300   15.5120 N.am      5 SEP2        0.0000 
      4 CA         76.1150  112.3340   21.8590 C.3       3 GLC5        0.0000 
      5 CA         76.8810  110.7810   20.7000 C.3       9 GLL5        0.0000 
      6 CA         75.3490  113.8870   23.0180 C.3       6 GLP5        0.0000 
      7 O          80.4345  115.2605   17.6155 O.2       1 ALC1        0.0000 
      8 O          79.8890  113.9200   18.4230 O.2       7 ALL1        0.0000 
      9 O          80.9800  116.6010   16.8080 O.2       4 ALP1        0.0000 
     10 CA         80.6560  106.8620   29.1160 C.3       3 GLC5        0.0000 
     11 CA         81.5290  107.0510   27.6880 C.3       9 GLL5        0.0000 
     12 CA         79.7830  106.6730   30.5440 C.3       6 GLP5        0.0000 
     13 O          74.4910  113.3160   17.1060 O.2       1 ALC1        0.0000 
     14 O          73.6800  113.0710   18.4470 O.2       7 ALL1        0.0000 
     15 O          75.3020  113.5610   15.7650 O.2       4 ALP1        0.0000 
     16 CA         78.7185  108.8000   27.7220 C.3       3 GLC5        0.0000 
     17 CA         80.2130  108.5810   26.3740 C.3       9 GLL5        0.0000 
     18 CA         77.2240  109.0190   29.0700 C.3       6 GLP5        0.0000 
     19 CA         80.4960  110.5415   25.5745 C.3       3 GLC5        0.0000 
     20 CA         80.7790  112.5020   24.7750 C.3       6 GLP5        0.0000 
     21 CA         83.0480  108.0255   22.0010 C.3       3 GLC5        0.0000 
     22 CA         81.2690  108.4380   22.6150 C.3       9 GLL5        0.0000 
     23 CA         84.8270  107.6130   21.3870 C.3       6 GLP5        0.0000 
     24 CA         81.2640  110.6580   28.1250 C.3       3 GLC5        0.0000 
     25 CA         82.4170  109.1970   26.9660 C.3       9 GLL5        0.0000 
     26 CA         80.1110  112.1190   29.2840 C.3       6 GLP5        0.0000 
     27 CA         81.5980  110.8495   25.8705 C.3       3 GLC5        0.0000 
     28 CA         83.8940  110.1910   26.6295 C.3       3 GLC5        0.0000 
     29 CA         85.3710  111.1850   26.2930 C.3       6 GLP5        0.0000 
     30 CA         79.3880  115.2535   19.4930 C.3       3 GLC5        0.0000 
     31 CA         78.5990  113.5770   18.6920 C.3       9 GLL5        0.0000 
     32 CA         80.1770  116.9300   20.2940 C.3       6 GLP5        0.0000 
     33 CA         78.1935  113.5630   16.4980 C.3       3 GLC5        0.0000 
     34 CA         77.7880  113.5490   14.3040 C.3       6 GLP5        0.0000 
     35 CA         79.6800  112.2095   17.8240 C.3       3 GLC5        0.0000 
     36 CA         80.7610  110.8420   16.9560 C.3       6 GLP5        0.0000 
     37 CA         76.6040  114.4255   16.4340 C.3       3 GLC5        0.0000 
     38 CA         76.2720  114.0530   18.3510 C.3       9 GLL5        0.0000 
     39 CA         76.9360  114.7980   14.5170 C.3       6 GLP5        0.0000 
     40 CA         72.9705  114.0455   20.0845 C.3       3 GLC5        0.0000 
     41 CA         72.2360  112.9540   18.5080 C.3       9 GLL5        0.0000 
     42 CA         73.7050  115.1370   21.6610 C.3       6 GLP5        0.0000 
     43 CA         72.6635  114.0210   16.6160 C.3       3 GLC5        0.0000 
     44 CA         73.0910  115.0880   14.7240 C.3       6 GLP5        0.0000 
     45 CA         73.3315  111.6040   17.7170 C.3       3 GLC5        0.0000 
     46 CA         74.4270  110.2540   16.9260 C.3       6 GLP5        0.0000 
     47 CA         80.7150  110.9705   23.3015 C.3       3 GLC5        0.0000 
     48 CA         80.6510  109.4390   21.8280 C.3       9 GLL5        0.0000 
     49 CA         77.9235  110.3435   18.8930 C.3       3 GLC5        0.0000 
     50 CA         78.9170  109.2250   17.5770 C.3       6 GLP5        0.0000 
     51 CA         78.8723  110.6065   18.7100 C.3       3 GLC5        0.0000 
     52 CA         78.3560  112.4040   19.5380 C.3       9 GLL5        0.0000 
     53 CA         77.1256  114.2861   20.2815 C.3       3 GLC5        0.0000 
     54 CA         76.1180  115.6470   21.4030 C.3       6 GLP5        0.0000 
     55 CA         76.1137  114.5632   20.0802 C.3       3 GLC5        0.0000 
     56 CA         75.3973  111.7714   17.9110 C.3       3 GLC5        0.0000 
     57 CA         78.9015  109.6200   19.4105 C.3       3 GLC5        0.0000 
     58 CA         78.5650  110.5830   20.8530 C.3       9 GLL5        0.0000 
@<TRIPOS>BOND
@<TRIPOS>SUBSTRUCTURE
     1 ALC1        7 GROUP        1 X    ALC  0     ROOT ALC X 1
     2 SEC2        1 GROUP        1 X    SEC  0     **** SEC X 2
     3 GLC5        4 GROUP        1 X    GLC  0     **** GLC X 6
     4 ALP1        9 GROUP        1 Y    ALP  0     ROOT ALP Y 8
     5 SEP2        3 GROUP        1 Y    SEP  0     **** SEP Y 9
     6 GLP5        6 GROUP        1 Y    GLP  0     **** GLP Y 13
     7 ALL1        8 GROUP        1 Z    ALL  0     ROOT ALL Z 15
     8 SEL2        2 GROUP        1 Z    SEL  0     **** SEL Z 16
     9 GLL5        5 GROUP        1 Z    GLL  0     **** GLL Z 20
@<TRIPOS>SET

