#    Name: 3tjd_6TP_2_ligand
#    Modification time : Mon Mar 24 20:11:55 2014

@<TRIPOS>MOLECULE
3tjd_6TP_2_ligand
   50    52     1     0     0
SMALL
NO_CHARGES


@<TRIPOS>ATOM
      1 C1         81.5520  108.0370   26.5910 C.3       1 6TP1        0.0000 
      2 N1         77.5840  114.3430   18.1430 N.ar      1 6TP1        0.0000 
      3 O1         80.2760  105.7730   25.1750 O.2       1 6TP1        0.0000 
      4 S1         76.8810  110.7810   20.7000 S.3       1 6TP1        0.0000 
      5 C2         78.3830  108.3780   22.2560 C.ar      1 6TP1        0.0000 
      6 N2         79.8890  113.9200   18.4230 N.pl3     1 6TP1        0.0000 
      7 O2         74.1530  111.7460   20.2590 O.2       1 6TP1        0.0000 
      8 S2         81.2310  106.3590   24.2510 S.o2      1 6TP1        0.0000 
      9 C3         81.5290  107.0510   27.6880 C.3       1 6TP1        0.0000 
     10 N3         73.6800  113.0710   18.4470 N.am      1 6TP1        0.0000 
     11 O3         82.1580  105.6100   23.5240 O.2       1 6TP1        0.0000 
     12 C4         80.2130  108.5810   26.3740 C.3       1 6TP1        0.0000 
     13 N4         82.1100  107.3800   25.3990 N.pl3     1 6TP1        0.0000 
     14 C5         81.2690  108.4380   22.6150 C.ar      1 6TP1        0.0000 
     15 C6         82.4170  109.1970   26.9660 C.3       1 6TP1        0.0000 
     16 C7         79.2990  111.5720   20.1480 C.2       1 6TP1        0.0000 
     17 C8         78.3560  112.4040   19.5380 C.ar      1 6TP1        0.0000 
     18 C9         76.9790  112.1430   19.7180 C.ar      1 6TP1        0.0000 
     19 C10        78.5990  113.5770   18.6920 C.ar      1 6TP1        0.0000 
     20 C11        75.9470  112.9060   19.1640 C.ar      1 6TP1        0.0000 
     21 C12        74.5300  112.5080   19.3650 C.2       1 6TP1        0.0000 
     22 C13        76.2720  114.0530   18.3510 C.ar      1 6TP1        0.0000 
     23 C14        78.5650  110.5830   20.8530 C.2       1 6TP1        0.0000 
     24 C15        72.2360  112.9540   18.5080 C.3       1 6TP1        0.0000 
     25 C16        79.2070  109.4470   21.6350 C.ar      1 6TP1        0.0000 
     26 C17        78.9620  107.3440   23.0610 C.ar      1 6TP1        0.0000 
     27 C18        80.3970  107.4480   23.2020 C.ar      1 6TP1        0.0000 
     28 C19        80.6510  109.4390   21.8280 C.ar      1 6TP1        0.0000 
     29 H          77.3762  108.4004   22.0909 H         1 6TP1        0.0000 
     30 H          80.0186  114.7206   17.8380 H         1 6TP1        0.0000 
     31 H          80.5931  113.3411   18.8341 H         1 6TP1        0.0000 
     32 H          74.0658  113.6239   17.6433 H         1 6TP1        0.0000 
     33 H          83.0795  107.4520   25.1137 H         1 6TP1        0.0000 
     34 H          82.2481  108.4064   22.7637 H         1 6TP1        0.0000 
     35 H          80.2250  111.6418   20.1077 H         1 6TP1        0.0000 
     36 H          75.5149  114.6029   17.9630 H         1 6TP1        0.0000 
     37 H          78.4455  106.6377   23.4753 H         1 6TP1        0.0000 
     38 H          81.2056  110.1688   21.3846 H         1 6TP1        0.0000 
     39 H          82.4347  106.6623   27.8570 H         1 6TP1        0.0000 
     40 H          81.2199  107.4586   28.5473 H         1 6TP1        0.0000 
     41 H          80.9150  106.2874   27.4882 H         1 6TP1        0.0000 
     42 H          80.2012  109.2550   25.6354 H         1 6TP1        0.0000 
     43 H          79.5571  107.8668   26.1296 H         1 6TP1        0.0000 
     44 H          79.8599  109.0359   27.1916 H         1 6TP1        0.0000 
     45 H          83.3595  108.9149   27.1452 H         1 6TP1        0.0000 
     46 H          82.4499  109.8853   26.2414 H         1 6TP1        0.0000 
     47 H          82.0864  109.6554   27.7910 H         1 6TP1        0.0000 
     48 H          71.9386  112.0002   18.4662 H         1 6TP1        0.0000 
     49 H          71.8676  113.3391   19.3542 H         1 6TP1        0.0000 
     50 H          71.7923  113.4328   17.7505 H         1 6TP1        0.0000 
@<TRIPOS>BOND
     1    9    1 1    
     2   12    1 1    
     3   13    1 1    
     4   15    1 1    
     5   19    2 ar   
     6   22    2 ar   
     7    8    3 2    
     8   18    4 1    
     9   23    4 1    
    10   25    5 ar   
    11   26    5 ar   
    12   29    5 1    
    13   19    6 1    
    14   30    6 1    
    15   31    6 1    
    16   21    7 2    
    17   11    8 2    
    18   13    8 1    
    19   27    8 1    
    20   39    9 1    
    21   40    9 1    
    22   41    9 1    
    23   21   10 am   
    24   24   10 1    
    25   32   10 1    
    26   42   12 1    
    27   43   12 1    
    28   44   12 1    
    29   33   13 1    
    30   27   14 ar   
    31   28   14 ar   
    32   34   14 1    
    33   45   15 1    
    34   46   15 1    
    35   47   15 1    
    36   17   16 1    
    37   23   16 2    
    38   35   16 1    
    39   18   17 ar   
    40   19   17 ar   
    41   20   18 ar   
    42   21   20 1    
    43   22   20 ar   
    44   36   22 1    
    45   25   23 1    
    46   48   24 1    
    47   49   24 1    
    48   50   24 1    
    49   28   25 ar   
    50   27   26 ar   
    51   37   26 1    
    52   38   28 1    
@<TRIPOS>SUBSTRUCTURE
     1 6TP1        1 GROUP   
@<TRIPOS>SET

