#    Name: 4hvh_19R_1_INTS_M
#    Modification time : Tue Mar 25 01:49:33 2014

@<TRIPOS>MOLECULE
4hvh_19R_1_INTS_M
   53     0     9     0     0
SMALL
NO_CHARGES


@<TRIPOS>ATOM
      1 CA         -4.5245  -14.6845   -3.1915 C.3       3 GLC5        0.0000 
      2 CA         -2.6400  -15.4800   -3.0690 C.3       9 GLL5        0.0000 
      3 CA         -6.4090  -13.8890   -3.3140 C.3       6 GLP5        0.0000 
      4 N          -3.9970  -13.7260   -2.7030 N.am      2 SEC2        0.0000 
      5 N          -2.5860  -14.1620   -2.9550 N.am      8 SEL2        0.0000 
      6 N          -5.4080  -13.2900   -2.4510 N.am      5 SEP2        0.0000 
      7 CA         -0.8240  -14.6430   -1.5995 C.3       3 GLC5        0.0000 
      8 CA         -1.5190  -13.5090   -3.4130 C.3       9 GLL5        0.0000 
      9 CA         -0.1290  -15.7770    0.2140 C.3       6 GLP5        0.0000 
     10 CA         -3.0195  -12.6830   -2.0775 C.3       3 GLC5        0.0000 
     11 CA         -4.5200  -11.8570   -0.7420 C.3       6 GLP5        0.0000 
     12 CA          1.8610  -13.6055   -2.7370 C.3       3 GLC5        0.0000 
     13 CA          0.5350  -13.2440   -4.3840 C.3       9 GLL5        0.0000 
     14 CA          3.1870  -13.9670   -1.0900 C.3       6 GLP5        0.0000 
     15 CA         -0.8100  -10.6480   -5.0785 C.3       3 GLC5        0.0000 
     16 CA          0.0410  -12.0250   -4.0130 C.3       9 GLL5        0.0000 
     17 CA         -1.6610   -9.2710   -6.1440 C.3       6 GLP5        0.0000 
     18 CA          1.1820  -10.4180   -3.8705 C.3       3 GLC5        0.0000 
     19 CA          2.3230   -8.8110   -3.7280 C.3       6 GLP5        0.0000 
     20 O          -2.0645  -11.1775   -2.8780 O.2       1 ALC1        0.0000 
     21 O          -1.1700  -12.1780   -3.4340 O.2       7 ALL1        0.0000 
     22 O          -2.9590  -10.1770   -2.3220 O.2       4 ALP1        0.0000 
     23 CA         -1.2990  -17.9450   -1.6065 C.3       3 GLC5        0.0000 
     24 CA         -1.7520  -17.7060   -3.7520 C.3       9 GLL5        0.0000 
     25 CA         -0.8460  -18.1840    0.5390 C.3       6 GLP5        0.0000 
     26 CA         -1.4285  -17.0990   -6.2820 C.3       3 GLC5        0.0000 
     27 CA         -1.0660  -18.4290   -4.9170 C.3       9 GLL5        0.0000 
     28 CA         -1.7910  -15.7690   -7.6470 C.3       6 GLP5        0.0000 
     29 CA          0.4850  -18.1065   -1.9035 C.3       3 GLC5        0.0000 
     30 CA         -0.5140  -18.5650   -3.4910 C.3       9 GLL5        0.0000 
     31 CA          1.4840  -17.6480   -0.3160 C.3       6 GLP5        0.0000 
     32 CA          4.6720  -18.1045   -3.3475 C.3       3 GLC5        0.0000 
     33 CA          4.1230  -16.7180   -4.5460 C.3       9 GLL5        0.0000 
     34 CA          5.2210  -19.4910   -2.1490 C.3       6 GLP5        0.0000 
     35 CA          4.7150  -15.4100   -3.4760 C.3       3 GLC5        0.0000 
     36 CA          5.3070  -14.1020   -2.4060 C.3       6 GLP5        0.0000 
     37 CA          2.5430  -15.5075   -9.8595 C.3       3 GLC5        0.0000 
     38 CA          2.9780  -14.9270   -7.7850 C.3       9 GLL5        0.0000 
     39 CA          2.1080  -16.0880  -11.9340 C.3       6 GLP5        0.0000 
     40 CA          1.8890  -13.4730   -8.4540 C.3       3 GLC5        0.0000 
     41 CA          0.8000  -12.0190   -9.1230 C.3       6 GLP5        0.0000 
     42 CA         -1.1280  -15.8100   -1.5753 C.3       3 GLC5        0.0000 
     43 CA         -1.6140  -16.2060   -3.6600 C.3       9 GLL5        0.0000 
     44 CA         -1.7370  -16.3625   -5.6765 C.3       3 GLC5        0.0000 
     45 CA         -2.9815  -18.5807   -5.0608 C.3       3 GLC5        0.0000 
     46 CA         -4.5540  -19.0940   -5.7870 C.3       6 GLP5        0.0000 
     47 CA          4.2458  -14.1000   -8.3390 C.3       3 GLC5        0.0000 
     48 CA          3.2530  -15.1170   -6.2850 C.3       9 GLL5        0.0000 
     49 CA          5.3760  -13.1780   -9.6430 C.3       6 GLP5        0.0000 
     50 CA         -0.2190  -12.6464   -2.0841 C.3       3 GLC5        0.0000 
     51 CA         -0.0860  -12.0370   -0.2140 C.3       6 GLP5        0.0000 
     52 CA         -1.0955  -13.2924   -5.4896 C.3       3 GLC5        0.0000 
     53 CA         -1.8390  -13.3290   -7.0250 C.3       6 GLP5        0.0000 
@<TRIPOS>BOND
@<TRIPOS>SUBSTRUCTURE
     1 ALC1       20 GROUP        1 X    ALC  0     ROOT ALC X 1
     2 SEC2        4 GROUP        1 X    SEC  0     **** SEC X 2
     3 GLC5        1 GROUP        1 X    GLC  0     **** GLC X 6
     4 ALP1       22 GROUP        1 Y    ALP  0     ROOT ALP Y 8
     5 SEP2        6 GROUP        1 Y    SEP  0     **** SEP Y 9
     6 GLP5        3 GROUP        1 Y    GLP  0     **** GLP Y 13
     7 ALL1       21 GROUP        1 Z    ALL  0     ROOT ALL Z 15
     8 SEL2        5 GROUP        1 Z    SEL  0     **** SEL Z 16
     9 GLL5        2 GROUP        1 Z    GLL  0     **** GLL Z 20
@<TRIPOS>SET

