#    Name: 4hvh_19R_1_ligand
#    Modification time : Tue Mar 25 01:49:33 2014

@<TRIPOS>MOLECULE
4hvh_19R_1_ligand
   41    43     1     0     0
SMALL
NO_CHARGES


@<TRIPOS>ATOM
      1 C1         -2.6400  -15.4800   -3.0690 C.ar      1 19R1201     0.0000 
      2 C2         -1.6140  -16.2060   -3.6600 C.ar      1 19R1201     0.0000 
      3 N3         -0.5440  -15.5790   -4.1140 N.ar      1 19R1201     0.0000 
      4 N4         -2.5860  -14.1620   -2.9550 N.ar      1 19R1201     0.0000 
      5 C5         -1.5190  -13.5090   -3.4130 C.ar      1 19R1201     0.0000 
      6 C6         -0.4650  -14.2450   -4.0070 C.ar      1 19R1201     0.0000 
      7 C7          0.5350  -13.2440   -4.3840 C.2       1 19R1201     0.0000 
      8 C8          0.0410  -12.0250   -4.0130 C.2       1 19R1201     0.0000 
      9 N9         -1.1700  -12.1780   -3.4340 N.pl3     1 19R1201     0.0000 
     10 C10         1.8090  -13.4930   -5.0660 C.2       1 19R1201     0.0000 
     11 O11         2.6070  -12.5790   -5.2010 O.2       1 19R1201     0.0000 
     12 C12        -1.7520  -17.7060   -3.7520 C.3       1 19R1201     0.0000 
     13 N13         2.0350  -14.7320   -5.5540 N.am      1 19R1201     0.0000 
     14 C14        -1.0660  -18.4290   -4.9170 C.3       1 19R1201     0.0000 
     15 C15        -0.5140  -18.5650   -3.4910 C.3       1 19R1201     0.0000 
     16 C16         3.2530  -15.1170   -6.2850 C.3       1 19R1201     0.0000 
     17 C17         3.6120  -16.5860   -5.9860 C.3       1 19R1201     0.0000 
     18 C18         4.6920  -17.0810   -6.9600 C.3       1 19R1201     0.0000 
     19 C19         4.1230  -16.7180   -4.5460 C.3       1 19R1201     0.0000 
     20 O20         2.4530  -17.4070   -6.1070 O.3       1 19R1201     0.0000 
     21 C21         2.9780  -14.9270   -7.7850 C.3       1 19R1201     0.0000 
     22 H          -3.4707  -16.0178   -2.7109 H         1 19R1201     0.0000 
     23 H           0.4991  -11.1796   -4.1492 H         1 19R1201     0.0000 
     24 H          -1.7237  -11.4631   -3.0803 H         1 19R1201     0.0000 
     25 H          -2.5110  -18.2465   -3.5109 H         1 19R1201     0.0000 
     26 H           1.3294  -15.5007   -5.4299 H         1 19R1201     0.0000 
     27 H          -0.5305  -17.7950   -5.3658 H         1 19R1201     0.0000 
     28 H          -1.5667  -19.2076   -5.0994 H         1 19R1201     0.0000 
     29 H          -0.8101  -19.3955   -3.1532 H         1 19R1201     0.0000 
     30 H           0.2261  -17.9830   -3.4196 H         1 19R1201     0.0000 
     31 H           4.0724  -14.4925   -6.0069 H         1 19R1201     0.0000 
     32 H           5.5291  -16.5380   -6.8935 H         1 19R1201     0.0000 
     33 H           4.9446  -18.0321   -6.7823 H         1 19R1201     0.0000 
     34 H           4.3855  -17.0319   -7.9106 H         1 19R1201     0.0000 
     35 H           4.3602  -17.6631   -4.3213 H         1 19R1201     0.0000 
     36 H           4.9417  -16.1653   -4.3903 H         1 19R1201     0.0000 
     37 H           3.4383  -16.4214   -3.8803 H         1 19R1201     0.0000 
     38 H           3.7699  -15.1766   -8.3423 H         1 19R1201     0.0000 
     39 H           2.2117  -15.4891   -8.0962 H         1 19R1201     0.0000 
     40 H           2.7530  -13.9776   -8.0040 H         1 19R1201     0.0000 
     41 H           2.6832  -18.0771   -6.8127 H         1 19R1201     0.0000 
@<TRIPOS>BOND
     1    2    1 ar   
     2    4    1 ar   
     3   22    1 1    
     4    3    2 ar   
     5   12    2 1    
     6    6    3 ar   
     7    5    4 ar   
     8    6    5 ar   
     9    9    5 1    
    10    7    6 1    
    11    8    7 2    
    12   10    7 1    
    13    9    8 1    
    14   23    8 1    
    15   24    9 1    
    16   11   10 2    
    17   13   10 am   
    18   14   12 1    
    19   15   12 1    
    20   25   12 1    
    21   16   13 1    
    22   26   13 1    
    23   15   14 1    
    24   27   14 1    
    25   28   14 1    
    26   29   15 1    
    27   30   15 1    
    28   17   16 1    
    29   21   16 1    
    30   31   16 1    
    31   18   17 1    
    32   19   17 1    
    33   20   17 1    
    34   32   18 1    
    35   33   18 1    
    36   34   18 1    
    37   35   19 1    
    38   36   19 1    
    39   37   19 1    
    40   41   20 1    
    41   38   21 1    
    42   39   21 1    
    43   40   21 1    
@<TRIPOS>SUBSTRUCTURE
     1 19R1201     1 GROUP   
@<TRIPOS>SET

