#    Name: 1q3e_PCG_2_INTS_M
#    Modification time : Mon Mar 24 22:50:03 2014

@<TRIPOS>MOLECULE
1q3e_PCG_2_INTS_M
   53     0    12     0     0
SMALL
NO_CHARGES


@<TRIPOS>ATOM
      1 N          23.0200   62.1715   28.6390 N.am      2 SEC2        0.0000 
      2 N          22.7130   60.8620   29.0100 N.am     10 SEL2        0.0000 
      3 N          23.3270   63.4810   28.2680 N.am      6 SEP2        0.0000 
      4 N          21.7240   61.5985   28.3245 N.am      2 SEC2        0.0000 
      5 N          20.7350   62.3350   27.6390 N.am      6 SEP2        0.0000 
      6 NZ         24.9880   58.7345   31.0785 N.4       3 LYC4        0.0000 
      7 NZ         24.0020   58.9860   30.1190 N.4      11 LYL4        0.0000 
      8 NZ         26.8290   59.2210   32.7400 N.4       7 LYP4        0.0000 
      9 N          24.4180   58.0710   28.9430 N.am      2 SEC2        0.0000 
     10 N          24.0020   58.9860   30.1190 N.am     10 SEL2        0.0000 
     11 N          24.8340   57.1560   27.7670 N.am      6 SEP2        0.0000 
     12 N          24.9880   58.7345   31.0785 N.am      2 SEC2        0.0000 
     13 N          25.9740   58.4830   32.0380 N.am      6 SEP2        0.0000 
     14 CA         23.2410   62.1290   33.0790 C.3       4 GLC5        0.0000 
     15 CA         21.6810   61.4440   31.9450 C.3      12 GLL5        0.0000 
     16 CA         24.8010   62.8140   34.2130 C.3       8 GLP5        0.0000 
     17 CA         20.6190   63.1660   31.5215 C.3       4 GLC5        0.0000 
     18 CA         19.5570   64.8880   31.0980 C.3       8 GLP5        0.0000 
     19 N          20.5260   57.2880   32.3590 N.am      2 SEC2        0.0000 
     20 N          19.4960   57.7060   31.4930 N.am     10 SEL2        0.0000 
     21 N          21.5560   56.8700   33.2250 N.am      6 SEP2        0.0000 
     22 N          18.1030   56.8895   31.8440 N.am      2 SEC2        0.0000 
     23 N          16.7100   56.0730   32.1950 N.am      6 SEP2        0.0000 
     24 O          19.1315   56.7110   30.6995 O.2       1 ALC1        0.0000 
     25 O          19.4960   57.7060   31.4930 O.2       9 ALL1        0.0000 
     26 O          18.7670   55.7160   29.9060 O.2       5 ALP1        0.0000 
     27 CA         17.5275   61.5820   32.7790 C.3       4 GLC5        0.0000 
     28 CA         18.3710   59.7600   32.0600 C.3      12 GLL5        0.0000 
     29 CA         16.6840   63.4040   33.4980 C.3       8 GLP5        0.0000 
     30 CA         18.8165   58.6135   33.6445 C.3       4 GLC5        0.0000 
     31 CA         19.2620   57.4670   35.2290 C.3       8 GLP5        0.0000 
     32 CA         14.1385   62.7560   30.8920 C.3       4 GLC5        0.0000 
     33 CA         15.4750   61.2440   30.4560 C.3      12 GLL5        0.0000 
     34 CA         12.8020   64.2680   31.3280 C.3       8 GLP5        0.0000 
     35 CA         14.9670   59.5430   29.7205 C.3       4 GLC5        0.0000 
     36 CA         14.4590   57.8420   28.9850 C.3       8 GLP5        0.0000 
     37 O          19.3640   62.4145   27.5470 O.2       1 ALC1        0.0000 
     38 O          17.9930   62.4940   27.4550 O.2       9 ALL1        0.0000 
     39 O          20.7350   62.3350   27.6390 O.2       5 ALP1        0.0000 
     40 CA         16.1555   59.1820   30.2525 C.3       4 GLC5        0.0000 
     41 CA         16.8410   61.0010   30.5030 C.3      12 GLL5        0.0000 
     42 CA         15.4700   57.3630   30.0020 C.3       8 GLP5        0.0000 
     43 CA         20.9533   61.6050   33.8205 C.3       4 GLC5        0.0000 
     44 CA         20.5700   60.4060   32.0290 C.3      12 GLL5        0.0000 
     45 CA         20.7810   62.2850   35.6540 C.3       8 GLP5        0.0000 
     46 CA         21.6910   58.5373   32.0900 C.3       4 GLC5        0.0000 
     47 CA         22.9450   56.9660   32.8270 C.3       8 GLP5        0.0000 
     48 CA         19.6497   59.2032   29.0035 C.3       4 GLC5        0.0000 
     49 CA         20.3040   59.8110   30.6770 C.3      12 GLL5        0.0000 
     50 CA         19.5990   59.0190   27.1990 C.3       8 GLP5        0.0000 
     51 CA         17.1020   58.3625   30.7508 C.3       4 GLC5        0.0000 
     52 CA         19.0970   58.9640   30.9390 C.3      12 GLL5        0.0000 
     53 CA         16.4210   62.2632   31.9887 C.3       4 GLC5        0.0000 
@<TRIPOS>BOND
@<TRIPOS>SUBSTRUCTURE
     1 ALC1       24 GROUP        1 X    ALC  0     ROOT ALC X 1
     2 SEC2        1 GROUP        1 X    SEC  0     **** SEC X 2
     3 LYC4        6 GROUP        1 X    LYC  0     **** LYC X 4
     4 GLC5       14 GROUP        1 X    GLC  0     **** GLC X 6
     5 ALP1       26 GROUP        1 Y    ALP  0     ROOT ALP Y 8
     6 SEP2        3 GROUP        1 Y    SEP  0     **** SEP Y 9
     7 LYP4        8 GROUP        1 Y    LYP  0     **** LYP Y 11
     8 GLP5       16 GROUP        1 Y    GLP  0     **** GLP Y 13
     9 ALL1       25 GROUP        1 Z    ALL  0     ROOT ALL Z 15
    10 SEL2        2 GROUP        1 Z    SEL  0     **** SEL Z 16
    11 LYL4        7 GROUP        1 Z    LYL  0     **** LYL Z 18
    12 GLL5       15 GROUP        1 Z    GLL  0     **** GLL Z 20
@<TRIPOS>SET

