#    Name: 1q3e_PCG_2_ligand
#    Modification time : Mon Mar 24 22:50:03 2014

@<TRIPOS>MOLECULE
1q3e_PCG_2_ligand
   34    37     1     0     0
SMALL
NO_CHARGES


@<TRIPOS>ATOM
      1 PA         22.8500   59.9100   30.1270 P.3       1 PCG402      0.0000 
      2 O1A        22.7130   60.8620   29.0100 O.co2     1 PCG402      0.0000 
      3 O2A        24.0020   58.9860   30.1190 O.co2     1 PCG402      0.0000 
      4 O5'        22.8770   60.7770   31.5010 O.3       1 PCG402      0.0000 
      5 C5'        21.6810   61.4440   31.9450 C.3       1 PCG402      0.0000 
      6 C4'        20.5700   60.4060   32.0290 C.3       1 PCG402      0.0000 
      7 O4'        19.2810   60.8650   32.4300 O.3       1 PCG402      0.0000 
      8 C3'        20.3040   59.8110   30.6770 C.3       1 PCG402      0.0000 
      9 O3'        21.4600   59.0620   30.2840 O.3       1 PCG402      0.0000 
     10 C2'        19.0970   58.9640   30.9390 C.3       1 PCG402      0.0000 
     11 O2'        19.4960   57.7060   31.4930 O.3       1 PCG402      0.0000 
     12 C1'        18.3710   59.7600   32.0600 C.3       1 PCG402      0.0000 
     13 N9         17.0700   60.3060   31.6160 N.pl3     1 PCG402      0.0000 
     14 C8         15.9030   60.1260   32.2440 C.2       1 PCG402      0.0000 
     15 N7         14.9300   60.6990   31.5330 N.2       1 PCG402      0.0000 
     16 C5         15.4750   61.2440   30.4560 C.2       1 PCG402      0.0000 
     17 C6         14.9460   61.9420   29.3750 C.2       1 PCG402      0.0000 
     18 O6         13.7420   62.1740   29.3150 O.2       1 PCG402      0.0000 
     19 N1         15.8050   62.3810   28.3530 N.am      1 PCG402      0.0000 
     20 C2         17.1790   62.1120   28.4390 C.2       1 PCG402      0.0000 
     21 N2         17.9930   62.4940   27.4550 N.pl3     1 PCG402      0.0000 
     22 N3         17.6640   61.4340   29.5100 N.2       1 PCG402      0.0000 
     23 C4         16.8410   61.0010   30.5030 C.2       1 PCG402      0.0000 
     24 H          21.3714   62.2184   31.2469 H         1 PCG402      0.0000 
     25 H          21.8104   61.8847   32.9309 H         1 PCG402      0.0000 
     26 H          20.8935   59.5831   32.6670 H         1 PCG402      0.0000 
     27 H          20.0552   60.5929   30.0152 H         1 PCG402      0.0000 
     28 H          18.4864   58.9146   30.1171 H         1 PCG402      0.0000 
     29 H          18.2504   59.1039   32.8986 H         1 PCG402      0.0000 
     30 H          15.7838   59.6510   33.0878 H         1 PCG402      0.0000 
     31 H          15.4300   62.8927   27.5529 H         1 PCG402      0.0000 
     32 H          17.5923   62.5243   26.5393 H         1 PCG402      0.0000 
     33 H          18.9310   62.7159   27.7211 H         1 PCG402      0.0000 
     34 H          19.2213   57.0254   30.8138 H         1 PCG402      0.0000 
@<TRIPOS>BOND
     1    2    1 ar   
     2    3    1 ar   
     3    4    1 1    
     4    9    1 1    
     5    5    4 1    
     6    6    5 1    
     7   24    5 1    
     8   25    5 1    
     9    7    6 1    
    10    8    6 1    
    11   26    6 1    
    12   12    7 1    
    13    9    8 1    
    14   10    8 1    
    15   27    8 1    
    16   11   10 1    
    17   12   10 1    
    18   28   10 1    
    19   34   11 1    
    20   13   12 1    
    21   29   12 1    
    22   14   13 1    
    23   23   13 1    
    24   15   14 2    
    25   30   14 1    
    26   16   15 1    
    27   17   16 1    
    28   23   16 2    
    29   18   17 2    
    30   19   17 am   
    31   20   19 1    
    32   31   19 1    
    33   21   20 1    
    34   22   20 2    
    35   32   21 1    
    36   33   21 1    
    37   23   22 1    
@<TRIPOS>SUBSTRUCTURE
     1 PCG402      1 GROUP   
@<TRIPOS>SET

