#    Name: 3an3_M7S_1_INTS_M
#    Modification time : Mon Mar 24 17:53:46 2014

@<TRIPOS>MOLECULE
3an3_M7S_1_INTS_M
   94     0     6     0     0
SMALL
NO_CHARGES


@<TRIPOS>ATOM
      1 CA         19.5115   69.5390   15.7460 C.3       2 GLC5        0.0000 
      2 CA         20.0410   68.8950   17.7000 C.3       6 GLL5        0.0000 
      3 CA         18.9820   70.1830   13.7920 C.3       4 GLP5        0.0000 
      4 CA         16.3040   64.7610   16.7370 C.3       2 GLC5        0.0000 
      5 CA         17.6510   66.1110   15.9310 C.3       6 GLL5        0.0000 
      6 CA         14.9570   63.4110   17.5430 C.3       4 GLP5        0.0000 
      7 CA         18.3615   64.2430   16.5920 C.3       2 GLC5        0.0000 
      8 CA         19.0720   62.3750   17.2530 C.3       4 GLP5        0.0000 
      9 CA         19.0970   65.4995   11.2420 C.3       2 GLC5        0.0000 
     10 CA         17.6150   66.9860   11.5420 C.3       6 GLL5        0.0000 
     11 CA         20.5790   64.0130   10.9420 C.3       4 GLP5        0.0000 
     12 CA         18.8740   68.2070   13.7315 C.3       2 GLC5        0.0000 
     13 CA         18.7660   66.2310   13.6710 C.3       6 GLL5        0.0000 
     14 CA         19.7325   65.9465   10.3500 C.3       2 GLC5        0.0000 
     15 CA         18.8860   67.8800    9.7580 C.3       6 GLL5        0.0000 
     16 CA         18.5410   66.3920    7.4925 C.3       2 GLC5        0.0000 
     17 CA         18.9080   68.1410    8.2970 C.3       6 GLL5        0.0000 
     18 CA         18.1740   64.6430    6.6880 C.3       4 GLP5        0.0000 
     19 CA         20.5240   67.0530    7.6355 C.3       2 GLC5        0.0000 
     20 CA         22.1400   65.9650    6.9740 C.3       4 GLP5        0.0000 
     21 CA         20.7580   70.6740    8.4590 C.3       2 GLC5        0.0000 
     22 CA         19.3910   69.5480    8.1070 C.3       6 GLL5        0.0000 
     23 CA         22.1250   71.8000    8.8110 C.3       4 GLP5        0.0000 
     24 CA         21.2265   68.9015    7.7470 C.3       2 GLC5        0.0000 
     25 CA         23.0620   68.2550    7.3870 C.3       4 GLP5        0.0000 
     26 CA         12.3385   71.3270    7.7145 C.3       2 GLC5        0.0000 
     27 CA         14.1010   71.7930    8.9010 C.3       6 GLL5        0.0000 
     28 CA         10.5760   70.8610    6.5280 C.3       4 GLP5        0.0000 
     29 CA         18.0960   70.5985   10.7855 C.3       2 GLC5        0.0000 
     30 CA         16.4950   71.1340    9.4140 C.3       6 GLL5        0.0000 
     31 CA         19.6970   70.0630   12.1570 C.3       4 GLP5        0.0000 
     32 CA         16.1225   69.6840    7.9710 C.3       2 GLC5        0.0000 
     33 CA         15.7500   68.2340    6.5280 C.3       4 GLP5        0.0000 
     34 CA         18.6930   72.7965    5.7760 C.3       2 GLC5        0.0000 
     35 CA         17.5650   74.5430    6.5810 C.3       6 GLL5        0.0000 
     36 CA         19.8210   71.0500    4.9710 C.3       4 GLP5        0.0000 
     37 CA         19.2895   75.5910    4.5190 C.3       2 GLC5        0.0000 
     38 CA         18.1170   75.9210    6.0140 C.3       6 GLL5        0.0000 
     39 CA         20.4620   75.2610    3.0240 C.3       4 GLP5        0.0000 
     40 CA         20.2535   75.4255    8.3520 C.3       2 GLC5        0.0000 
     41 CA         18.8920   76.6900    7.1570 C.3       6 GLL5        0.0000 
     42 CA         21.6150   74.1610    9.5470 C.3       4 GLP5        0.0000 
     43 CA         22.2335   67.1970   18.3225 C.3       2 GLC5        0.0000 
     44 CA         21.4380   69.1320   17.8810 C.3       6 GLL5        0.0000 
     45 CA         23.0290   65.2620   18.7640 C.3       4 GLP5        0.0000 
     46 CA         18.2780   71.1550   17.8885 C.3       2 GLC5        0.0000 
     47 CA         19.1080   69.6820   18.5240 C.3       6 GLL5        0.0000 
     48 CA         17.4480   72.6280   17.2530 C.3       4 GLP5        0.0000 
     49 CA         17.0265   68.9795   18.3105 C.3       2 GLC5        0.0000 
     50 CA         14.9450   68.2770   18.0970 C.3       4 GLP5        0.0000 
     51 CA         14.2125   70.6195   11.4585 C.3       2 GLC5        0.0000 
     52 CA         15.0640   70.8060    9.4250 C.3       6 GLL5        0.0000 
     53 CA         13.3610   70.4330   13.4920 C.3       4 GLP5        0.0000 
     54 N          12.6185   69.4975    8.1520 N.am      1 SEC2        0.0000 
     55 N          13.5440   69.0340    9.5230 N.am      5 SEL2        0.0000 
     56 N          11.6930   69.9610    6.7810 N.am      3 SEP2        0.0000 
     57 CA         18.8967   68.8475   15.3117 C.3       2 GLC5        0.0000 
     58 CA         18.1070   67.1860   16.9790 C.3       6 GLL5        0.0000 
     59 CA         16.4120   67.4627   17.2760 C.3       2 GLC5        0.0000 
     60 CA         17.8231   68.5683   13.4936 C.3       2 GLC5        0.0000 
     61 CA         16.3800   67.2150   12.2810 C.3       6 GLL5        0.0000 
     62 CA         16.2412   65.0773   11.7423 C.3       2 GLC5        0.0000 
     63 CA         15.4850   63.0540   11.5730 C.3       4 GLP5        0.0000 
     64 CA         18.9475   68.4027   12.0305 C.3       2 GLC5        0.0000 
     65 CA         17.9205   64.3869   13.1099 C.3       2 GLC5        0.0000 
     66 CA         18.7810   66.4990   12.2660 C.3       6 GLL5        0.0000 
     67 CA         17.3680   62.3560   13.0560 C.3       4 GLP5        0.0000 
     68 CA         20.1862   65.7105   12.4937 C.3       2 GLC5        0.0000 
     69 CA         21.5990   65.0560   12.0190 C.3       4 GLP5        0.0000 
     70 CA         17.4498   68.5392    7.3650 C.3       2 GLC5        0.0000 
     71 CA         20.0532   69.2733    6.7385 C.3       2 GLC5        0.0000 
     72 CA         20.9570   69.7020    5.2750 C.3       4 GLP5        0.0000 
     73 CA         19.4205   69.4211   10.3621 C.3       2 GLC5        0.0000 
     74 CA         14.2334   68.2521   12.7278 C.3       2 GLC5        0.0000 
     75 CA         15.2030   67.7100   11.5470 C.3       6 GLL5        0.0000 
     76 CA         12.6870   69.1100   13.1700 C.3       4 GLP5        0.0000 
     77 CA         14.5623   70.1803    7.6550 C.3       2 GLC5        0.0000 
     78 CA         14.5420   69.0610    6.1470 C.3       4 GLP5        0.0000 
     79 CA         17.1683   74.8278   10.2915 C.3       2 GLC5        0.0000 
     80 CA         17.3740   75.5900    8.9310 C.3       6 GLL5        0.0000 
     81 CA         17.3620   74.4650   12.2150 C.3       4 GLP5        0.0000 
     82 CA         19.2308   78.2984    8.1385 C.3       2 GLC5        0.0000 
     83 CA         17.9240   76.9690    8.3770 C.3       6 GLL5        0.0000 
     84 CA         20.8960   79.2540    8.4460 C.3       4 GLP5        0.0000 
     85 CA         22.9955   69.8593   19.8954 C.3       2 GLC5        0.0000 
     86 CA         21.0180   70.8620   19.6330 C.3       6 GLL5        0.0000 
     87 CA         24.6410   69.4800   20.7970 C.3       4 GLP5        0.0000 
     88 CA         20.1360   72.0962   18.6164 C.3       2 GLC5        0.0000 
     89 CA         21.9260   70.0980   18.8280 C.3       6 GLL5        0.0000 
     90 CA         19.7410   73.6230   17.8750 C.3       4 GLP5        0.0000 
     91 CA         18.0715   70.7748   20.0638 C.3       2 GLC5        0.0000 
     92 CA         19.5900   70.6590   19.4850 C.3       6 GLL5        0.0000 
     93 CA         16.7940   71.3790   21.1230 C.3       4 GLP5        0.0000 
     94 CA         16.8739   73.5295   10.4872 C.3       2 GLC5        0.0000 
@<TRIPOS>BOND
@<TRIPOS>SUBSTRUCTURE
     1 SEC2       54 GROUP        1 X    SEC  0     ROOT SEC X 2
     2 GLC5        1 GROUP        1 X    GLC  0     **** GLC X 6
     3 SEP2       56 GROUP        1 Y    SEP  0     ROOT SEP Y 9
     4 GLP5        3 GROUP        1 Y    GLP  0     **** GLP Y 13
     5 SEL2       55 GROUP        1 Z    SEL  0     ROOT SEL Z 16
     6 GLL5        2 GROUP        1 Z    GLL  0     **** GLL Z 20
@<TRIPOS>SET

