#    Name: 3an3_M7S_1_ligand
#    Modification time : Mon Mar 24 17:53:46 2014

@<TRIPOS>MOLECULE
3an3_M7S_1_ligand
   84    89     1     0     0
SMALL
NO_CHARGES


@<TRIPOS>ATOM
      1 C1         18.1150   66.5110   18.2180 C.2       1 M7S1        0.0000 
      2 O1         18.7160   65.4690   18.4770 O.co2     1 M7S1        0.0000 
      3 C2         18.1070   67.1860   16.9790 C.3       1 M7S1        0.0000 
      4 O2         17.3970   67.1510   19.1590 O.co2     1 M7S1        0.0000 
      5 C3         19.5160   67.8380   16.6840 C.3       1 M7S1        0.0000 
      6 O3         17.6620   67.2390   10.1540 O.3       1 M7S1        0.0000 
      7 C4         20.0410   68.8950   17.7000 C.ar      1 M7S1        0.0000 
      8 C5         17.6510   66.1110   15.9310 C.3       1 M7S1        0.0000 
      9 C6         17.5640   66.4420   14.4520 C.ar      1 M7S1        0.0000 
     10 C7         16.3330   66.9420   13.7670 C.ar      1 M7S1        0.0000 
     11 C8         16.3800   67.2150   12.2810 C.ar      1 M7S1        0.0000 
     12 C9         17.6150   66.9860   11.5420 C.ar      1 M7S1        0.0000 
     13 C10        18.7810   66.4990   12.2660 C.ar      1 M7S1        0.0000 
     14 C11        18.7660   66.2310   13.6710 C.ar      1 M7S1        0.0000 
     15 C12        18.8860   67.8800    9.7580 C.3       1 M7S1        0.0000 
     16 C13        18.9080   68.1410    8.2970 C.3       1 M7S1        0.0000 
     17 C14        19.3910   69.5480    8.1070 C.3       1 M7S1        0.0000 
     18 C15        15.2030   67.7100   11.5470 C.3       1 M7S1        0.0000 
     19 C17        14.1010   71.7930    8.9010 C.ar      1 M7S1        0.0000 
     20 C19        14.5810   73.0800    8.3790 C.ar      1 M7S1        0.0000 
     21 C22        16.4950   71.1340    9.4140 C.ar      1 M7S1        0.0000 
     22 C23        16.5750   74.7910    7.8050 C.3       1 M7S1        0.0000 
     23 C24        17.5650   74.5430    6.5810 C.3       1 M7S1        0.0000 
     24 C25        17.3740   75.5900    8.9310 C.3       1 M7S1        0.0000 
     25 C26        15.3820   75.7390    7.2890 C.3       1 M7S1        0.0000 
     26 C27        18.1170   75.9210    6.0140 C.3       1 M7S1        0.0000 
     27 C28        17.9240   76.9690    8.3770 C.3       1 M7S1        0.0000 
     28 C29        15.9390   77.1100    6.7380 C.3       1 M7S1        0.0000 
     29 C30        18.8920   76.6900    7.1570 C.3       1 M7S1        0.0000 
     30 C31        16.9150   76.8140    5.5260 C.3       1 M7S1        0.0000 
     31 C32        16.7230   77.8560    7.8950 C.3       1 M7S1        0.0000 
     32 C51        21.4380   69.1320   17.8810 C.ar      1 M7S1        0.0000 
     33 C52        21.9260   70.0980   18.8280 C.ar      1 M7S1        0.0000 
     34 C53        21.0180   70.8620   19.6330 C.ar      1 M7S1        0.0000 
     35 C54        19.5900   70.6590   19.4850 C.ar      1 M7S1        0.0000 
     36 C55        19.1080   69.6820   18.5240 C.ar      1 M7S1        0.0000 
     37 C87        15.0640   70.8060    9.4250 C.ar      1 M7S1        0.0000 
     38 C97        14.6110   69.5640    9.9230 C.2       1 M7S1        0.0000 
     39 C98        16.0340   73.4170    8.3640 C.ar      1 M7S1        0.0000 
     40 C99        16.9800   72.4080    8.8960 C.ar      1 M7S1        0.0000 
     41 N99        15.4730   69.0030   10.8910 N.am      1 M7S1        0.0000 
     42 O99        13.5440   69.0340    9.5230 O.2       1 M7S1        0.0000 
     43 H          17.3629   67.9711   16.9727 H         1 M7S1        0.0000 
     44 H          19.4698   68.3041   15.6788 H         1 M7S1        0.0000 
     45 H          20.2593   67.0185   16.6083 H         1 M7S1        0.0000 
     46 H          16.6452   65.7210   16.2772 H         1 M7S1        0.0000 
     47 H          18.3297   65.2138   16.0645 H         1 M7S1        0.0000 
     48 H          15.5011   67.0935   14.2692 H         1 M7S1        0.0000 
     49 H          19.6505   66.3439   11.7328 H         1 M7S1        0.0000 
     50 H          19.6042   65.8883   14.1343 H         1 M7S1        0.0000 
     51 H          19.7578   67.2530   10.0209 H         1 M7S1        0.0000 
     52 H          19.0154   68.8388   10.2930 H         1 M7S1        0.0000 
     53 H          17.9135   68.0400    7.8841 H         1 M7S1        0.0000 
     54 H          19.5846   67.4556    7.8049 H         1 M7S1        0.0000 
     55 H          14.3514   67.8191   12.2419 H         1 M7S1        0.0000 
     56 H          14.8997   66.9670   10.7881 H         1 M7S1        0.0000 
     57 H          13.1226   71.5840    8.9021 H         1 M7S1        0.0000 
     58 H          13.9227   73.7549    8.0219 H         1 M7S1        0.0000 
     59 H          17.1581   70.4562    9.7759 H         1 M7S1        0.0000 
     60 H          17.0267   74.0371    5.8003 H         1 M7S1        0.0000 
     61 H          18.3943   73.9515    6.9238 H         1 M7S1        0.0000 
     62 H          18.2057   74.9863    9.2538 H         1 M7S1        0.0000 
     63 H          16.7046   75.7852    9.7521 H         1 M7S1        0.0000 
     64 H          14.7241   75.9304    8.1189 H         1 M7S1        0.0000 
     65 H          14.8626   75.2235    6.4999 H         1 M7S1        0.0000 
     66 H          18.7681   75.7347    5.2134 H         1 M7S1        0.0000 
     67 H          18.4527   77.4637    9.1362 H         1 M7S1        0.0000 
     68 H          15.1416   77.7055    6.4101 H         1 M7S1        0.0000 
     69 H          19.2420   77.6286    6.7699 H         1 M7S1        0.0000 
     70 H          19.7092   76.0805    7.4946 H         1 M7S1        0.0000 
     71 H          16.3711   76.2863    4.7661 H         1 M7S1        0.0000 
     72 H          17.2973   77.7459    5.1555 H         1 M7S1        0.0000 
     73 H          17.1002   78.7845    7.5108 H         1 M7S1        0.0000 
     74 H          16.0508   78.0185    8.7158 H         1 M7S1        0.0000 
     75 H          22.1155   68.6002   17.3216 H         1 M7S1        0.0000 
     76 H          22.9304   70.2401   18.9269 H         1 M7S1        0.0000 
     77 H          21.3622   71.5358   20.2978 H         1 M7S1        0.0000 
     78 H          18.9417   71.1862   20.0389 H         1 M7S1        0.0000 
     79 H          18.1115   69.5328   18.4121 H         1 M7S1        0.0000 
     80 H          17.9655   72.6138    8.8954 H         1 M7S1        0.0000 
     81 H          16.3339   69.4984   11.1683 H         1 M7S1        0.0000 
     82 H          20.3093   69.6791    8.4805 H         1 M7S1        0.0000 
     83 H          19.4292   69.8002    7.1401 H         1 M7S1        0.0000 
     84 H          18.7934   70.2101    8.5592 H         1 M7S1        0.0000 
@<TRIPOS>BOND
     1    2    1 ar   
     2    3    1 1    
     3    4    1 ar   
     4    5    3 1    
     5    8    3 1    
     6   43    3 1    
     7    7    5 1    
     8   44    5 1    
     9   45    5 1    
    10   12    6 1    
    11   15    6 1    
    12   32    7 ar   
    13   36    7 ar   
    14    9    8 1    
    15   46    8 1    
    16   47    8 1    
    17   10    9 ar   
    18   14    9 ar   
    19   11   10 ar   
    20   48   10 1    
    21   12   11 ar   
    22   18   11 1    
    23   13   12 ar   
    24   14   13 ar   
    25   49   13 1    
    26   50   14 1    
    27   16   15 1    
    28   51   15 1    
    29   52   15 1    
    30   17   16 1    
    31   53   16 1    
    32   54   16 1    
    33   82   17 1    
    34   83   17 1    
    35   84   17 1    
    36   41   18 1    
    37   55   18 1    
    38   56   18 1    
    39   20   19 ar   
    40   37   19 ar   
    41   57   19 1    
    42   39   20 ar   
    43   58   20 1    
    44   37   21 ar   
    45   40   21 ar   
    46   59   21 1    
    47   23   22 1    
    48   24   22 1    
    49   25   22 1    
    50   39   22 1    
    51   26   23 1    
    52   60   23 1    
    53   61   23 1    
    54   27   24 1    
    55   62   24 1    
    56   63   24 1    
    57   28   25 1    
    58   64   25 1    
    59   65   25 1    
    60   29   26 1    
    61   30   26 1    
    62   66   26 1    
    63   29   27 1    
    64   31   27 1    
    65   67   27 1    
    66   30   28 1    
    67   31   28 1    
    68   68   28 1    
    69   69   29 1    
    70   70   29 1    
    71   71   30 1    
    72   72   30 1    
    73   73   31 1    
    74   74   31 1    
    75   33   32 ar   
    76   75   32 1    
    77   34   33 ar   
    78   76   33 1    
    79   35   34 ar   
    80   77   34 1    
    81   36   35 ar   
    82   78   35 1    
    83   79   36 1    
    84   38   37 1    
    85   41   38 am   
    86   42   38 2    
    87   40   39 ar   
    88   80   40 1    
    89   81   41 1    
@<TRIPOS>SUBSTRUCTURE
     1 M7S1        1 GROUP   
@<TRIPOS>SET

