#    Name: 2xtn_GTP_1_INTS_M
#    Modification time : Tue Mar 25 06:36:10 2014

@<TRIPOS>MOLECULE
2xtn_GTP_1_INTS_M
   52     0    12     0     0
SMALL
NO_CHARGES


@<TRIPOS>ATOM
      1 N           9.1555   22.7030   20.7725 N.am      2 SEC2        0.0000 
      2 N           7.8650   22.2700   20.7960 N.am     10 SEL2        0.0000 
      3 N          10.4460   23.1360   20.7490 N.am      6 SEP2        0.0000 
      4 Zn          7.7575   20.7340   17.7835 Zn        3 ZIC7        0.0000 
      5 Zn          7.8200   21.5590   18.4240 Zn       11 ZIL7        0.0000 
      6 Zn          7.6950   19.9090   17.1430 Zn        7 ZIP7        0.0000 
      7 N           9.2560   21.9915   18.1545 N.am      2 SEC2        0.0000 
      8 N           7.8200   21.5590   18.4240 N.am     10 SEL2        0.0000 
      9 N          10.6920   22.4240   17.8850 N.am      6 SEP2        0.0000 
     10 N           5.7890   23.9540   20.0950 N.am      2 SEC2        0.0000 
     11 N           6.0060   22.9600   19.3050 N.am     10 SEL2        0.0000 
     12 N           5.5720   24.9480   20.8850 N.am      6 SEP2        0.0000 
     13 N           4.8780   22.7100   20.2890 N.am      2 SEC2        0.0000 
     14 N           3.7500   22.4600   21.2730 N.am      6 SEP2        0.0000 
     15 N           4.9740   21.5255   20.7290 N.am      2 SEC2        0.0000 
     16 N           6.1980   20.5910   20.1850 N.am     10 SEL2        0.0000 
     17 Zn          6.8625   19.5200   17.6245 Zn        3 ZIC7        0.0000 
     18 Zn          6.0300   19.1310   18.1060 Zn       11 ZIL7        0.0000 
     19 N           5.5820   18.1540   17.1195 N.am      2 SEC2        0.0000 
     20 N           6.0300   19.1310   18.1060 N.am     10 SEL2        0.0000 
     21 N           5.1340   17.1770   16.1330 N.am      6 SEP2        0.0000 
     22 N           2.9880   19.0050   19.7765 N.am      2 SEC2        0.0000 
     23 N           3.8930   19.9600   19.1700 N.am     10 SEL2        0.0000 
     24 N           2.0830   18.0500   20.3830 N.am      6 SEP2        0.0000 
     25 N           3.3200   18.9055   18.4305 N.am      2 SEC2        0.0000 
     26 N           2.7470   17.8510   17.6910 N.am      6 SEP2        0.0000 
     27 N           6.0340   15.4080   18.3025 N.am      2 SEC2        0.0000 
     28 N           6.4960   16.1950   19.4370 N.am     10 SEL2        0.0000 
     29 N           5.5720   14.6210   17.1680 N.am      6 SEP2        0.0000 
     30 N           7.2770   15.1970   19.6990 N.am      2 SEC2        0.0000 
     31 N           8.0580   14.1990   19.9610 N.am      6 SEP2        0.0000 
     32 CA          9.0675   14.9360   23.5945 C.3       4 GLC5        0.0000 
     33 CA          7.0940   14.8420   23.8950 C.3      12 GLL5        0.0000 
     34 CA         11.0410   15.0300   23.2940 C.3       8 GLP5        0.0000 
     35 CA          8.5870   15.5290   25.3450 C.3       4 GLC5        0.0000 
     36 CA         10.0800   16.2160   26.7950 C.3       8 GLP5        0.0000 
     37 N           1.5840   13.0925   20.6845 N.am      2 SEC2        0.0000 
     38 N           2.0050   13.4710   22.0590 N.am     10 SEL2        0.0000 
     39 N           1.1630   12.7140   19.3100 N.am      6 SEP2        0.0000 
     40 CA          1.9605   11.6615   21.5685 C.3       4 GLC5        0.0000 
     41 CA          1.7370   12.6530   23.0990 C.3      12 GLL5        0.0000 
     42 CA          2.1840   10.6700   20.0380 C.3       8 GLP5        0.0000 
     43 N          -1.5105   12.1270   22.7750 N.am      2 SEC2        0.0000 
     44 N          -0.2320   11.5970   22.5740 N.am     10 SEL2        0.0000 
     45 N          -2.7890   12.6570   22.9760 N.am      6 SEP2        0.0000 
     46 N           0.0715   10.3960   21.6610 N.am      2 SEC2        0.0000 
     47 N           0.3750    9.1950   20.7480 N.am      6 SEP2        0.0000 
     48 O          -0.0465   10.3755   25.4170 O.2       1 ALC1        0.0000 
     49 O           0.7160   11.0680   24.5680 O.2       9 ALL1        0.0000 
     50 O          -0.8090    9.6830   26.2660 O.2       5 ALP1        0.0000 
     51 O           0.4685   10.1200   26.4410 O.2       1 ALC1        0.0000 
     52 O           1.7460   10.5570   26.6160 O.2       9 ALL1        0.0000 
@<TRIPOS>BOND
@<TRIPOS>SUBSTRUCTURE
     1 ALC1       48 GROUP        1 X    ALC  0     ROOT ALC X 1
     2 SEC2        1 GROUP        1 X    SEC  0     **** SEC X 2
     3 ZIC7        4 GROUP        1 X    ZIC  0     **** ZIC X 5
     4 GLC5       32 GROUP        1 X    GLC  0     **** GLC X 6
     5 ALP1       50 GROUP        1 Y    ALP  0     ROOT ALP Y 8
     6 SEP2        3 GROUP        1 Y    SEP  0     **** SEP Y 9
     7 ZIP7        6 GROUP        1 Y    ZIP  0     **** ZIP Y 12
     8 GLP5       34 GROUP        1 Y    GLP  0     **** GLP Y 13
     9 ALL1       49 GROUP        1 Z    ALL  0     ROOT ALL Z 15
    10 SEL2        2 GROUP        1 Z    SEL  0     **** SEL Z 16
    11 ZIL7        5 GROUP        1 Z    ZIL  0     **** ZIL Z 19
    12 GLL5       33 GROUP        1 Z    GLL  0     **** GLL Z 20
@<TRIPOS>SET

