#    Name: 2xtn_GTP_1_ligand
#    Modification time : Tue Mar 25 06:36:10 2014

@<TRIPOS>MOLECULE
2xtn_GTP_1_ligand
   44    46     1     0     0
SMALL
NO_CHARGES


@<TRIPOS>ATOM
      1 PG          6.9930   21.8690   19.6320 P.3       1 GTP1231     0.0000 
      2 O1G         7.8650   22.2700   20.7960 O.co2     1 GTP1231     0.0000 
      3 O2G         7.8200   21.5590   18.4240 O.co2     1 GTP1231     0.0000 
      4 O3G         6.0060   22.9600   19.3050 O.co2     1 GTP1231     0.0000 
      5 O3B         6.1980   20.5910   20.1850 O.3       1 GTP1231     0.0000 
      6 PB          5.3220   19.5220   19.3700 P.3       1 GTP1231     0.0000 
      7 O1B         6.0300   19.1310   18.1060 O.co2     1 GTP1231     0.0000 
      8 O2B         3.8930   19.9600   19.1700 O.co2     1 GTP1231     0.0000 
      9 O3A         5.3240   18.2640   20.3730 O.3       1 GTP1231     0.0000 
     10 PA          6.5240   17.2000   20.5410 P.3       1 GTP1231     0.0000 
     11 O1A         7.8610   17.8830   20.6730 O.co2     1 GTP1231     0.0000 
     12 O2A         6.4960   16.1950   19.4370 O.co2     1 GTP1231     0.0000 
     13 O5'         6.0840   16.5130   21.9220 O.3       1 GTP1231     0.0000 
     14 C5'         6.3060   17.1330   23.1780 C.3       1 GTP1231     0.0000 
     15 C4'         6.2320   16.0430   24.2500 C.3       1 GTP1231     0.0000 
     16 O4'         4.8950   15.5680   24.3520 O.3       1 GTP1231     0.0000 
     17 C3'         7.0940   14.8420   23.8950 C.3       1 GTP1231     0.0000 
     18 O3'         7.7270   14.3690   25.0630 O.3       1 GTP1231     0.0000 
     19 C2'         6.1110   13.8000   23.4090 C.3       1 GTP1231     0.0000 
     20 O2'         6.5670   12.4910   23.6610 O.3       1 GTP1231     0.0000 
     21 C1'         4.8630   14.1620   24.2020 C.3       1 GTP1231     0.0000 
     22 N9          3.6360   13.7230   23.5200 N.pl3     1 GTP1231     0.0000 
     23 C8          3.1620   14.1260   22.2980 C.2       1 GTP1231     0.0000 
     24 N7          2.0050   13.4710   22.0590 N.2       1 GTP1231     0.0000 
     25 C5          1.7370   12.6530   23.0990 C.2       1 GTP1231     0.0000 
     26 C6          0.6970   11.7680   23.3730 C.2       1 GTP1231     0.0000 
     27 O6         -0.2320   11.5970   22.5740 O.2       1 GTP1231     0.0000 
     28 N1          0.7160   11.0680   24.5680 N.am      1 GTP1231     0.0000 
     29 C2          1.7410   11.2410   25.4720 C.2       1 GTP1231     0.0000 
     30 N2          1.7460   10.5570   26.6160 N.pl3     1 GTP1231     0.0000 
     31 N3          2.7650   12.1190   25.1950 N.2       1 GTP1231     0.0000 
     32 C4          2.7540   12.8160   24.0320 C.2       1 GTP1231     0.0000 
     33 H           5.5480   17.8784   23.4104 H         1 GTP1231     0.0000 
     34 H           7.2891   17.5951   23.2425 H         1 GTP1231     0.0000 
     35 H           6.5719   16.4451   25.1826 H         1 GTP1231     0.0000 
     36 H           7.7449   15.0993   23.1201 H         1 GTP1231     0.0000 
     37 H           5.9083   14.0057   22.3789 H         1 GTP1231     0.0000 
     38 H           4.9476   13.6776   25.1680 H         1 GTP1231     0.0000 
     39 H           3.5875   14.7638   21.7213 H         1 GTP1231     0.0000 
     40 H          -0.0531   10.4056   24.7820 H         1 GTP1231     0.0000 
     41 H           0.9763    9.9350   26.7602 H         1 GTP1231     0.0000 
     42 H           2.5190   10.7274   27.2272 H         1 GTP1231     0.0000 
     43 H           7.4927   13.3979   25.1091 H         1 GTP1231     0.0000 
     44 H           7.0066   12.2020   22.8106 H         1 GTP1231     0.0000 
@<TRIPOS>BOND
     1    2    1 ar   
     2    3    1 ar   
     3    4    1 ar   
     4    5    1 1    
     5    6    5 1    
     6    7    6 ar   
     7    8    6 ar   
     8    9    6 1    
     9   10    9 1    
    10   11   10 ar   
    11   12   10 ar   
    12   13   10 1    
    13   14   13 1    
    14   15   14 1    
    15   33   14 1    
    16   34   14 1    
    17   16   15 1    
    18   17   15 1    
    19   35   15 1    
    20   21   16 1    
    21   18   17 1    
    22   19   17 1    
    23   36   17 1    
    24   43   18 1    
    25   20   19 1    
    26   21   19 1    
    27   37   19 1    
    28   44   20 1    
    29   22   21 1    
    30   38   21 1    
    31   23   22 1    
    32   32   22 1    
    33   24   23 2    
    34   39   23 1    
    35   25   24 1    
    36   26   25 1    
    37   32   25 2    
    38   27   26 2    
    39   28   26 am   
    40   29   28 1    
    41   40   28 1    
    42   30   29 1    
    43   31   29 2    
    44   41   30 1    
    45   42   30 1    
    46   32   31 1    
@<TRIPOS>SUBSTRUCTURE
     1 GTP1231     1 GROUP   
@<TRIPOS>SET

