#    Name: 1BIW_1_CAVITY_N1_6.mol2
#    Modification time : Mon Mar 10 14:53:07 2014

@<TRIPOS>MOLECULE
1BIW_1_CAVITY_N1_6.mol2
   75     0     6     0     0
SMALL
NO_CHARGES


@<TRIPOS>ATOM
      1 CA          6.3755   47.8054   55.0748 C.3       5 GLY6        0.0000 
      2 N           5.6819   49.1266   55.2276 N.2       1 ALA2        0.0000 
      3 CA          5.8599   47.6972   53.6703 C.3       5 GLY6        0.0000 
      4 N           5.1663   49.0184   53.8231 N.2       1 ALA2        0.0000 
      5 CA          4.6507   48.9103   52.4187 C.3       5 GLY6        0.0000 
      6 N           3.9572   50.2315   52.5715 N.2       1 ALA2        0.0000 
      7 N           3.2636   51.5527   52.7244 N.2       1 ALA2        0.0000 
      8 CA          4.1352   48.8021   51.0142 C.3       5 GLY6        0.0000 
      9 CA          3.4416   50.1233   51.1671 C.3       5 GLY6        0.0000 
     10 DU          2.7480   51.4445   51.3199 H         6 CUB7        0.0000 
     11 CA          2.9260   50.0151   49.7626 C.3       5 GLY6        0.0000 
     12 N           4.4558   48.4247   55.7317 N.2       1 ALA2        0.0000 
     13 CA          4.6339   46.9953   54.1744 C.3       5 GLY6        0.0000 
     14 N           3.9403   48.3165   54.3273 N.2       1 ALA2        0.0000 
     15 N           3.2467   49.6377   54.4801 N.2       1 ALA2        0.0000 
     16 O           4.1183   46.8871   52.7700 O.2       1 ALA2        0.0000 
     17 N           3.4247   48.2083   52.9228 N.2       1 ALA2        0.0000 
     18 N           2.7311   49.5295   53.0757 N.2       1 ALA2        0.0000 
     19 N           2.0376   50.8508   53.2285 N.2       1 ALA2        0.0000 
     20 N           2.9092   48.1002   51.5184 N.2       1 ALA2        0.0000 
     21 N           2.2156   49.4214   51.6712 N.2       1 ALA2        0.0000 
     22 DU          1.5220   50.7426   51.8240 H         6 CUB7        0.0000 
     23 N           0.8284   52.0638   51.9769 N.2       1 ALA2        0.0000 
     24 CA          1.7000   49.3132   50.2667 C.3       5 GLY6        0.0000 
     25 DU          1.0064   50.6344   50.4196 H         6 CUB7        0.0000 
     26 N           5.2921   48.1555   61.8537 N.2       1 ALA2        0.0000 
     27 O           3.7454   47.8310   57.6403 O.2       1 ALA2        0.0000 
     28 N           3.0518   49.1522   57.7931 N.2       1 ALA2        0.0000 
     29 CA          3.9234   46.4016   56.0830 C.3       5 GLY6        0.0000 
     30 DU          3.2298   47.7228   56.2359 H         6 CUB7        0.0000 
     31 N           2.5362   49.0440   56.3887 N.2       1 ALA2        0.0000 
     32 CA          3.4078   46.2934   54.6786 C.3       5 GLY6        0.0000 
     33 NZ          2.7143   47.6146   54.8314 N.2       3 LYS4        0.0000 
     34 N           2.0207   48.9358   54.9842 N.2       1 ALA2        0.0000 
     35 O           2.8923   46.1852   53.2741 O.2       1 ALA2        0.0000 
     36 N           2.1987   47.5064   53.4269 N.2       1 ALA2        0.0000 
     37 NZ          1.5051   48.8276   53.5798 N.2       3 LYS4        0.0000 
     38 N           0.9896   48.7194   52.1753 N.2       1 ALA2        0.0000 
     39 OD1         0.2960   50.0406   52.3282 O.3       2 ASP3        0.0000 
     40 N          -0.2196   49.9325   50.9237 N.2       1 ALA2        0.0000 
     41 CZ          4.7596   46.1324   62.2050 C.ar      4 PHE5        0.0000 
     42 N           4.0660   47.4536   62.3578 N.2       1 ALA2        0.0000 
     43 N           3.3725   48.7748   62.5106 N.2       1 ALA2        0.0000 
     44 N           2.6789   50.0960   62.6635 N.2       1 ALA2        0.0000 
     45 CZ          4.2441   46.0242   60.8005 C.ar      4 PHE5        0.0000 
     46 N           3.5505   47.3454   60.9534 N.2       1 ALA2        0.0000 
     47 N           2.8569   48.6666   61.1062 N.2       1 ALA2        0.0000 
     48 CZ          3.7285   45.9160   59.3961 C.ar      4 PHE5        0.0000 
     49 N           3.0349   47.2372   59.5489 N.2       1 ALA2        0.0000 
     50 O           2.3413   48.5584   59.7017 O.2       1 ALA2        0.0000 
     51 CA          3.2129   45.8078   57.9916 C.3       5 GLY6        0.0000 
     52 CA          2.5194   47.1290   58.1444 C.3       5 GLY6        0.0000 
     53 CA          2.6974   45.6996   56.5872 C.3       5 GLY6        0.0000 
     54 CA          2.0038   47.0208   56.7400 C.3       5 GLY6        0.0000 
     55 NZ          2.1818   45.5914   55.1827 N.2       3 LYS4        0.0000 
     56 DU          9.3431   49.3175   55.4709 H         6 CUB7        0.0000 
     57 CA          8.6495   50.6387   55.6238 C.3       5 GLY6        0.0000 
     58 CA          7.4404   51.8517   54.3722 C.3       5 GLY6        0.0000 
     59 CA          8.8106   47.2943   55.8222 C.3       5 GLY6        0.0000 
     60 O           8.1170   48.6155   55.9751 O.2       1 ALA2        0.0000 
     61 O           7.4235   49.9367   56.1279 O.2       1 ALA2        0.0000 
     62 CA          7.6015   48.5074   54.5706 C.3       5 GLY6        0.0000 
     63 N           6.9079   49.8286   54.7235 N.2       1 ALA2        0.0000 
     64 N           6.3923   49.7204   53.3190 N.2       1 ALA2        0.0000 
     65 N           5.6988   51.0416   53.4718 N.2       1 ALA2        0.0000 
     66 N           5.0052   52.3628   53.6247 N.2       1 ALA2        0.0000 
     67 N           5.8768   49.6122   51.9146 N.2       1 ALA2        0.0000 
     68 N           5.1832   50.9334   52.0674 N.2       1 ALA2        0.0000 
     69 CA          5.3612   49.5040   50.5101 C.3       5 GLY6        0.0000 
     70 CA          3.0180   45.3222   61.3046 C.3       5 GLY6        0.0000 
     71 CA          2.3244   46.6435   61.4575 C.3       5 GLY6        0.0000 
     72 N           1.6309   47.9647   61.6103 N.2       1 ALA2        0.0000 
     73 N           2.5025   45.2141   59.9002 N.2       1 ALA2        0.0000 
     74 CA          1.8089   46.5353   60.0530 C.3       5 GLY6        0.0000 
     75 CA          1.9869   45.1059   58.4957 C.3       5 GLY6        0.0000 
@<TRIPOS>BOND
@<TRIPOS>SUBSTRUCTURE
     1 ALA2        2 GROUP   
     2 ASP3       39 GROUP   
     3 LYS4       33 GROUP   
     4 PHE5       41 GROUP   
     5 GLY6        1 GROUP   
     6 CUB7       10 GROUP   
@<TRIPOS>SET

