#    Name: 1biw_S80_1_INTS_M
#    Modification time : Mon Mar 24 19:35:56 2014

@<TRIPOS>MOLECULE
1biw_S80_1_INTS_M
   52     0    12     0     0
SMALL
NO_CHARGES


@<TRIPOS>ATOM
      1 N           6.8595   48.8470   57.1985 N.am      2 SEC2        0.0000 
      2 N           7.1300   48.7430   55.7910 N.am     10 SEL2        0.0000 
      3 N           6.5890   48.9510   58.6060 N.am      6 SEP2        0.0000 
      4 CA          8.8655   46.6975   53.1145 C.3       4 GLC5        0.0000 
      5 CA          9.7910   48.5950   53.3280 C.3      12 GLL5        0.0000 
      6 CA          7.9400   44.8000   52.9010 C.3       8 GLP5        0.0000 
      7 O           5.0410   50.5670   54.8855 O.2       1 ALC1        0.0000 
      8 O           5.5340   49.6070   53.8140 O.2       9 ALL1        0.0000 
      9 O           4.5480   51.5270   55.9570 O.2       5 ALP1        0.0000 
     10 Zn         -0.2930   50.1975   54.5435 Zn        3 ZIC7        0.0000 
     11 Zn          0.6530   50.2790   54.1110 Zn       11 ZIL7        0.0000 
     12 Zn         -1.2390   50.1160   54.9760 Zn        7 ZIP7        0.0000 
     13 O           0.2975   47.5345   51.8870 O.2       1 ALC1        0.0000 
     14 O          -0.2040   48.7210   52.8070 O.2       9 ALL1        0.0000 
     15 O           0.7990   46.3480   50.9670 O.2       5 ALP1        0.0000 
     16 Zn         -1.3195   49.5115   54.2305 Zn        3 ZIC7        0.0000 
     17 Zn         -1.4000   48.9070   53.4850 Zn       11 ZIL7        0.0000 
     18 O          -1.9115   47.6070   53.4295 O.2       1 ALC1        0.0000 
     19 O          -1.4000   48.9070   53.4850 O.2       9 ALL1        0.0000 
     20 O          -2.4230   46.3070   53.3740 O.2       5 ALP1        0.0000 
     21 CA          2.8650   48.6475   50.1270 C.3       4 GLC5        0.0000 
     22 CA          2.5090   50.1180   51.3890 C.3      12 GLL5        0.0000 
     23 CA          3.2210   47.1770   48.8650 C.3       8 GLP5        0.0000 
     24 CA          2.8695   50.6885   57.0370 C.3       4 GLC5        0.0000 
     25 CA          3.0120   48.6560   57.0090 C.3      12 GLL5        0.0000 
     26 CA          2.7270   52.7210   57.0650 C.3       8 GLP5        0.0000 
     27 CA          4.5270   49.9540   57.6510 C.3       4 GLC5        0.0000 
     28 CA          6.0420   51.2520   58.2930 C.3       8 GLP5        0.0000 
     29 CA          2.3730   44.4155   56.3360 C.3       4 GLC5        0.0000 
     30 CA          3.0420   46.1870   56.6390 C.3      12 GLL5        0.0000 
     31 CA          1.7040   42.6440   56.0330 C.3       8 GLP5        0.0000 
     32 CA          1.1630   47.0425   57.5075 C.3       4 GLC5        0.0000 
     33 CA         -0.7160   47.8980   58.3760 C.3       8 GLP5        0.0000 
     34 N           5.0115   46.7315   51.6775 N.am      2 SEC2        0.0000 
     35 N           4.8460   48.0310   52.3310 N.am     10 SEL2        0.0000 
     36 N           5.1770   45.4320   51.0240 N.am      6 SEP2        0.0000 
     37 CA          8.2865   46.1855   55.7270 C.3       4 GLC5        0.0000 
     38 CA          9.9770   47.1930   56.4310 C.3      12 GLL5        0.0000 
     39 CA          6.5960   45.1780   55.0230 C.3       8 GLP5        0.0000 
     40 CA          9.1710   46.0025   57.6590 C.3       4 GLC5        0.0000 
     41 CA          8.3650   44.8120   58.8870 C.3       8 GLP5        0.0000 
     42 CA          8.5340   45.0535   55.5820 C.3       4 GLC5        0.0000 
     43 CA         10.4720   44.9290   56.1410 C.3      12 GLL5        0.0000 
     44 CA          9.4185   44.8705   57.5140 C.3       4 GLC5        0.0000 
     45 CA          9.4630   48.8457   50.9305 C.3       4 GLC5        0.0000 
     46 CA          9.5590   47.7570   49.3180 C.3       8 GLP5        0.0000 
     47 CA          4.8413   46.0255   55.6713 C.3       4 GLC5        0.0000 
     48 CA          3.1310   47.5590   56.0000 C.3      12 GLL5        0.0000 
     49 CA          1.0427   48.1908   56.7862 C.3       4 GLC5        0.0000 
     50 CA         -0.9860   48.2740   57.0680 C.3       8 GLP5        0.0000 
     51 CA          4.8274   46.8336   57.5614 C.3       4 GLC5        0.0000 
     52 CA          6.5980   46.5200   58.5510 C.3       8 GLP5        0.0000 
@<TRIPOS>BOND
@<TRIPOS>SUBSTRUCTURE
     1 ALC1        7 GROUP        1 X    ALC  0     ROOT ALC X 1
     2 SEC2        1 GROUP        1 X    SEC  0     **** SEC X 2
     3 ZIC7       10 GROUP        1 X    ZIC  0     **** ZIC X 5
     4 GLC5        4 GROUP        1 X    GLC  0     **** GLC X 6
     5 ALP1        9 GROUP        1 Y    ALP  0     ROOT ALP Y 8
     6 SEP2        3 GROUP        1 Y    SEP  0     **** SEP Y 9
     7 ZIP7       12 GROUP        1 Y    ZIP  0     **** ZIP Y 12
     8 GLP5        6 GROUP        1 Y    GLP  0     **** GLP Y 13
     9 ALL1        8 GROUP        1 Z    ALL  0     ROOT ALL Z 15
    10 SEL2        2 GROUP        1 Z    SEL  0     **** SEL Z 16
    11 ZIL7       11 GROUP        1 Z    ZIL  0     **** ZIL Z 19
    12 GLL5        5 GROUP        1 Z    GLL  0     **** GLL Z 20
@<TRIPOS>SET

