#    Name: 1biw_S80_1_ligand
#    Modification time : Mon Mar 24 19:35:56 2014

@<TRIPOS>MOLECULE
1biw_S80_1_ligand
   66    66     1     0     0
SMALL
NO_CHARGES


@<TRIPOS>ATOM
      1 C10         7.7280   48.8860   54.7260 C.2       1 S80401      0.0000 
      2 O4          7.1300   48.7430   55.7910 O.2       1 S80401      0.0000 
      3 N3          9.0640   48.6640   54.5960 N.am      1 S80401      0.0000 
      4 C9          9.7910   48.5950   53.3280 C.3       1 S80401      0.0000 
      5 C8         10.0530   49.9670   52.7000 C.3       1 S80401      0.0000 
      6 C7          8.8120   50.5880   52.0720 C.3       1 S80401      0.0000 
      7 C6          7.6010   50.7340   52.9270 C.3       1 S80401      0.0000 
      8 C5          6.9830   49.5680   53.6070 C.3       1 S80401      0.0000 
      9 N2          5.5340   49.6070   53.8140 N.am      1 S80401      0.0000 
     10 C4          4.6060   48.8100   53.2170 C.2       1 S80401      0.0000 
     11 C3          3.2000   48.7670   53.6500 C.3       1 S80401      0.0000 
     12 C2          2.2080   49.3600   52.6880 C.3       1 S80401      0.0000 
     13 C1          0.8270   49.4610   53.2340 C.2       1 S80401      0.0000 
     14 O1          0.6530   50.2790   54.1110 O.2       1 S80401      0.0000 
     15 N1         -0.2040   48.7210   52.8070 N.am      1 S80401      0.0000 
     16 O2         -1.4000   48.9070   53.4850 O.3       1 S80401      0.0000 
     17 C11         2.5090   50.1180   51.3890 C.3       1 S80401      0.0000 
     18 C12         2.7640   51.5950   51.7610 C.3       1 S80401      0.0000 
     19 C13         2.7820   52.5070   50.5140 C.3       1 S80401      0.0000 
     20 O5          1.4680   52.5610   49.9590 O.3       1 S80401      0.0000 
     21 C14         2.7900   47.7390   54.6160 C.3       1 S80401      0.0000 
     22 C15         3.1310   47.5590   56.0000 C.3       1 S80401      0.0000 
     23 C17         3.0120   48.6560   57.0090 C.3       1 S80401      0.0000 
     24 C16         3.0420   46.1870   56.6390 C.3       1 S80401      0.0000 
     25 O3          4.8460   48.0310   52.3310 O.2       1 S80401      0.0000 
     26 C18         9.9330   48.5750   55.7860 C.3       1 S80401      0.0000 
     27 C19         9.9770   47.1930   56.4310 C.3       1 S80401      0.0000 
     28 O6         10.5110   46.2280   55.5420 O.3       1 S80401      0.0000 
     29 C20        10.4720   44.9290   56.1410 C.3       1 S80401      0.0000 
     30 H           9.2312   47.9863   52.5918 H         1 S80401      0.0000 
     31 H          10.7682   48.0935   53.4672 H         1 S80401      0.0000 
     32 H          10.8326   49.8628   51.9319 H         1 S80401      0.0000 
     33 H          10.4426   50.6433   53.4742 H         1 S80401      0.0000 
     34 H           8.5495   49.9873   51.1587 H         1 S80401      0.0000 
     35 H           9.0990   51.5949   51.6625 H         1 S80401      0.0000 
     36 H           6.7908   51.2549   52.3054 H         1 S80401      0.0000 
     37 H           7.8224   51.5326   53.7191 H         1 S80401      0.0000 
     38 H           7.0646   48.6986   52.7287 H         1 S80401      0.0000 
     39 H           5.2105   50.3504   54.5123 H         1 S80401      0.0000 
     40 H           3.2521   49.7806   54.4668 H         1 S80401      0.0000 
     41 H           1.9446   48.1714   52.0631 H         1 S80401      0.0000 
     42 H          -0.1398   48.0644   52.0442 H         1 S80401      0.0000 
     43 H           1.6628   50.0598   50.7327 H         1 S80401      0.0000 
     44 H           3.3891   49.7121   50.9298 H         1 S80401      0.0000 
     45 H           3.7234   51.6725   52.2713 H         1 S80401      0.0000 
     46 H           1.9783   51.9323   52.4361 H         1 S80401      0.0000 
     47 H           3.5075   52.0886   49.8140 H         1 S80401      0.0000 
     48 H           3.1346   53.4894   50.8332 H         1 S80401      0.0000 
     49 H           2.9814   46.6874   54.0715 H         1 S80401      0.0000 
     50 H           1.5939   47.6838   54.5429 H         1 S80401      0.0000 
     51 H           4.4307   47.5791   55.9071 H         1 S80401      0.0000 
     52 H           9.6007   49.3035   56.5549 H         1 S80401      0.0000 
     53 H          10.9714   48.8647   55.5211 H         1 S80401      0.0000 
     54 H           8.9484   46.9398   56.7423 H         1 S80401      0.0000 
     55 H          10.5768   47.2772   57.3542 H         1 S80401      0.0000 
     56 H           3.2911   48.3540   57.9206 H         1 S80401      0.0000 
     57 H           3.5838   49.4416   56.7726 H         1 S80401      0.0000 
     58 H           2.0725   48.9898   57.0857 H         1 S80401      0.0000 
     59 H           3.6383   45.5259   56.1837 H         1 S80401      0.0000 
     60 H           3.3093   46.2079   57.6024 H         1 S80401      0.0000 
     61 H           2.1130   45.8189   56.6005 H         1 S80401      0.0000 
     62 H          10.8403   44.2275   55.5309 H         1 S80401      0.0000 
     63 H          11.0066   44.8932   56.9854 H         1 S80401      0.0000 
     64 H           9.5387   44.6549   56.3731 H         1 S80401      0.0000 
     65 H          -1.9556   48.1086   53.2532 H         1 S80401      0.0000 
     66 H           2.3080   53.1017   49.9112 H         1 S80401      0.0000 
@<TRIPOS>BOND
     1    2    1 2    
     2    3    1 am   
     3    8    1 1    
     4    4    3 1    
     5   26    3 1    
     6    5    4 1    
     7   30    4 1    
     8   31    4 1    
     9    6    5 1    
    10   32    5 1    
    11   33    5 1    
    12    7    6 1    
    13   34    6 1    
    14   35    6 1    
    15    8    7 1    
    16   36    7 1    
    17   37    7 1    
    18    9    8 1    
    19   38    8 1    
    20   10    9 am   
    21   39    9 1    
    22   11   10 1    
    23   25   10 2    
    24   12   11 1    
    25   21   11 1    
    26   40   11 1    
    27   13   12 1    
    28   17   12 1    
    29   41   12 1    
    30   14   13 2    
    31   15   13 am   
    32   16   15 1    
    33   42   15 1    
    34   65   16 1    
    35   18   17 1    
    36   43   17 1    
    37   44   17 1    
    38   19   18 1    
    39   45   18 1    
    40   46   18 1    
    41   20   19 1    
    42   47   19 1    
    43   48   19 1    
    44   66   20 1    
    45   22   21 1    
    46   49   21 1    
    47   50   21 1    
    48   23   22 1    
    49   24   22 1    
    50   51   22 1    
    51   56   23 1    
    52   57   23 1    
    53   58   23 1    
    54   59   24 1    
    55   60   24 1    
    56   61   24 1    
    57   27   26 1    
    58   52   26 1    
    59   53   26 1    
    60   28   27 1    
    61   54   27 1    
    62   55   27 1    
    63   29   28 1    
    64   62   29 1    
    65   63   29 1    
    66   64   29 1    
@<TRIPOS>SUBSTRUCTURE
     1 S80401      1 GROUP   
@<TRIPOS>SET

