#    Name: 3vqu_O22_1_INTS_M
#    Modification time : Tue Mar 25 01:18:24 2014

@<TRIPOS>MOLECULE
3vqu_O22_1_INTS_M
   51     0     6     0     0
SMALL
NO_CHARGES


@<TRIPOS>ATOM
      1 O          -2.7480  -39.4055   -8.9540 O.2       1 ALC1        0.0000 
      2 O          -2.3640  -39.0410   -7.3740 O.2       5 ALL1        0.0000 
      3 O          -3.1320  -39.7700  -10.5340 O.2       3 ALP1        0.0000 
      4 CA          1.1890  -36.8995   -7.8950 C.3       2 GLC5        0.0000 
      5 CA         -0.7560  -36.9960   -8.8760 C.3       6 GLL5        0.0000 
      6 CA          3.1340  -36.8030   -6.9140 C.3       4 GLP5        0.0000 
      7 CA         -2.1265  -37.5235  -10.5125 C.3       2 GLC5        0.0000 
      8 CA         -3.4970  -38.0510  -12.1490 C.3       4 GLP5        0.0000 
      9 O          -0.9970  -32.4030   -9.0970 O.2       1 ALC1        0.0000 
     10 O          -0.4130  -33.5410   -9.7850 O.2       5 ALL1        0.0000 
     11 O          -1.5810  -31.2650   -8.4090 O.2       3 ALP1        0.0000 
     12 CA          1.6390  -33.8890   -9.2040 C.3       2 GLC5        0.0000 
     13 CA          0.4390  -33.4370  -10.8000 C.3       6 GLL5        0.0000 
     14 CA          2.8390  -34.3410   -7.6080 C.3       4 GLP5        0.0000 
     15 CA         -1.3890  -33.4880  -10.8745 C.3       2 GLC5        0.0000 
     16 CA         -3.2170  -33.5390  -10.9490 C.3       4 GLP5        0.0000 
     17 CA          0.2150  -30.7200   -9.8365 C.3       2 GLC5        0.0000 
     18 CA          0.6960  -32.1820  -11.2600 C.3       6 GLL5        0.0000 
     19 CA         -0.2660  -29.2580   -8.4130 C.3       4 GLP5        0.0000 
     20 CA         -1.1625  -31.6710  -11.4625 C.3       2 GLC5        0.0000 
     21 CA         -3.0210  -31.1600  -11.6650 C.3       4 GLP5        0.0000 
     22 O           1.0935  -29.6880  -11.8865 O.2       1 ALC1        0.0000 
     23 O           1.7640  -30.7120  -12.7040 O.2       5 ALL1        0.0000 
     24 O           0.4230  -28.6640  -11.0690 O.2       3 ALP1        0.0000 
     25 CA          3.7230  -31.0665  -14.2990 C.3       2 GLC5        0.0000 
     26 CA          3.0150  -32.9010  -13.8840 C.3       6 GLL5        0.0000 
     27 CA          4.4310  -29.2320  -14.7140 C.3       4 GLP5        0.0000 
     28 CA          0.8070  -38.6530  -12.4035 C.3       2 GLC5        0.0000 
     29 CA          1.8120  -36.6820  -12.2150 C.3       6 GLL5        0.0000 
     30 CA         -0.1980  -40.6240  -12.5920 C.3       4 GLP5        0.0000 
     31 CA          4.0615  -38.5100  -11.5525 C.3       2 GLC5        0.0000 
     32 CA          2.5950  -37.8280  -12.7560 C.3       6 GLL5        0.0000 
     33 CA          5.5280  -39.1920  -10.3490 C.3       4 GLP5        0.0000 
     34 CA          4.4040  -36.6525  -12.5575 C.3       2 GLC5        0.0000 
     35 CA          6.2130  -35.4770  -12.3590 C.3       4 GLP5        0.0000 
     36 CA          2.1420  -39.4620  -11.9680 C.3       2 GLC5        0.0000 
     37 CA          1.6890  -41.0960  -11.1800 C.3       4 GLP5        0.0000 
     38 CA          0.9542  -34.6161   -8.1137 C.3       2 GLC5        0.0000 
     39 CA         -0.7020  -34.6440   -9.1050 C.3       6 GLL5        0.0000 
     40 CA         -3.2277  -35.6181   -7.8607 C.3       2 GLC5        0.0000 
     41 CA         -1.2870  -34.5200   -7.8830 C.3       6 GLL5        0.0000 
     42 CA         -5.0760  -35.8530   -8.0790 C.3       4 GLP5        0.0000 
     43 CA         -2.0737  -34.2151   -9.7843 C.3       2 GLC5        0.0000 
     44 CA          2.1109  -31.2729  -10.5745 C.3       2 GLC5        0.0000 
     45 CA          1.5480  -31.9500  -12.2880 C.3       6 GLL5        0.0000 
     46 CA          3.1640  -30.1660   -9.4900 C.3       4 GLP5        0.0000 
     47 CA          1.6598  -33.1920  -14.9992 C.3       2 GLC5        0.0000 
     48 CA          2.2040  -33.0810  -12.9090 C.3       6 GLL5        0.0000 
     49 CA          0.7100  -33.3930  -16.6020 C.3       4 GLP5        0.0000 
     50 CA          3.7201  -33.8515  -11.7431 C.3       2 GLC5        0.0000 
     51 CA          5.2120  -34.0100  -10.6150 C.3       4 GLP5        0.0000 
@<TRIPOS>BOND
@<TRIPOS>SUBSTRUCTURE
     1 ALC1        1 GROUP        1 X    ALC  0     ROOT ALC X 1
     2 GLC5        4 GROUP        1 X    GLC  0     **** GLC X 6
     3 ALP1        3 GROUP        1 Y    ALP  0     ROOT ALP Y 8
     4 GLP5        6 GROUP        1 Y    GLP  0     **** GLP Y 13
     5 ALL1        2 GROUP        1 Z    ALL  0     ROOT ALL Z 15
     6 GLL5        5 GROUP        1 Z    GLL  0     **** GLL Z 20
@<TRIPOS>SET

