#    Name: 3vqu_O22_1_ligand
#    Modification time : Tue Mar 25 01:18:24 2014

@<TRIPOS>MOLECULE
3vqu_O22_1_ligand
   38    39     1     0     0
SMALL
NO_CHARGES


@<TRIPOS>ATOM
      1 O2         -1.2880  -38.1520   -5.7270 O.2       1 O22909      0.0000 
      2 C15        -1.6740  -38.0710   -6.8550 C.2       1 O22909      0.0000 
      3 N4         -2.3640  -39.0410   -7.3740 N.am      1 O22909      0.0000 
      4 C12        -1.3440  -36.8670   -7.6530 C.ar      1 O22909      0.0000 
      5 C11        -0.7560  -36.9960   -8.8760 C.ar      1 O22909      0.0000 
      6 C10        -0.4460  -35.8810   -9.6070 C.ar      1 O22909      0.0000 
      7 C13        -1.6000  -35.6260   -7.1510 C.ar      1 O22909      0.0000 
      8 C14        -1.2870  -34.5200   -7.8830 C.ar      1 O22909      0.0000 
      9 C9         -0.7020  -34.6440   -9.1050 C.ar      1 O22909      0.0000 
     10 N3         -0.4130  -33.5410   -9.7850 N.pl3     1 O22909      0.0000 
     11 C8          0.4390  -33.4370  -10.8000 C.ar      1 O22909      0.0000 
     12 C7          0.6960  -32.1820  -11.2600 C.ar      1 O22909      0.0000 
     13 C6          1.5480  -31.9500  -12.2880 C.ar      1 O22909      0.0000 
     14 N2          1.7640  -30.7120  -12.7040 N.pl3     1 O22909      0.0000 
     15 C4          2.2040  -33.0810  -12.9090 C.ar      1 O22909      0.0000 
     16 C5          3.0150  -32.9010  -13.8840 C.1       1 O22909      0.0000 
     17 N1          3.7450  -32.7320  -14.7500 N.1       1 O22909      0.0000 
     18 N5          0.9960  -34.5000  -11.3400 N.pl3     1 O22909      0.0000 
     19 C3          1.8470  -34.3950  -12.3460 C.ar      1 O22909      0.0000 
     20 O1          2.3540  -35.5430  -12.7960 O.3       1 O22909      0.0000 
     21 C2          1.8120  -36.6820  -12.2150 C.3       1 O22909      0.0000 
     22 C1          2.5950  -37.8280  -12.7560 C.3       1 O22909      0.0000 
     23 H          -2.6230  -38.9323   -8.3337 H         1 O22909      0.0000 
     24 H          -2.5726  -39.8070   -6.7660 H         1 O22909      0.0000 
     25 H          -0.5427  -37.9369   -9.2545 H         1 O22909      0.0000 
     26 H          -0.0150  -35.9847  -10.5453 H         1 O22909      0.0000 
     27 H          -2.0319  -35.5237   -6.2142 H         1 O22909      0.0000 
     28 H          -1.4975  -33.5735   -7.5034 H         1 O22909      0.0000 
     29 H          -0.9273  -32.6254   -9.4799 H         1 O22909      0.0000 
     30 H           0.2149  -31.3648  -10.7995 H         1 O22909      0.0000 
     31 H           2.3660  -30.6128  -13.4963 H         1 O22909      0.0000 
     32 H           1.3056  -29.9882  -12.1883 H         1 O22909      0.0000 
     33 H           0.7587  -35.4628  -10.9617 H         1 O22909      0.0000 
     34 H           0.7642  -36.8268  -12.4768 H         1 O22909      0.0000 
     35 H           1.9060  -36.6828  -11.1294 H         1 O22909      0.0000 
     36 H           3.5660  -37.7548  -12.5283 H         1 O22909      0.0000 
     37 H           2.2737  -38.7022  -12.3919 H         1 O22909      0.0000 
     38 H           2.5310  -37.8841  -13.7524 H         1 O22909      0.0000 
@<TRIPOS>BOND
     1    2    1 2    
     2    3    2 am   
     3    4    2 1    
     4   23    3 1    
     5   24    3 1    
     6    5    4 ar   
     7    7    4 ar   
     8    6    5 ar   
     9   25    5 1    
    10    9    6 ar   
    11   26    6 1    
    12    8    7 ar   
    13   27    7 1    
    14    9    8 ar   
    15   28    8 1    
    16   10    9 1    
    17   11   10 1    
    18   29   10 1    
    19   12   11 ar   
    20   18   11 ar   
    21   13   12 ar   
    22   30   12 1    
    23   14   13 1    
    24   15   13 ar   
    25   31   14 1    
    26   32   14 1    
    27   16   15 1    
    28   19   15 ar   
    29   17   16 3    
    30   19   18 ar   
    31   33   18 1    
    32   20   19 1    
    33   21   20 1    
    34   22   21 1    
    35   34   21 1    
    36   35   21 1    
    37   36   22 1    
    38   37   22 1    
    39   38   22 1    
@<TRIPOS>SUBSTRUCTURE
     1 O22909      1 GROUP   
@<TRIPOS>SET

