#    Name: 4ASR_1_CAVITY_N1_6.mol2
#    Modification time : Tue Mar 11 18:04:56 2014

@<TRIPOS>MOLECULE
4ASR_1_CAVITY_N1_6.mol2
  134     0     7     0     0
SMALL
NO_CHARGES


@<TRIPOS>ATOM
      1 NZ         24.0717   -5.7284   37.2247 N.2       4 LYS4        0.0000 
      2 CA         26.5073   -4.8433   37.4097 C.3       6 GLY6        0.0000 
      3 O          25.3956   -4.5257   38.3653 O.2       2 ALA2        0.0000 
      4 NZ         27.2195   -6.6066   36.4697 N.2       4 LYS4        0.0000 
      5 O          26.1077   -6.2890   37.4253 O.2       2 ALA2        0.0000 
      6 O          24.9960   -5.9714   38.3808 O.2       2 ALA2        0.0000 
      7 O          25.7081   -7.7347   37.4408 O.2       2 ALA2        0.0000 
      8 O          28.5434   -5.4039   37.6102 O.2       2 ALA2        0.0000 
      9 O          27.4316   -5.0863   38.5658 O.2       2 ALA2        0.0000 
     10 O          26.3198   -4.7687   39.5214 O.2       2 ALA2        0.0000 
     11 NZ         28.1438   -6.8496   37.6258 N.2       4 LYS4        0.0000 
     12 DU         27.0320   -6.5320   38.5814 H         7 CUB7        0.0000 
     13 CA         25.9202   -6.2144   39.5370 C.3       6 GLY6        0.0000 
     14 NZ         27.7442   -8.2953   37.6414 N.2       4 LYS4        0.0000 
     15 O          26.6324   -7.9777   38.5970 O.2       2 ALA2        0.0000 
     16 O          25.5207   -7.6601   39.5525 O.2       2 ALA2        0.0000 
     17 N          26.5320   -3.2484   41.6175 N.2       2 ALA2        0.0000 
     18 NZ         30.5794   -5.9645   37.8108 N.2       4 LYS4        0.0000 
     19 O          29.4677   -5.6469   38.7664 O.2       2 ALA2        0.0000 
     20 O          28.3559   -5.3293   39.7219 O.2       2 ALA2        0.0000 
     21 N          27.2441   -5.0117   40.6775 N.2       2 ALA2        0.0000 
     22 CA         26.1324   -4.6941   41.6331 C.3       6 GLY6        0.0000 
     23 NZ         30.1798   -7.4102   37.8264 N.2       4 LYS4        0.0000 
     24 DU         29.0681   -7.0926   38.7820 H         7 CUB7        0.0000 
     25 DU         27.9563   -6.7750   39.7375 H         7 CUB7        0.0000 
     26 CA         26.8445   -6.4574   40.6931 C.3       6 GLY6        0.0000 
     27 NZ         29.7802   -8.8559   37.8420 N.2       4 LYS4        0.0000 
     28 NZ         28.6685   -8.5383   38.7975 N.2       4 LYS4        0.0000 
     29 OG         27.5567   -8.2207   39.7531 O.2       1 SER1        0.0000 
     30 NZ         27.1571   -9.6664   39.7687 N.2       4 LYS4        0.0000 
     31 N          26.7441   -1.7281   43.7136 N.2       2 ALA2        0.0000 
     32 N          27.4562   -3.4914   42.7736 N.2       2 ALA2        0.0000 
     33 NZ         26.3445   -3.1738   43.7292 N.2       4 LYS4        0.0000 
     34 CZ         31.5037   -6.2075   38.9669 C.ar      5 PHE5        0.0000 
     35 O          30.3919   -5.8899   39.9225 O.2       2 ALA2        0.0000 
     36 N          29.2802   -5.5723   40.8781 N.2       2 ALA2        0.0000 
     37 N          28.1684   -5.2547   41.8336 N.2       2 ALA2        0.0000 
     38 CA         27.0566   -4.9371   42.7892 C.3       6 GLY6        0.0000 
     39 NZ         25.9449   -4.6196   43.7448 N.2       4 LYS4        0.0000 
     40 CZ         32.2159   -7.9708   38.0269 C.ar      5 PHE5        0.0000 
     41 DU         31.1041   -7.6532   38.9825 H         7 CUB7        0.0000 
     42 DU         29.9924   -7.3356   39.9381 H         7 CUB7        0.0000 
     43 DU         28.8806   -7.0180   40.8937 H         7 CUB7        0.0000 
     44 OG         27.7688   -6.7004   41.8492 O.2       1 SER1        0.0000 
     45 CA         26.6571   -6.3829   42.8048 C.3       6 GLY6        0.0000 
     46 CA         25.5453   -6.0653   43.7604 C.3       6 GLY6        0.0000 
     47 O          30.7045   -9.0989   38.9981 O.2       2 ALA2        0.0000 
     48 DU         29.5928   -8.7813   39.9537 H         7 CUB7        0.0000 
     49 OG         28.4810   -8.4637   40.9092 O.2       1 SER1        0.0000 
     50 OG         27.3692   -8.1462   41.8648 O.2       1 SER1        0.0000 
     51 NZ         30.3049  -10.5446   39.0137 N.2       4 LYS4        0.0000 
     52 NZ         29.1932  -10.2270   39.9692 N.2       4 LYS4        0.0000 
     53 NZ         28.0814   -9.9095   40.9248 N.2       4 LYS4        0.0000 
     54 OG         28.7801   -2.2887   43.9142 O.2       1 SER1        0.0000 
     55 OD1        27.6683   -1.9711   44.8698 O.3       3 ASP3        0.0000 
     56 OD1        31.7158   -4.6872   41.0631 O.3       3 ASP3        0.0000 
     57 N          30.6041   -4.3696   42.0186 N.2       2 ALA2        0.0000 
     58 N          29.4923   -4.0520   42.9742 N.2       2 ALA2        0.0000 
     59 N          28.3805   -3.7344   43.9298 N.2       2 ALA2        0.0000 
     60 N          27.2688   -3.4169   44.8853 N.2       2 ALA2        0.0000 
     61 O          32.4280   -6.4505   40.1231 O.2       2 ALA2        0.0000 
     62 O          31.3162   -6.1329   41.0786 O.2       2 ALA2        0.0000 
     63 DU         30.2045   -5.8153   42.0342 H         7 CUB7        0.0000 
     64 DU         29.0927   -5.4977   42.9898 H         7 CUB7        0.0000 
     65 DU         27.9809   -5.1802   43.9454 H         7 CUB7        0.0000 
     66 CA         26.8692   -4.8626   44.9009 C.3       6 GLY6        0.0000 
     67 O          32.0284   -7.8962   40.1386 O.2       2 ALA2        0.0000 
     68 O          30.9166   -7.5786   41.0942 O.2       2 ALA2        0.0000 
     69 DU         29.8049   -7.2610   42.0498 H         7 CUB7        0.0000 
     70 DU         28.6931   -6.9435   43.0054 H         7 CUB7        0.0000 
     71 DU         27.5813   -6.6259   43.9609 H         7 CUB7        0.0000 
     72 CA         26.4696   -6.3083   44.9165 C.3       6 GLY6        0.0000 
     73 O          31.6288   -9.3419   40.1542 O.2       2 ALA2        0.0000 
     74 N          30.5170   -9.0243   41.1098 N.2       2 ALA2        0.0000 
     75 DU         29.4053   -8.7068   42.0654 H         7 CUB7        0.0000 
     76 OG         28.2935   -8.3892   43.0209 O.2       1 SER1        0.0000 
     77 OG         27.1817   -8.0716   43.9765 O.2       1 SER1        0.0000 
     78 CA         26.0700   -7.7540   44.9321 C.3       6 GLY6        0.0000 
     79 N          31.2292  -10.7876   40.1698 N.2       2 ALA2        0.0000 
     80 NZ         30.1175  -10.4701   41.1254 N.2       4 LYS4        0.0000 
     81 NZ         29.0057  -10.1525   42.0810 N.2       4 LYS4        0.0000 
     82 OG         27.8939   -9.8349   43.0365 O.2       1 SER1        0.0000 
     83 OG         26.7822   -9.5173   43.9921 O.2       1 SER1        0.0000 
     84 NZ         27.4943  -11.2806   43.0521 N.2       4 LYS4        0.0000 
     85 OD1        32.6401   -4.9302   42.2192 O.3       3 ASP3        0.0000 
     86 N          31.5283   -4.6126   43.1748 N.2       2 ALA2        0.0000 
     87 CZ         30.4166   -4.2950   44.1303 C.ar      5 PHE5        0.0000 
     88 CZ         29.3048   -3.9775   45.0859 C.ar      5 PHE5        0.0000 
     89 O          31.1287   -6.0583   43.1903 O.2       2 ALA2        0.0000 
     90 DU         30.0170   -5.7408   44.1459 H         7 CUB7        0.0000 
     91 N          28.9052   -5.4232   45.1015 N.2       2 ALA2        0.0000 
     92 O          30.7292   -7.5041   43.2059 O.2       2 ALA2        0.0000 
     93 DU         29.6174   -7.1865   44.1615 H         7 CUB7        0.0000 
     94 O          28.5056   -6.8689   45.1171 O.2       2 ALA2        0.0000 
     95 O          27.3939   -6.5513   46.0726 O.2       2 ALA2        0.0000 
     96 N          30.3296   -8.9498   43.2215 N.2       2 ALA2        0.0000 
     97 DU         29.2178   -8.6322   44.1771 H         7 CUB7        0.0000 
     98 DU         28.1060   -8.3146   45.1326 H         7 CUB7        0.0000 
     99 O          26.9943   -7.9970   46.0882 O.2       2 ALA2        0.0000 
    100 N          29.9300  -10.3955   43.2371 N.2       2 ALA2        0.0000 
    101 DU         28.8182  -10.0779   44.1927 H         7 CUB7        0.0000 
    102 DU         27.7064   -9.7603   45.1482 H         7 CUB7        0.0000 
    103 NZ         26.5947   -9.4427   46.1038 N.2       4 LYS4        0.0000 
    104 N          30.6421  -12.1588   42.2971 N.2       2 ALA2        0.0000 
    105 NZ         29.5304  -11.8412   43.2527 N.2       4 LYS4        0.0000 
    106 NZ         28.4186  -11.5236   44.2082 N.2       4 LYS4        0.0000 
    107 CA         27.3068  -11.2060   45.1638 C.3       6 GLY6        0.0000 
    108 CA         26.1951  -10.8884   46.1194 C.3       6 GLY6        0.0000 
    109 OG         32.4526   -4.8556   44.3309 O.2       1 SER1        0.0000 
    110 CZ         31.3409   -4.5381   45.2865 C.ar      5 PHE5        0.0000 
    111 O          32.0530   -6.3014   44.3465 O.2       2 ALA2        0.0000 
    112 CZ         30.9413   -5.9838   45.3020 C.ar      5 PHE5        0.0000 
    113 CZ         29.8295   -5.6662   46.2576 C.ar      5 PHE5        0.0000 
    114 N          31.6534   -7.7471   44.3621 N.2       2 ALA2        0.0000 
    115 DU         30.5417   -7.4295   45.3176 H         7 CUB7        0.0000 
    116 O          29.4299   -7.1119   46.2732 O.2       2 ALA2        0.0000 
    117 O          30.1421   -8.8752   45.3332 O.2       2 ALA2        0.0000 
    118 NZ         29.0303   -8.5576   46.2888 N.2       4 LYS4        0.0000 
    119 O          29.7425  -10.3209   45.3488 O.2       2 ALA2        0.0000 
    120 NZ         28.6307  -10.0033   46.3044 N.2       4 LYS4        0.0000 
    121 NZ         27.5190   -9.6857   47.2599 N.2       4 LYS4        0.0000 
    122 O          29.3429  -11.7666   45.3644 O.2       2 ALA2        0.0000 
    123 DU         28.2311  -11.4490   46.3199 H         7 CUB7        0.0000 
    124 NZ         27.1194  -11.1314   47.2755 N.2       4 LYS4        0.0000 
    125 CZ         32.9773   -6.5444   45.5026 C.ar      5 PHE5        0.0000 
    126 CZ         31.8656   -6.2268   46.4582 C.ar      5 PHE5        0.0000 
    127 CZ         32.5777   -7.9901   45.5182 C.ar      5 PHE5        0.0000 
    128 CZ         31.4660   -7.6725   46.4738 C.ar      5 PHE5        0.0000 
    129 CZ         30.3542   -7.3549   47.4293 C.ar      5 PHE5        0.0000 
    130 CZ         31.0664   -9.1182   46.4893 C.ar      5 PHE5        0.0000 
    131 O          30.6668  -10.5639   46.5049 O.2       2 ALA2        0.0000 
    132 NZ         29.5550  -10.2463   47.4605 N.2       4 LYS4        0.0000 
    133 O          30.2672  -12.0096   46.5205 O.2       2 ALA2        0.0000 
    134 OD1        29.1554  -11.6920   47.4761 O.3       3 ASP3        0.0000 
@<TRIPOS>BOND
@<TRIPOS>SUBSTRUCTURE
     1 SER1       29 GROUP   
     2 ALA2        3 GROUP   
     3 ASP3       55 GROUP   
     4 LYS4        1 GROUP   
     5 PHE5       34 GROUP   
     6 GLY6        2 GROUP   
     7 CUB7       12 GROUP   
@<TRIPOS>SET

