#    Name: 4asr_ARG_PRO_PRO_GLY_1_INTS_M
#    Modification time : Tue Mar 25 06:08:03 2014

@<TRIPOS>MOLECULE
4asr_ARG_PRO_PRO_GLY_1_INTS_M
   55     0    12     0     0
SMALL
NO_CHARGES


@<TRIPOS>ATOM
      1 Zn         26.3920   -1.4670   46.8770 Zn        3 ZIC7        0.0000 
      2 Zn         26.2860   -0.7380   46.1310 Zn       11 ZIL7        0.0000 
      3 Zn         26.4980   -2.1960   47.6230 Zn        7 ZIP7        0.0000 
      4 Zn         27.3630   -2.4260   46.7170 Zn        3 ZIC7        0.0000 
      5 Zn         28.2280   -2.6560   45.8110 Zn       11 ZIL7        0.0000 
      6 CA         27.8785   -0.6415   42.1980 C.3       4 GLC5        0.0000 
      7 CA         27.5360   -0.0980   44.0790 C.3      12 GLL5        0.0000 
      8 CA         28.2210   -1.1850   40.3170 C.3       8 GLP5        0.0000 
      9 CA         25.0165    1.7305   43.0250 C.3       4 GLC5        0.0000 
     10 CA         26.8530    1.2570   43.9980 C.3      12 GLL5        0.0000 
     11 CA         23.1800    2.2040   42.0520 C.3       8 GLP5        0.0000 
     12 CA         28.8570    2.1760   41.7165 C.3       4 GLC5        0.0000 
     13 CA         27.7590    2.3370   43.4390 C.3      12 GLL5        0.0000 
     14 CA         29.9550    2.0150   39.9940 C.3       8 GLP5        0.0000 
     15 CA         29.5975    3.4690   43.4665 C.3       4 GLC5        0.0000 
     16 CA         31.4360    4.6010   43.4940 C.3       8 GLP5        0.0000 
     17 O          28.2800    4.3145   40.7935 O.2       1 ALC1        0.0000 
     18 O          28.1340    4.8770   42.1860 O.2       9 ALL1        0.0000 
     19 O          28.4260    3.7520   39.4010 O.2       5 ALP1        0.0000 
     20 CA         26.5495   -4.7635   45.5235 C.3       4 GLC5        0.0000 
     21 CA         27.9470   -4.6780   44.0380 C.3      12 GLL5        0.0000 
     22 CA         25.1520   -4.8490   47.0090 C.3       8 GLP5        0.0000 
     23 N          29.4630   -2.7505   42.0685 N.am      2 SEC2        0.0000 
     24 N          29.8260   -3.4380   43.2340 N.am     10 SEL2        0.0000 
     25 N          29.1000   -2.0630   40.9030 N.am      6 SEP2        0.0000 
     26 CA         31.3280   -4.0810   45.9020 C.3       4 GLC5        0.0000 
     27 CA         31.7300   -5.0860   44.3640 C.3      12 GLL5        0.0000 
     28 CA         30.9260   -3.0760   47.4400 C.3       8 GLP5        0.0000 
     29 N          33.6010   -6.2050   42.1730 N.am      2 SEC2        0.0000 
     30 N          33.2280   -4.7510   42.5190 N.am     10 SEL2        0.0000 
     31 N          33.9740   -7.6590   41.8270 N.am      6 SEP2        0.0000 
     32 N          33.8440   -4.5340   41.3295 N.am      2 SEC2        0.0000 
     33 N          34.4600   -4.3170   40.1400 N.am      6 SEP2        0.0000 
     34 N          34.2275   -4.6990   43.3085 N.am      2 SEC2        0.0000 
     35 N          35.2270   -4.6470   44.0980 N.am      6 SEP2        0.0000 
     36 CA         31.8365   -8.5180   46.9445 C.3       4 GLC5        0.0000 
     37 CA         31.1810   -7.2030   45.3720 C.3      12 GLL5        0.0000 
     38 CA         32.4920   -9.8330   48.5170 C.3       8 GLP5        0.0000 
     39 CA         30.4425   -4.7140   46.4400 C.3       4 GLC5        0.0000 
     40 CA         29.9590   -6.3520   45.4400 C.3      12 GLL5        0.0000 
     41 CA         25.4765   -6.0920   42.1867 C.3       4 GLC5        0.0000 
     42 CA         27.4230   -5.5020   42.8520 C.3      12 GLL5        0.0000 
     43 CA         23.8580   -7.1660   41.9740 C.3       8 GLP5        0.0000 
     44 CA         27.3675   -2.5832   41.3485 C.3       4 GLC5        0.0000 
     45 CA         26.7670   -4.5340   41.9470 C.3      12 GLL5        0.0000 
     46 CA         24.9390   -3.6162   41.5085 C.3       4 GLC5        0.0000 
     47 CA         26.2610   -3.4290   42.8130 C.3      12 GLL5        0.0000 
     48 CA         23.3640   -3.2510   40.6370 C.3       8 GLP5        0.0000 
     49 CA         33.8930   -4.6102   44.7442 C.3       4 GLC5        0.0000 
     50 CA         35.7670   -3.5490   44.7240 C.3       8 GLP5        0.0000 
     51 CA         33.5332   -6.7870   46.0122 C.3       4 GLC5        0.0000 
     52 CA         32.3080   -6.2570   45.1650 C.3      12 GLL5        0.0000 
     53 CA         35.3220   -6.8440   46.7560 C.3       8 GLP5        0.0000 
     54 CA         31.8053   -5.2685   46.7133 C.3       4 GLC5        0.0000 
     55 CA         31.8660   -3.8070   48.1580 C.3       8 GLP5        0.0000 
@<TRIPOS>BOND
@<TRIPOS>SUBSTRUCTURE
     1 ALC1       17 GROUP        1 X    ALC  0     ROOT ALC X 1
     2 SEC2       23 GROUP        1 X    SEC  0     **** SEC X 2
     3 ZIC7        1 GROUP        1 X    ZIC  0     **** ZIC X 5
     4 GLC5        6 GROUP        1 X    GLC  0     **** GLC X 6
     5 ALP1       19 GROUP        1 Y    ALP  0     ROOT ALP Y 8
     6 SEP2       25 GROUP        1 Y    SEP  0     **** SEP Y 9
     7 ZIP7        3 GROUP        1 Y    ZIP  0     **** ZIP Y 12
     8 GLP5        8 GROUP        1 Y    GLP  0     **** GLP Y 13
     9 ALL1       18 GROUP        1 Z    ALL  0     ROOT ALL Z 15
    10 SEL2       24 GROUP        1 Z    SEL  0     **** SEL Z 16
    11 ZIL7        2 GROUP        1 Z    ZIL  0     **** ZIL Z 19
    12 GLL5        7 GROUP        1 Z    GLL  0     **** GLL Z 20
@<TRIPOS>SET

