#    Name: 4asr_ARG_PRO_PRO_GLY_1_ligand
#    Modification time : Tue Mar 25 06:08:03 2014

@<TRIPOS>MOLECULE
4asr_ARG_PRO_PRO_GLY_1_ligand
   55    56     4     0     0
SMALL
NO_CHARGES


@<TRIPOS>ATOM
      1 N          26.2860   -0.7380   46.1310 N.3       1 ARG1        0.0000
      2 CA         26.6820   -1.1690   44.7600 C.3       1 ARG1        0.0000
      3 C          27.4440   -2.4830   44.8750 C.2       1 ARG1        0.0000
      4 O          28.2280   -2.6560   45.8110 O.2       1 ARG1        0.0000
      5 CB         27.5360   -0.0980   44.0790 C.3       1 ARG1        0.0000
      6 CG         26.8530    1.2570   43.9980 C.3       1 ARG1        0.0000
      7 CD         27.7590    2.3370   43.4390 C.3       1 ARG1        0.0000
      8 NE         27.4080    3.6400   44.0020 N.pl3     1 ARG1        0.0000
      9 CZ         27.5990    4.8120   43.4010 C.cat     1 ARG1        0.0000
     10 NH1        28.1340    4.8770   42.1860 N.pl3     1 ARG1        0.0000
     11 NH2        27.2380    5.9290   44.0190 N.pl3     1 ARG1        0.0000
     12 HA         25.7968   -1.3390   44.1685 H         1 ARG1        0.0000
     13 HB2        27.7877   -0.4379   43.0630 H         1 ARG1        0.0000
     14 HB3        28.4820    0.0058   44.6317 H         1 ARG1        0.0000
     15 HG2        26.5177    1.5508   45.0025 H         1 ARG1        0.0000
     16 HG3        25.9592    1.1714   43.3642 H         1 ARG1        0.0000
     17 HD2        27.6571    2.3464   42.3479 H         1 ARG1        0.0000
     18 HD3        28.7969    2.0787   43.6780 H         1 ARG1        0.0000
     19 HE         26.9682    3.5927   44.9706 H         1 ARG1        0.0000
     20 HH11       28.2838    5.7954   41.8197 H         1 ARG1        0.0000
     21 HH12       28.3384    4.0017   41.7478 H         1 ARG1        0.0000
     22 HH21       27.4481    6.7829   43.5429 H         1 ARG1        0.0000
     23 HH22       26.7885    5.8161   44.9051 H         1 ARG1        0.0000
     24 H          25.7797    0.1243   46.1175 H         1 ARG1        0.0000
     25 N          27.1980   -3.4310   43.9490 N.am      2 PRO2        0.0000
     26 CA         27.9470   -4.6780   44.0380 C.3       2 PRO2        0.0000
     27 C          29.4430   -4.4090   43.8940 C.2       2 PRO2        0.0000
     28 O          29.8260   -3.4380   43.2340 O.2       2 PRO2        0.0000
     29 CB         27.4230   -5.5020   42.8520 C.3       2 PRO2        0.0000
     30 CG         26.7670   -4.5340   41.9470 C.3       2 PRO2        0.0000
     31 CD         26.2610   -3.4290   42.8130 C.3       2 PRO2        0.0000
     32 HA         27.7371   -5.1896   44.9294 H         2 PRO2        0.0000
     33 HB2        26.7195   -6.2244   43.2190 H         2 PRO2        0.0000
     34 HB3        28.2549   -5.9780   42.3695 H         2 PRO2        0.0000
     35 HG2        25.9413   -5.0018   41.4324 H         2 PRO2        0.0000
     36 HG3        27.4791   -4.1436   41.2358 H         2 PRO2        0.0000
     37 HD2        26.3098   -2.5011   42.2844 H         2 PRO2        0.0000
     38 HD3        25.2681   -3.6500   43.1416 H         2 PRO2        0.0000
     39 N          30.2860   -5.2440   44.5270 N.am      3 PRO3        0.0000
     40 CA         31.7300   -5.0860   44.3640 C.3       3 PRO3        0.0000
     41 C          32.1480   -5.1900   42.8980 C.2       3 PRO3        0.0000
     42 O          33.2280   -4.7510   42.5190 O.2       3 PRO3        0.0000
     43 CB         32.3080   -6.2570   45.1650 C.3       3 PRO3        0.0000
     44 CG         31.1810   -7.2030   45.3720 C.3       3 PRO3        0.0000
     45 CD         29.9590   -6.3520   45.4400 C.3       3 PRO3        0.0000
     46 HA         32.0679   -4.1859   44.7919 H         3 PRO3        0.0000
     47 HB2        32.6739   -5.8892   46.1040 H         3 PRO3        0.0000
     48 HB3        33.0910   -6.7166   44.5935 H         3 PRO3        0.0000
     49 HG2        31.3094   -7.7366   46.2967 H         3 PRO3        0.0000
     50 HG3        31.1099   -7.8829   44.5420 H         3 PRO3        0.0000
     51 HD2        29.1146   -6.8978   45.0841 H         3 PRO3        0.0000
     52 HD3        29.8198   -5.9930   46.4347 H         3 PRO3        0.0000
     53 N          31.4110   -5.7110   42.0560 N.am      4 GLY4        0.0000
     54 HNCA       31.7544   -5.7215   41.1169 H         4 GLY4        0.0000
     55 H          30.5421   -6.0719   42.3948 H         4 GLY4        0.0000
@<TRIPOS>BOND
     1    2    1 1
     2   24    1 1
     3    3    2 1
     4    5    2 1
     5   12    2 1
     6    4    3 2
     7    6    5 1
     8   13    5 1
     9   14    5 1
    10    7    6 1
    11   15    6 1
    12   16    6 1
    13    8    7 1
    14   17    7 1
    15   18    7 1
    16    9    8 ar
    17   19    8 1
    18   10    9 ar
    19   11    9 ar
    20   20   10 1
    21   21   10 1
    22   22   11 1
    23   23   11 1
    24   26   25 1
    25   31   25 1
    26   27   26 1
    27   29   26 1
    28   32   26 1
    29   28   27 2
    30   30   29 1
    31   33   29 1
    32   34   29 1
    33   31   30 1
    34   35   30 1
    35   36   30 1
    36   37   31 1
    37   38   31 1
    38   40   39 1
    39   45   39 1
    40   41   40 1
    41   43   40 1
    42   46   40 1
    43   42   41 2
    44   44   43 1
    45   47   43 1
    46   48   43 1
    47   45   44 1
    48   49   44 1
    49   50   44 1
    50   51   45 1
    51   52   45 1
    52   54   53 1
    53   55   53 1
    54   25    3 am
    55   39   27 am
    56   53   41 am
@<TRIPOS>SUBSTRUCTURE
     1 ARG1        1 RESIDUE
     2 PRO2       25 RESIDUE
     3 PRO3       39 RESIDUE
     4 GLY4       53 RESIDUE
@<TRIPOS>SET

