#    Name: 1e06_IPB_2_INTS_M
#    Modification time : Mon Mar 24 22:36:40 2014

@<TRIPOS>MOLECULE
1e06_IPB_2_INTS_M
   29     0     3     0     0
SMALL
NO_CHARGES


@<TRIPOS>ATOM
      1 CA         12.2560    2.4160   22.2415 C.3       1 GLC5        0.0000 
      2 CA         12.9440    4.3930   22.8040 C.3       3 GLL5        0.0000 
      3 CA         11.5680    0.4390   21.6790 C.3       2 GLP5        0.0000 
      4 CA         10.8265    3.1865   25.3080 C.3       1 GLC5        0.0000 
      5 CA         11.5550    5.1510   24.6120 C.3       3 GLL5        0.0000 
      6 CA         10.0980    1.2220   26.0040 C.3       2 GLP5        0.0000 
      7 CA          8.6990    3.8910   22.2365 C.3       1 GLC5        0.0000 
      8 CA         10.6600    4.8950   22.0960 C.3       3 GLL5        0.0000 
      9 CA          6.7380    2.8870   22.3770 C.3       2 GLP5        0.0000 
     10 CA         15.1955    2.9265   27.1975 C.3       1 GLC5        0.0000 
     11 CA         14.9830    4.4830   26.0250 C.3       3 GLL5        0.0000 
     12 CA         15.4080    1.3700   28.3700 C.3       2 GLP5        0.0000 
     13 CA          8.0805    5.6560   21.1220 C.3       1 GLC5        0.0000 
     14 CA          9.3170    5.3790   22.6540 C.3       3 GLL5        0.0000 
     15 CA          6.8440    5.9330   19.5900 C.3       2 GLP5        0.0000 
     16 CA          7.6705    4.6870   22.7535 C.3       1 GLC5        0.0000 
     17 CA          6.0240    3.9950   22.8530 C.3       2 GLP5        0.0000 
     18 CA         12.6885    5.4725   20.0355 C.3       1 GLC5        0.0000 
     19 CA         11.0770    5.7920   20.9630 C.3       3 GLL5        0.0000 
     20 CA         14.3000    5.1530   19.1080 C.3       2 GLP5        0.0000 
     21 CA          8.9605    5.8625   20.2765 C.3       1 GLC5        0.0000 
     22 CA         11.9680    7.2695   19.6995 C.3       1 GLC5        0.0000 
     23 CA         12.8590    8.7470   18.4360 C.3       2 GLP5        0.0000 
     24 CA         16.2790    4.9177   25.7167 C.3       1 GLC5        0.0000 
     25 CA         13.8830    4.5880   25.0560 C.3       3 GLL5        0.0000 
     26 CA         18.1250    5.3000   25.8930 C.3       2 GLP5        0.0000 
     27 CA         11.8422    6.8002   25.9793 C.3       1 GLC5        0.0000 
     28 CA         12.5980    5.0280   25.4570 C.3       3 GLL5        0.0000 
     29 CA         11.6080    8.5110   26.9240 C.3       2 GLP5        0.0000 
@<TRIPOS>BOND
@<TRIPOS>SUBSTRUCTURE
     1 GLC5        1 GROUP        1 X    GLC  0     ROOT GLC X 6
     2 GLP5        3 GROUP        1 Y    GLP  0     ROOT GLP Y 13
     3 GLL5        2 GROUP        1 Z    GLL  0     ROOT GLL Z 20
@<TRIPOS>SET

