#    Name: 1e06_IPB_2_ligand
#    Modification time : Mon Mar 24 22:36:40 2014

@<TRIPOS>MOLECULE
1e06_IPB_2_ligand
   25    25     1     0     0
SMALL
NO_CHARGES


@<TRIPOS>ATOM
      1 C4         11.7560    4.7890   23.1590 C.ar      1 IPB600      0.0000 
      2 C5         12.9440    4.3930   22.8040 C.ar      1 IPB600      0.0000 
      3 C6         14.0630    4.2750   23.7630 C.ar      1 IPB600      0.0000 
      4 C1         13.8830    4.5880   25.0560 C.ar      1 IPB600      0.0000 
      5 C2         12.5980    5.0280   25.4570 C.ar      1 IPB600      0.0000 
      6 C3         11.5550    5.1510   24.6120 C.ar      1 IPB600      0.0000 
      7 C8         10.6600    4.8950   22.0960 C.3       1 IPB600      0.0000 
      8 C7         14.9830    4.4830   26.0250 C.3       1 IPB600      0.0000 
      9 O          10.3880    5.5720   25.1490 O.3       1 IPB600      0.0000 
     10 C9          9.3170    5.3790   22.6540 C.3       1 IPB600      0.0000 
     11 C10        11.0770    5.7920   20.9630 C.3       1 IPB600      0.0000 
     12 H          13.1919    4.1307   21.8186 H         1 IPB600      0.0000 
     13 H          14.9563    3.9475   23.3801 H         1 IPB600      0.0000 
     14 H          12.4788    5.2659   26.4795 H         1 IPB600      0.0000 
     15 H          10.4953    3.8878   21.6785 H         1 IPB600      0.0000 
     16 H          15.3347    3.5490   26.0879 H         1 IPB600      0.0000 
     17 H          15.7535    5.0703   25.7772 H         1 IPB600      0.0000 
     18 H          14.6947    4.7501   26.9445 H         1 IPB600      0.0000 
     19 H           9.3927    6.2850   23.0705 H         1 IPB600      0.0000 
     20 H           8.6193    5.4418   21.9404 H         1 IPB600      0.0000 
     21 H           8.9628    4.7620   23.3568 H         1 IPB600      0.0000 
     22 H          11.2779    6.7195   21.2782 H         1 IPB600      0.0000 
     23 H          11.8989    5.4537   20.5047 H         1 IPB600      0.0000 
     24 H          10.3631    5.8672   20.2668 H         1 IPB600      0.0000 
     25 H          10.9654    6.1494   25.7264 H         1 IPB600      0.0000 
@<TRIPOS>BOND
     1    2    1 ar   
     2    6    1 ar   
     3    7    1 1    
     4    3    2 ar   
     5   12    2 1    
     6    4    3 ar   
     7   13    3 1    
     8    5    4 ar   
     9    8    4 1    
    10    6    5 ar   
    11   14    5 1    
    12    9    6 1    
    13   10    7 1    
    14   11    7 1    
    15   15    7 1    
    16   16    8 1    
    17   17    8 1    
    18   18    8 1    
    19   25    9 1    
    20   19   10 1    
    21   20   10 1    
    22   21   10 1    
    23   22   11 1    
    24   23   11 1    
    25   24   11 1    
@<TRIPOS>SUBSTRUCTURE
     1 IPB600      1 GROUP   
@<TRIPOS>SET

