#    Name: 3uaz_NOS_1_INTS_M
#    Modification time : Mon Mar 24 22:06:46 2014

@<TRIPOS>MOLECULE
3uaz_NOS_1_INTS_M
   44     0     9     0     0
SMALL
NO_CHARGES


@<TRIPOS>ATOM
      1 CA         46.3335   16.8090   42.7155 C.3       3 GLC5        0.0000 
      2 CA         44.6960   16.9160   41.4250 C.3       9 GLL5        0.0000 
      3 CA         47.9710   16.7020   44.0060 C.3       6 GLP5        0.0000 
      4 CA         47.7520   19.1580   41.1350 C.3       3 GLC5        0.0000 
      5 CA         45.7270   18.9760   41.1070 C.3       9 GLL5        0.0000 
      6 CA         49.7770   19.3400   41.1630 C.3       6 GLP5        0.0000 
      7 CA         46.8490   17.8390   42.5565 C.3       3 GLC5        0.0000 
      8 CA         45.6770   19.5765   42.9940 C.3       3 GLC5        0.0000 
      9 CA         45.6270   20.1770   44.8810 C.3       6 GLP5        0.0000 
     10 CA         47.3910   17.8490   37.8315 C.3       3 GLC5        0.0000 
     11 CA         45.6700   17.5660   39.2340 C.3       9 GLL5        0.0000 
     12 CA         49.1120   18.1320   36.4290 C.3       6 GLP5        0.0000 
     13 CA         45.9225   14.7445   40.5140 C.3       3 GLC5        0.0000 
     14 CA         44.9880   16.5690   40.0370 C.3       9 GLL5        0.0000 
     15 CA         46.8570   12.9200   40.9910 C.3       6 GLP5        0.0000 
     16 N          44.5485   14.8335   38.2080 N.am      2 SEC2        0.0000 
     17 N          44.4870   15.3450   39.8410 N.am      8 SEL2        0.0000 
     18 N          44.6100   14.3220   36.5750 N.am      5 SEP2        0.0000 
     19 CA         42.2850   19.5030   41.5930 C.3       3 GLC5        0.0000 
     20 CA         41.6400   18.2860   42.8320 C.3       9 GLL5        0.0000 
     21 CA         42.9300   20.7200   40.3540 C.3       6 GLP5        0.0000 
     22 CA         42.8935   19.6245   43.5300 C.3       3 GLC5        0.0000 
     23 CA         44.1470   20.9630   44.2280 C.3       6 GLP5        0.0000 
     24 CA         45.9835   16.7155   44.1845 C.3       3 GLC5        0.0000 
     25 CA         43.9960   16.7290   44.3630 C.3       9 GLL5        0.0000 
     26 CA         44.8115   18.4530   44.6220 C.3       3 GLC5        0.0000 
     27 N          45.9235   16.9475   45.6725 N.am      2 SEC2        0.0000 
     28 N          44.7820   16.0940   45.3240 N.am      8 SEL2        0.0000 
     29 N          47.0650   17.8010   46.0210 N.am      5 SEP2        0.0000 
     30 O          44.8120   16.1070   46.6435 O.2       1 ALC1        0.0000 
     31 O          44.7820   16.0940   45.3240 O.2       7 ALL1        0.0000 
     32 O          44.8420   16.1200   47.9630 O.2       4 ALP1        0.0000 
     33 CA         41.0260   18.1765   45.8050 C.3       3 GLC5        0.0000 
     34 CA         42.7260   17.4020   44.9150 C.3       9 GLL5        0.0000 
     35 CA         39.3260   18.9510   46.6950 C.3       6 GLP5        0.0000 
     36 CA         44.1260   18.5575   45.6200 C.3       3 GLC5        0.0000 
     37 CA         45.5260   19.7130   46.3250 C.3       6 GLP5        0.0000 
     38 O          42.8465   17.2345   47.2420 O.2       1 ALC1        0.0000 
     39 O          42.3060   16.7780   46.1210 O.2       7 ALL1        0.0000 
     40 O          43.3870   17.6910   48.3630 O.2       4 ALP1        0.0000 
     41 CA         46.6275   15.7147   38.6418 C.3       3 GLC5        0.0000 
     42 CA         47.9260   14.3620   37.6480 C.3       6 GLP5        0.0000 
     43 CA         40.2020   18.5410   44.1868 C.3       3 GLC5        0.0000 
     44 CA         38.7330   19.3500   45.0400 C.3       6 GLP5        0.0000 
@<TRIPOS>BOND
@<TRIPOS>SUBSTRUCTURE
     1 ALC1       30 GROUP        1 X    ALC  0     ROOT ALC X 1
     2 SEC2       16 GROUP        1 X    SEC  0     **** SEC X 2
     3 GLC5        1 GROUP        1 X    GLC  0     **** GLC X 6
     4 ALP1       32 GROUP        1 Y    ALP  0     ROOT ALP Y 8
     5 SEP2       18 GROUP        1 Y    SEP  0     **** SEP Y 9
     6 GLP5        3 GROUP        1 Y    GLP  0     **** GLP Y 13
     7 ALL1       31 GROUP        1 Z    ALL  0     ROOT ALL Z 15
     8 SEL2       17 GROUP        1 Z    SEL  0     **** SEL Z 16
     9 GLL5        2 GROUP        1 Z    GLL  0     **** GLL Z 20
@<TRIPOS>SET

