#    Name: 3uaz_NOS_1_ligand
#    Modification time : Mon Mar 24 22:06:46 2014

@<TRIPOS>MOLECULE
3uaz_NOS_1_ligand
   31    33     1     0     0
SMALL
NO_CHARGES


@<TRIPOS>ATOM
      1 N9         44.0740   15.8860   41.9730 N.pl3     1 NOS236      0.0000 
      2 C4         44.6960   16.9160   41.4250 C.ar      1 NOS236      0.0000 
      3 N3         45.0880   18.1220   41.8990 N.ar      1 NOS236      0.0000 
      4 C2         45.7270   18.9760   41.1070 C.ar      1 NOS236      0.0000 
      5 N1         46.0140   18.7170   39.8220 N.ar      1 NOS236      0.0000 
      6 C6         45.6700   17.5660   39.2340 C.ar      1 NOS236      0.0000 
      7 O6         45.9490   17.2890   37.9410 O.3       1 NOS236      0.0000 
      8 C5         44.9880   16.5690   40.0370 C.ar      1 NOS236      0.0000 
      9 N7         44.4870   15.3450   39.8410 N.2       1 NOS236      0.0000 
     10 C8         43.9330   14.9380   40.9840 C.2       1 NOS236      0.0000 
     11 C5'        41.6400   18.2860   42.8320 C.3       1 NOS236      0.0000 
     12 O5'        40.6990   18.0050   41.8180 O.3       1 NOS236      0.0000 
     13 C4'        41.7020   17.1780   43.8350 C.3       1 NOS236      0.0000 
     14 O4'        42.0920   15.9470   43.1690 O.3       1 NOS236      0.0000 
     15 C1'        43.4860   15.7320   43.3040 C.3       1 NOS236      0.0000 
     16 C2'        43.9960   16.7290   44.3630 C.3       1 NOS236      0.0000 
     17 O2'        44.7820   16.0940   45.3240 O.3       1 NOS236      0.0000 
     18 C3'        42.7260   17.4020   44.9150 C.3       1 NOS236      0.0000 
     19 O3'        42.3060   16.7780   46.1210 O.3       1 NOS236      0.0000 
     20 H          46.0305   19.9195   41.5087 H         1 NOS236      0.0000 
     21 H          43.4785   14.0792   41.1260 H         1 NOS236      0.0000 
     22 H          41.3906   19.2221   43.3686 H         1 NOS236      0.0000 
     23 H          42.6557   18.4291   42.4143 H         1 NOS236      0.0000 
     24 H          40.7372   17.0429   44.2953 H         1 NOS236      0.0000 
     25 H          43.6636   14.7315   43.6796 H         1 NOS236      0.0000 
     26 H          44.5379   17.4987   43.8068 H         1 NOS236      0.0000 
     27 H          42.9127   18.4360   45.0058 H         1 NOS236      0.0000 
     28 H          45.2720   17.8032   37.4144 H         1 NOS236      0.0000 
     29 H          41.1087   17.2666   41.2823 H         1 NOS236      0.0000 
     30 H          44.4396   16.4300   46.2014 H         1 NOS236      0.0000 
     31 H          42.7818   17.2733   46.8478 H         1 NOS236      0.0000 
@<TRIPOS>BOND
     1    2    1 1    
     2   10    1 1    
     3   15    1 1    
     4    3    2 ar   
     5    8    2 ar   
     6    4    3 ar   
     7    5    4 ar   
     8   20    4 1    
     9    6    5 ar   
    10    7    6 1    
    11    8    6 ar   
    12   28    7 1    
    13    9    8 1    
    14   10    9 2    
    15   21   10 1    
    16   12   11 1    
    17   13   11 1    
    18   22   11 1    
    19   23   11 1    
    20   29   12 1    
    21   14   13 1    
    22   18   13 1    
    23   24   13 1    
    24   15   14 1    
    25   16   15 1    
    26   25   15 1    
    27   17   16 1    
    28   18   16 1    
    29   26   16 1    
    30   30   17 1    
    31   19   18 1    
    32   27   18 1    
    33   31   19 1    
@<TRIPOS>SUBSTRUCTURE
     1 NOS236      1 GROUP   
@<TRIPOS>SET

