#    Name: 1maw_ATP_1_INTS_M
#    Modification time : Mon Apr  7 14:34:21 2014

@<TRIPOS>MOLECULE
1maw_ATP_1_INTS_M
   48     0    12     0     0
SMALL
NO_CHARGES


@<TRIPOS>ATOM
      1 N          33.3360   -7.5950   53.6625 N.am      2 SEC2        0.0000 
      2 N          33.6930   -7.6950   52.3250 N.am     10 SEL2        0.0000 
      3 N          32.9790   -7.4950   55.0000 N.am      6 SEP2        0.0000 
      4 NZ         36.5425   -6.9930   54.4280 N.4       3 LYC4        0.0000 
      5 NZ         35.2590   -6.2320   54.4430 N.4      11 LYL4        0.0000 
      6 NZ         37.8260   -7.7540   54.4130 N.4       7 LYP4        0.0000 
      7 N          36.5425   -6.9930   54.4280 N.am      2 SEC2        0.0000 
      8 N          35.2590   -6.2320   54.4430 N.am     10 SEL2        0.0000 
      9 N          37.8260   -7.7540   54.4130 N.am      6 SEP2        0.0000 
     10 NZ         34.1010   -1.7165   51.8770 N.4       3 LYC4        0.0000 
     11 NZ         35.6370   -2.1020   51.9010 N.4      11 LYL4        0.0000 
     12 NZ         32.5650   -1.3310   51.8530 N.4       7 LYP4        0.0000 
     13 N          34.1010   -1.7165   51.8770 N.am      2 SEC2        0.0000 
     14 N          35.6370   -2.1020   51.9010 N.am     10 SEL2        0.0000 
     15 N          32.5650   -1.3310   51.8530 N.am      6 SEP2        0.0000 
     16 CA         39.1765   -1.7900   55.7445 C.3       4 GLC5        0.0000 
     17 CA         40.1890   -2.7390   54.3820 C.3      12 GLL5        0.0000 
     18 CA         38.1640   -0.8410   57.1070 C.3       8 GLP5        0.0000 
     19 CA         39.0130   -7.0920   56.5405 C.3       4 GLC5        0.0000 
     20 CA         39.0200   -5.0050   56.9990 C.3      12 GLL5        0.0000 
     21 CA         39.0060   -9.1790   56.0820 C.3       8 GLP5        0.0000 
     22 CA         39.5915   -5.6525   60.3145 C.3       4 GLC5        0.0000 
     23 CA         39.4090   -5.7640   58.1550 C.3      12 GLL5        0.0000 
     24 CA         39.7740   -5.5410   62.4740 C.3       8 GLP5        0.0000 
     25 CA         39.1440   -7.7160   57.8460 C.3       4 GLC5        0.0000 
     26 CA         38.8790   -9.6680   57.5370 C.3       8 GLP5        0.0000 
     27 CA         37.8875   -6.3240   59.5805 C.3       4 GLC5        0.0000 
     28 CA         36.3660   -6.8840   61.0060 C.3       8 GLP5        0.0000 
     29 O          38.7055   -7.3100   60.0430 O.2       1 ALC1        0.0000 
     30 O          38.5370   -6.4930   58.8490 O.2       9 ALL1        0.0000 
     31 O          38.8740   -8.1270   61.2370 O.2       5 ALP1        0.0000 
     32 O          37.2440   -6.7590   58.4095 O.2       1 ALC1        0.0000 
     33 O          35.9510   -7.0250   57.9700 O.2       5 ALP1        0.0000 
     34 N          41.1335   -6.3215   59.9840 N.am      2 SEC2        0.0000 
     35 N          40.7590   -5.7470   58.5540 N.am     10 SEL2        0.0000 
     36 N          41.5080   -6.8960   61.4140 N.am      6 SEP2        0.0000 
     37 CA         42.3000   -3.1825   57.8935 C.3       4 GLC5        0.0000 
     38 CA         41.6550   -5.0280   57.8450 C.3      12 GLL5        0.0000 
     39 CA         42.9450   -1.3370   57.9420 C.3       8 GLP5        0.0000 
     40 CA         42.6975   -6.1765   59.1950 C.3       4 GLC5        0.0000 
     41 CA         43.7400   -7.3250   60.5450 C.3       8 GLP5        0.0000 
     42 CA         41.4850   -2.8230   57.1615 C.3       4 GLC5        0.0000 
     43 CA         40.0250   -4.3090   56.3810 C.3      12 GLL5        0.0000 
     44 CA         41.6545   -1.2218   53.9352 C.3       4 GLC5        0.0000 
     45 CA         42.5720    0.6580   53.9300 C.3       8 GLP5        0.0000 
     46 CA         38.6343   -3.9848   59.0225 C.3       4 GLC5        0.0000 
     47 CA         38.0540   -2.5850   60.4680 C.3       8 GLP5        0.0000 
     48 CA         38.8432   -2.7490   56.8985 C.3       4 GLC5        0.0000 
@<TRIPOS>BOND
@<TRIPOS>SUBSTRUCTURE
     1 ALC1       29 GROUP        1 X    ALC  0     ROOT ALC X 1
     2 SEC2        1 GROUP        1 X    SEC  0     **** SEC X 2
     3 LYC4        4 GROUP        1 X    LYC  0     **** LYC X 4
     4 GLC5       16 GROUP        1 X    GLC  0     **** GLC X 6
     5 ALP1       31 GROUP        1 Y    ALP  0     ROOT ALP Y 8
     6 SEP2        3 GROUP        1 Y    SEP  0     **** SEP Y 9
     7 LYP4        6 GROUP        1 Y    LYP  0     **** LYP Y 11
     8 GLP5       18 GROUP        1 Y    GLP  0     **** GLP Y 13
     9 ALL1       30 GROUP        1 Z    ALL  0     ROOT ALL Z 15
    10 SEL2        2 GROUP        1 Z    SEL  0     **** SEL Z 16
    11 LYL4        5 GROUP        1 Z    LYL  0     **** LYL Z 18
    12 GLL5       17 GROUP        1 Z    GLL  0     **** GLL Z 20
@<TRIPOS>SET

