#    Name: 1maw_ATP_1_ligand
#    Modification time : Mon Apr  7 14:34:21 2014

@<TRIPOS>MOLECULE
1maw_ATP_1_ligand
   43    45     1     0     0
SMALL
NO_CHARGES


@<TRIPOS>ATOM
      1 PG         33.0600   -6.4860   51.7170 P.3       1 ATP400      0.0000 
      2 O1G        33.5700   -6.2970   50.3050 O.co2     1 ATP400      0.0000 
      3 O2G        31.5580   -6.5400   51.8110 O.co2     1 ATP400      0.0000 
      4 O3G        33.6930   -7.6950   52.3250 O.co2     1 ATP400      0.0000 
      5 PB         34.5260   -5.0680   53.9480 P.3       1 ATP400      0.0000 
      6 O1B        34.5290   -3.8140   54.6480 O.co2     1 ATP400      0.0000 
      7 O2B        35.2590   -6.2320   54.4430 O.co2     1 ATP400      0.0000 
      8 O3B        33.5230   -5.2290   52.6880 O.3       1 ATP400      0.0000 
      9 PA         35.8300   -3.5530   51.7140 P.3       1 ATP400      0.0000 
     10 O1A        35.9180   -4.1990   50.4090 O.co2     1 ATP400      0.0000 
     11 O2A        35.6370   -2.1020   51.9010 O.co2     1 ATP400      0.0000 
     12 O3A        35.8010   -4.5060   52.9600 O.3       1 ATP400      0.0000 
     13 O5'        37.2890   -3.6120   51.5040 O.3       1 ATP400      0.0000 
     14 C5'        38.5200   -3.4550   51.7370 C.3       1 ATP400      0.0000 
     15 C4'        39.6130   -2.5430   52.0910 C.3       1 ATP400      0.0000 
     16 O4'        39.1900   -2.1990   53.4570 O.3       1 ATP400      0.0000 
     17 C3'        40.6670   -3.6020   52.0640 C.3       1 ATP400      0.0000 
     18 O3'        41.5870   -3.5460   50.9440 O.3       1 ATP400      0.0000 
     19 C2'        41.2850   -3.4640   53.4990 C.3       1 ATP400      0.0000 
     20 O2'        42.5030   -2.7400   53.4480 O.3       1 ATP400      0.0000 
     21 C1'        40.1890   -2.7390   54.3820 C.3       1 ATP400      0.0000 
     22 N9         39.4560   -3.6560   55.3400 N.pl3     1 ATP400      0.0000 
     23 C8         38.0970   -4.0010   55.3870 C.2       1 ATP400      0.0000 
     24 N7         37.7910   -4.8040   56.3610 N.2       1 ATP400      0.0000 
     25 C5         39.0200   -5.0050   56.9990 C.ar      1 ATP400      0.0000 
     26 C6         39.4090   -5.7640   58.1550 C.ar      1 ATP400      0.0000 
     27 N6         38.5370   -6.4930   58.8490 N.pl3     1 ATP400      0.0000 
     28 N1         40.7590   -5.7470   58.5540 N.ar      1 ATP400      0.0000 
     29 C2         41.6550   -5.0280   57.8450 C.ar      1 ATP400      0.0000 
     30 N3         41.4150   -4.2890   56.7490 N.ar      1 ATP400      0.0000 
     31 C4         40.0250   -4.3090   56.3810 C.ar      1 ATP400      0.0000 
     32 H          39.1259   -4.1309   50.7946 H         1 ATP400      0.0000 
     33 H          38.8424   -4.4582   52.5129 H         1 ATP400      0.0000 
     34 H          39.7211   -1.8278   51.4522 H         1 ATP400      0.0000 
     35 H          40.1223   -4.5717   52.0962 H         1 ATP400      0.0000 
     36 H          41.3913   -4.4580   53.8886 H         1 ATP400      0.0000 
     37 H          40.6603   -1.9453   54.9122 H         1 ATP400      0.0000 
     38 H          37.4620   -3.6324   54.7053 H         1 ATP400      0.0000 
     39 H          37.5981   -6.5011   58.5050 H         1 ATP400      0.0000 
     40 H          38.8997   -6.9666   59.6516 H         1 ATP400      0.0000 
     41 H          42.6860   -5.0512   58.2032 H         1 ATP400      0.0000 
     42 H          41.5643   -4.4625   50.5445 H         1 ATP400      0.0000 
     43 H          42.8575   -2.8947   52.5259 H         1 ATP400      0.0000 
@<TRIPOS>BOND
     1    2    1 ar   
     2    3    1 ar   
     3    4    1 ar   
     4    8    1 1    
     5    6    5 ar   
     6    7    5 ar   
     7    8    5 1    
     8   12    5 1    
     9   10    9 ar   
    10   11    9 ar   
    11   12    9 1    
    12   13    9 1    
    13   14   13 1    
    14   15   14 1    
    15   32   14 1    
    16   33   14 1    
    17   16   15 1    
    18   17   15 1    
    19   34   15 1    
    20   21   16 1    
    21   18   17 1    
    22   19   17 1    
    23   35   17 1    
    24   42   18 1    
    25   20   19 1    
    26   21   19 1    
    27   36   19 1    
    28   43   20 1    
    29   22   21 1    
    30   37   21 1    
    31   23   22 1    
    32   31   22 1    
    33   24   23 2    
    34   38   23 1    
    35   25   24 1    
    36   26   25 ar   
    37   31   25 ar   
    38   27   26 1    
    39   28   26 ar   
    40   39   27 1    
    41   40   27 1    
    42   29   28 ar   
    43   30   29 ar   
    44   41   29 1    
    45   31   30 ar   
@<TRIPOS>SUBSTRUCTURE
     1 ATP400      1 GROUP   
@<TRIPOS>SET

