#    Name: 3iup_NDP_1_INTS_M
#    Modification time : Tue Mar 25 17:29:03 2014

@<TRIPOS>MOLECULE
3iup_NDP_1_INTS_M
  112     0    12     0     0
SMALL
NO_CHARGES


@<TRIPOS>ATOM
      1 N          27.8160   37.1560   18.8465 N.am      2 SEC2        0.0000 
      2 N          27.3910   36.2130   19.8300 N.am     10 SEL2        0.0000 
      3 N          28.2410   38.0990   17.8630 N.am      6 SEP2        0.0000 
      4 CA         25.7035   41.5620   22.9040 C.3       4 GLC5        0.0000 
      5 CA         26.6230   39.6370   23.1230 C.3      12 GLL5        0.0000 
      6 CA         24.7840   43.4870   22.6850 C.3       8 GLP5        0.0000 
      7 CA         24.5955   40.1765   23.7175 C.3       4 GLC5        0.0000 
      8 CA         22.5680   40.7160   24.3120 C.3       8 GLP5        0.0000 
      9 CA         28.0230   39.7835   21.5515 C.3       4 GLC5        0.0000 
     10 CA         28.0590   39.6270   23.6720 C.3      12 GLL5        0.0000 
     11 CA         27.9870   39.9400   19.4310 C.3       8 GLP5        0.0000 
     12 O          30.0995   40.3805   23.5720 O.2       1 ALC1        0.0000 
     13 O          28.9010   40.6260   23.1360 O.2       9 ALL1        0.0000 
     14 O          31.2980   40.1350   24.0080 O.2       5 ALP1        0.0000 
     15 CA         28.7145   38.0350   25.8115 C.3       4 GLC5        0.0000 
     16 CA         27.8650   39.9220   25.1760 C.3      12 GLL5        0.0000 
     17 CA         29.5640   36.1480   26.4470 C.3       8 GLP5        0.0000 
     18 N          30.1005   40.4225   24.8830 N.am      2 SEC2        0.0000 
     19 N          28.9030   40.7100   25.7580 N.am     10 SEL2        0.0000 
     20 N          31.2980   40.1350   24.0080 N.am      6 SEP2        0.0000 
     21 CA         25.6695   42.0920   23.9180 C.3       4 GLC5        0.0000 
     22 CA         26.5550   40.6970   25.1510 C.3      12 GLL5        0.0000 
     23 CA         24.5615   40.7065   24.7315 C.3       4 GLC5        0.0000 
     24 CA         26.2210   44.1430   28.3895 C.3       4 GLC5        0.0000 
     25 CA         24.5300   43.8450   27.6950 C.3      12 GLL5        0.0000 
     26 CA         27.9120   44.4410   29.0840 C.3       8 GLP5        0.0000 
     27 CA         23.2715   44.6530   26.7720 C.3       4 GLC5        0.0000 
     28 CA         22.0130   45.4610   25.8490 C.3       8 GLP5        0.0000 
     29 CA         26.5555   43.0455   28.0825 C.3       4 GLC5        0.0000 
     30 CA         25.1990   41.6500   27.0810 C.3      12 GLL5        0.0000 
     31 CA         23.8835   41.1830   25.6965 C.3       4 GLC5        0.0000 
     32 N          25.6920   37.9920   16.9150 N.am      2 SEC2        0.0000 
     33 N          25.0930   37.3800   18.0390 N.am     10 SEL2        0.0000 
     34 N          26.2910   38.6040   15.7910 N.am      6 SEP2        0.0000 
     35 NZ         24.5685   34.0280   18.8255 N.4       3 LYC4        0.0000 
     36 NZ         24.0290   35.2050   18.6380 N.4      11 LYL4        0.0000 
     37 NZ         25.1080   32.8510   19.0130 N.4       7 LYP4        0.0000 
     38 N          24.1315   35.2350   17.0920 N.am      2 SEC2        0.0000 
     39 N          24.0290   35.2050   18.6380 N.am     10 SEL2        0.0000 
     40 N          24.2340   35.2650   15.5460 N.am      6 SEP2        0.0000 
     41 N          24.5685   34.0280   18.8255 N.am      2 SEC2        0.0000 
     42 N          25.1080   32.8510   19.0130 N.am      6 SEP2        0.0000 
     43 CA         24.6815   39.4310   19.4885 C.3       4 GLC5        0.0000 
     44 CA         22.9140   38.7960   19.4500 C.3      12 GLL5        0.0000 
     45 CA         26.4490   40.0660   19.5270 C.3       8 GLP5        0.0000 
     46 CA         23.4490   39.0920   17.4355 C.3       4 GLC5        0.0000 
     47 CA         23.9840   39.3880   15.4210 C.3       8 GLP5        0.0000 
     48 CA         21.3110   41.0560   20.7935 C.3       4 GLC5        0.0000 
     49 CA         21.5300   39.2330   19.9180 C.3      12 GLL5        0.0000 
     50 CA         21.0920   42.8790   21.6690 C.3       8 GLP5        0.0000 
     51 CA         20.4175   40.3540   18.7510 C.3       4 GLC5        0.0000 
     52 CA         19.3050   41.4750   17.5840 C.3       8 GLP5        0.0000 
     53 N          21.0505   40.7815   18.4150 N.am      2 SEC2        0.0000 
     54 N          20.6730   39.2120   18.7570 N.am     10 SEL2        0.0000 
     55 N          21.4280   42.3510   18.0730 N.am      6 SEP2        0.0000 
     56 CA         21.3830   36.5125   21.6415 C.3       4 GLC5        0.0000 
     57 CA         20.8710   38.3580   21.0040 C.3      12 GLL5        0.0000 
     58 CA         21.8950   34.6670   22.2790 C.3       8 GLP5        0.0000 
     59 CA         21.3605   38.4015   23.0770 C.3       4 GLC5        0.0000 
     60 CA         21.8500   38.4450   25.1500 C.3       8 GLP5        0.0000 
     61 CA         20.1760   36.0285   21.4660 C.3       4 GLC5        0.0000 
     62 CA         19.8910   37.5370   20.1820 C.3      12 GLL5        0.0000 
     63 CA         20.4610   34.5200   22.7500 C.3       8 GLP5        0.0000 
     64 CA         19.3785   40.0415   18.3820 C.3       4 GLC5        0.0000 
     65 CA         19.4520   38.6080   19.1800 C.3      12 GLL5        0.0000 
     66 N          13.4975   37.9905   14.7225 N.am      2 SEC2        0.0000 
     67 N          14.4580   37.7950   15.7300 N.am     10 SEL2        0.0000 
     68 N          12.5370   38.1860   13.7150 N.am      6 SEP2        0.0000 
     69 O          15.2220   39.8925   18.6670 O.2       1 ALC1        0.0000 
     70 O          14.6340   39.3530   17.4900 O.2       9 ALL1        0.0000 
     71 O          15.8100   40.4320   19.8440 O.2       5 ALP1        0.0000 
     72 O          13.5720   40.2630   17.3835 O.2       1 ALC1        0.0000 
     73 O          12.5100   41.1730   17.2770 O.2       5 ALP1        0.0000 
     74 CA         18.6745   38.0510   14.2815 C.3       4 GLC5        0.0000 
     75 CA         18.7440   36.9990   15.9040 C.3      12 GLL5        0.0000 
     76 CA         18.6050   39.1030   12.6590 C.3       8 GLP5        0.0000 
     77 N          30.8155   38.4980   25.7825 N.am      2 SEC2        0.0000 
     78 N          30.8970   39.5130   26.8010 N.am     10 SEL2        0.0000 
     79 N          30.7340   37.4830   24.7640 N.am      6 SEP2        0.0000 
     80 N          31.0975   39.8240   25.4045 N.am      2 SEC2        0.0000 
     81 NZ         28.0545   40.1690   29.0670 N.4       3 LYC4        0.0000 
     82 NZ         28.7080   39.4030   28.0430 N.4      11 LYL4        0.0000 
     83 NZ         27.2760   42.2590   30.0530 N.4       7 LYP4        0.0000 
     84 N          28.0545   40.1690   29.0670 N.am      2 SEC2        0.0000 
     85 N          28.7080   39.4030   28.0430 N.am     10 SEL2        0.0000 
     86 N          27.4010   40.9350   30.0910 N.am      6 SEP2        0.0000 
     87 NZ         28.6570   41.2730   28.9750 N.4       3 LYC4        0.0000 
     88 NZ         29.9130   41.6110   27.8590 N.4      11 LYL4        0.0000 
     89 NZ         30.5505   41.7295   29.0105 N.4       3 LYC4        0.0000 
     90 NZ         31.1880   41.8480   30.1620 N.4       7 LYP4        0.0000 
     91 N          28.9585   42.3005   28.5260 N.am      2 SEC2        0.0000 
     92 N          29.9130   41.6110   27.8590 N.am     10 SEL2        0.0000 
     93 N          28.0040   42.9900   29.1930 N.am      6 SEP2        0.0000 
     94 N          28.6570   41.2730   28.9750 N.am      2 SEC2        0.0000 
     95 N          30.5505   41.7295   29.0105 N.am      2 SEC2        0.0000 
     96 N          31.1880   41.8480   30.1620 N.am      6 SEP2        0.0000 
     97 N          30.8000   42.1965   26.9235 N.am      2 SEC2        0.0000 
     98 N          31.6870   42.7820   25.9880 N.am      6 SEP2        0.0000 
     99 CA         26.4135   39.5117   21.2258 C.3       4 GLC5        0.0000 
    100 CA         29.6940   38.7608   23.9605 C.3       4 GLC5        0.0000 
    101 CA         31.4260   37.7470   23.4970 C.3       8 GLP5        0.0000 
    102 CA         22.7825   41.0435   27.5572 C.3       4 GLC5        0.0000 
    103 CA         24.5250   41.1080   28.1680 C.3      12 GLL5        0.0000 
    104 CA         21.3830   40.5400   26.5150 C.3       8 GLP5        0.0000 
    105 CA         17.6232   38.9050   14.9898 C.3       4 GLC5        0.0000 
    106 CA         16.6350   37.9270   16.8890 C.3      12 GLL5        0.0000 
    107 CA         18.2900   40.1970   13.6780 C.3       8 GLP5        0.0000 
    108 CA         20.3083   38.3800   15.7567 C.3       4 GLC5        0.0000 
    109 CA         21.5370   39.5580   15.0360 C.3       8 GLP5        0.0000 
    110 CA         18.8290   35.5450   15.6990 C.3       4 GLC5        0.0000 
    111 CA         19.4150   37.4050   17.0510 C.3      12 GLL5        0.0000 
    112 CA         18.9450   33.8130   14.9680 C.3       8 GLP5        0.0000 
@<TRIPOS>BOND
@<TRIPOS>SUBSTRUCTURE
     1 ALC1       12 GROUP        1 X    ALC  0     ROOT ALC X 1
     2 SEC2        1 GROUP        1 X    SEC  0     **** SEC X 2
     3 LYC4       35 GROUP        1 X    LYC  0     **** LYC X 4
     4 GLC5        4 GROUP        1 X    GLC  0     **** GLC X 6
     5 ALP1       14 GROUP        1 Y    ALP  0     ROOT ALP Y 8
     6 SEP2        3 GROUP        1 Y    SEP  0     **** SEP Y 9
     7 LYP4       37 GROUP        1 Y    LYP  0     **** LYP Y 11
     8 GLP5        6 GROUP        1 Y    GLP  0     **** GLP Y 13
     9 ALL1       13 GROUP        1 Z    ALL  0     ROOT ALL Z 15
    10 SEL2        2 GROUP        1 Z    SEL  0     **** SEL Z 16
    11 LYL4       36 GROUP        1 Z    LYL  0     **** LYL Z 18
    12 GLL5        5 GROUP        1 Z    GLL  0     **** GLL Z 20
@<TRIPOS>SET

