#    Name: 3iup_NDP_1_ligand
#    Modification time : Tue Mar 25 17:29:03 2014

@<TRIPOS>MOLECULE
3iup_NDP_1_ligand
   74    78     1     0     0
SMALL
NO_CHARGES


@<TRIPOS>ATOM
      1 PA         26.4550   36.3990   20.9190 P.3       1 NDP401      0.0000 
      2 O1A        27.3910   36.2130   19.8300 O.co2     1 NDP401      0.0000 
      3 O2A        26.3110   35.3360   21.9380 O.co2     1 NDP401      0.0000 
      4 O5B        26.9510   37.7970   21.6540 O.3       1 NDP401      0.0000 
      5 C5B        26.1330   38.2780   22.7260 C.3       1 NDP401      0.0000 
      6 C4B        26.6230   39.6370   23.1230 C.3       1 NDP401      0.0000 
      7 O4B        25.7630   40.0620   24.1400 O.3       1 NDP401      0.0000 
      8 C3B        28.0590   39.6270   23.6720 C.3       1 NDP401      0.0000 
      9 O3B        28.9010   40.6260   23.1360 O.3       1 NDP401      0.0000 
     10 C2B        27.8650   39.9220   25.1760 C.3       1 NDP401      0.0000 
     11 O2B        28.9030   40.7100   25.7580 O.3       1 NDP401      0.0000 
     12 C1B        26.5550   40.6970   25.1510 C.3       1 NDP401      0.0000 
     13 N9A        25.8020   40.6120   26.4090 N.pl3     1 NDP401      0.0000 
     14 C8A        25.4810   39.4410   27.0650 C.2       1 NDP401      0.0000 
     15 N7A        24.7180   39.7400   28.1310 N.2       1 NDP401      0.0000 
     16 C5A        24.5250   41.1080   28.1680 C.ar      1 NDP401      0.0000 
     17 C6A        23.8390   41.9860   29.0310 C.ar      1 NDP401      0.0000 
     18 N6A        23.2290   41.5890   30.1620 N.pl3     1 NDP401      0.0000 
     19 N1A        23.8480   43.3380   28.7570 N.ar      1 NDP401      0.0000 
     20 C2A        24.5300   43.8450   27.6950 C.ar      1 NDP401      0.0000 
     21 N3A        25.1970   42.9850   26.8530 N.ar      1 NDP401      0.0000 
     22 C4A        25.1990   41.6500   27.0810 C.ar      1 NDP401      0.0000 
     23 O3         24.9350   36.7130   20.4660 O.3       1 NDP401      0.0000 
     24 PN         24.3560   36.6210   19.0190 P.3       1 NDP401      0.0000 
     25 O1N        25.0930   37.3800   18.0390 O.co2     1 NDP401      0.0000 
     26 O2N        24.0290   35.2050   18.6380 O.co2     1 NDP401      0.0000 
     27 O5D        22.9300   37.3730   19.2580 O.3       1 NDP401      0.0000 
     28 C5D        22.9140   38.7960   19.4500 C.3       1 NDP401      0.0000 
     29 C4D        21.5300   39.2330   19.9180 C.3       1 NDP401      0.0000 
     30 O4D        20.6730   39.2120   18.7570 O.3       1 NDP401      0.0000 
     31 C3D        20.8710   38.3580   21.0040 C.3       1 NDP401      0.0000 
     32 O3D        20.1520   39.1440   21.9330 O.3       1 NDP401      0.0000 
     33 C2D        19.8910   37.5370   20.1820 C.3       1 NDP401      0.0000 
     34 O2D        18.7920   36.9940   20.8980 O.3       1 NDP401      0.0000 
     35 C1D        19.4520   38.6080   19.1800 C.3       1 NDP401      0.0000 
     36 N1N        18.7260   38.0630   18.0100 N.pl3     1 NDP401      0.0000 
     37 C2N        17.4130   38.3880   17.9180 C.2       1 NDP401      0.0000 
     38 C3N        16.6350   37.9270   16.8890 C.2       1 NDP401      0.0000 
     39 C7N        15.2070   38.4120   16.7280 C.2       1 NDP401      0.0000 
     40 O7N        14.4580   37.7950   15.7300 O.2       1 NDP401      0.0000 
     41 N7N        14.6340   39.3530   17.4900 N.am      1 NDP401      0.0000 
     42 C4N        17.2780   37.2990   15.7140 C.3       1 NDP401      0.0000 
     43 C5N        18.7440   36.9990   15.9040 C.2       1 NDP401      0.0000 
     44 C6N        19.4150   37.4050   17.0510 C.2       1 NDP401      0.0000 
     45 P2B        29.6140   40.2690   27.1730 P.3       1 NDP401      0.0000 
     46 O1X        30.8970   39.5130   26.8010 O.co2     1 NDP401      0.0000 
     47 O2X        28.7080   39.4030   28.0430 O.co2     1 NDP401      0.0000 
     48 O3X        29.9130   41.6110   27.8590 O.co2     1 NDP401      0.0000 
     49 H          26.1881   37.6182   23.5960 H         1 NDP401      0.0000 
     50 H          25.0857   38.3585   22.4227 H         1 NDP401      0.0000 
     51 H          26.5798   40.2915   22.2773 H         1 NDP401      0.0000 
     52 H          28.4439   38.6406   23.6002 H         1 NDP401      0.0000 
     53 H          27.6807   38.9991   25.6655 H         1 NDP401      0.0000 
     54 H          26.7537   41.7066   24.8842 H         1 NDP401      0.0000 
     55 H          25.7665   38.5644   26.7885 H         1 NDP401      0.0000 
     56 H          22.7487   42.2999   30.6757 H         1 NDP401      0.0000 
     57 H          23.3102   40.6183   30.3883 H         1 NDP401      0.0000 
     58 H          24.5514   44.8596   27.5169 H         1 NDP401      0.0000 
     59 H          23.1407   39.3298   18.5215 H         1 NDP401      0.0000 
     60 H          23.6406   39.1080   20.2070 H         1 NDP401      0.0000 
     61 H          21.5937   40.2507   20.2898 H         1 NDP401      0.0000 
     62 H          21.5903   37.7234   21.4071 H         1 NDP401      0.0000 
     63 H          20.4608   36.8203   19.6245 H         1 NDP401      0.0000 
     64 H          18.8496   39.3232   19.7074 H         1 NDP401      0.0000 
     65 H          16.9790   39.0035   18.6451 H         1 NDP401      0.0000 
     66 H          15.2161   39.7672   18.1897 H         1 NDP401      0.0000 
     67 H          13.6755   39.5570   17.2908 H         1 NDP401      0.0000 
     68 H          17.1639   37.9577   14.8279 H         1 NDP401      0.0000 
     69 H          16.7537   36.3540   15.4605 H         1 NDP401      0.0000 
     70 H          19.2026   36.4893   15.1521 H         1 NDP401      0.0000 
     71 H          20.4162   37.2006   17.1518 H         1 NDP401      0.0000 
     72 H          29.8203   40.2338   23.1675 H         1 NDP401      0.0000 
     73 H          19.3176   38.6254   22.1195 H         1 NDP401      0.0000 
     74 H          17.9824   37.2824   20.3868 H         1 NDP401      0.0000 
@<TRIPOS>BOND
     1    2    1 ar   
     2    3    1 ar   
     3    4    1 1    
     4   23    1 1    
     5    5    4 1    
     6    6    5 1    
     7   49    5 1    
     8   50    5 1    
     9    7    6 1    
    10    8    6 1    
    11   51    6 1    
    12   12    7 1    
    13    9    8 1    
    14   10    8 1    
    15   52    8 1    
    16   72    9 1    
    17   11   10 1    
    18   12   10 1    
    19   53   10 1    
    20   45   11 1    
    21   13   12 1    
    22   54   12 1    
    23   14   13 1    
    24   22   13 1    
    25   15   14 2    
    26   55   14 1    
    27   16   15 1    
    28   17   16 ar   
    29   22   16 ar   
    30   18   17 1    
    31   19   17 ar   
    32   56   18 1    
    33   57   18 1    
    34   20   19 ar   
    35   21   20 ar   
    36   58   20 1    
    37   22   21 ar   
    38   24   23 1    
    39   25   24 ar   
    40   26   24 ar   
    41   27   24 1    
    42   28   27 1    
    43   29   28 1    
    44   59   28 1    
    45   60   28 1    
    46   30   29 1    
    47   31   29 1    
    48   61   29 1    
    49   35   30 1    
    50   32   31 1    
    51   33   31 1    
    52   62   31 1    
    53   73   32 1    
    54   34   33 1    
    55   35   33 1    
    56   63   33 1    
    57   74   34 1    
    58   36   35 1    
    59   64   35 1    
    60   37   36 1    
    61   44   36 1    
    62   38   37 2    
    63   65   37 1    
    64   39   38 1    
    65   42   38 1    
    66   40   39 2    
    67   41   39 am   
    68   66   41 1    
    69   67   41 1    
    70   43   42 1    
    71   68   42 1    
    72   69   42 1    
    73   44   43 2    
    74   70   43 1    
    75   71   44 1    
    76   46   45 ar   
    77   47   45 ar   
    78   48   45 ar   
@<TRIPOS>SUBSTRUCTURE
     1 NDP401      1 GROUP   
@<TRIPOS>SET

