#    Name: 3r9c_ECL_2_INTS_M
#    Modification time : Tue Mar 25 11:16:38 2014

@<TRIPOS>MOLECULE
3r9c_ECL_2_INTS_M
   58     0     3     0     0
SMALL
NO_CHARGES


@<TRIPOS>ATOM
      1 CA          1.5195   -1.1030   40.7420 C.3       1 GLC5        0.0000 
      2 CA          0.0220   -0.0420   39.6870 C.3       3 GLL5        0.0000 
      3 CA          3.0170   -2.1640   41.7970 C.3       2 GLP5        0.0000 
      4 CA         -2.9575    3.0020   42.7685 C.3       1 GLC5        0.0000 
      5 CA         -1.1470    2.7980   42.3380 C.3       3 GLL5        0.0000 
      6 CA         -4.7680    3.2060   43.1990 C.3       2 GLP5        0.0000 
      7 CA         -1.1175    2.5040   44.1230 C.3       1 GLC5        0.0000 
      8 CA         -1.0880    2.2100   45.9080 C.3       2 GLP5        0.0000 
      9 CA         -1.4205    4.3050   43.3675 C.3       1 GLC5        0.0000 
     10 CA         -1.6940    5.8120   44.3970 C.3       2 GLP5        0.0000 
     11 CA          6.6320   -4.4720   34.3150 C.3       1 GLC5        0.0000 
     12 CA          6.0240   -3.6160   35.6830 C.3       3 GLL5        0.0000 
     13 CA          7.2400   -5.3280   32.9470 C.3       2 GLP5        0.0000 
     14 CA          4.8590   -4.0435   37.2625 C.3       1 GLC5        0.0000 
     15 CA          3.6940   -4.4710   38.8420 C.3       2 GLP5        0.0000 
     16 CA          6.9535   -3.3530   37.2245 C.3       1 GLC5        0.0000 
     17 CA          7.8830   -3.0900   38.7660 C.3       2 GLP5        0.0000 
     18 CA          4.0925   -2.9450   37.5825 C.3       1 GLC5        0.0000 
     19 CA          4.4910   -1.4190   36.3230 C.3       3 GLL5        0.0000 
     20 CA          4.8315   -0.0580   38.0205 C.3       1 GLC5        0.0000 
     21 CA          5.1720    1.3030   39.7180 C.3       2 GLP5        0.0000 
     22 CA         -2.0870    3.6730   32.0280 C.3       1 GLC5        0.0000 
     23 CA         -1.8070    2.2570   33.0630 C.3       3 GLL5        0.0000 
     24 CA         -2.3670    5.0890   30.9930 C.3       2 GLP5        0.0000 
     25 CA         -1.3160   -1.0710   36.4075 C.3       1 GLC5        0.0000 
     26 CA          0.0800   -0.1500   37.1830 C.3       3 GLL5        0.0000 
     27 CA         -2.7120   -1.9920   35.6320 C.3       2 GLP5        0.0000 
     28 CA          0.7785   -4.2125   33.3255 C.3       1 GLC5        0.0000 
     29 CA          1.2260   -2.3700   33.2240 C.3       3 GLL5        0.0000 
     30 CA          0.3310   -6.0550   33.4270 C.3       2 GLP5        0.0000 
     31 CA         -2.6950    3.6920   40.4430 C.3       1 GLC5        0.0000 
     32 CA         -1.0290    2.5510   39.5980 C.3       3 GLL5        0.0000 
     33 CA         -4.3610    4.8330   41.2880 C.3       2 GLP5        0.0000 
     34 CA          0.8525   -0.3250   42.4065 C.3       1 GLC5        0.0000 
     35 CA         -0.2600    0.6350   40.8700 C.3       3 GLL5        0.0000 
     36 CA          1.9650   -1.2850   43.9430 C.3       2 GLP5        0.0000 
     37 CA          3.5825   -4.6575   34.9865 C.3       1 GLC5        0.0000 
     38 CA          3.6100   -2.8330   34.5680 C.3       3 GLL5        0.0000 
     39 CA          3.5550   -6.4820   35.4050 C.3       2 GLP5        0.0000 
     40 CA         -0.7480   -0.9860   35.3750 C.3       1 GLC5        0.0000 
     41 CA          1.2160    0.0200   35.1180 C.3       3 GLL5        0.0000 
     42 CA          2.8940   -2.5235   37.1190 C.3       1 GLC5        0.0000 
     43 CA          3.3880   -0.5820   36.1940 C.3       3 GLL5        0.0000 
     44 CA          2.4000   -4.4650   38.0440 C.3       2 GLP5        0.0000 
     45 CA          3.3825    1.0785   37.4380 C.3       1 GLC5        0.0000 
     46 CA          3.3770    2.7390   38.6820 C.3       2 GLP5        0.0000 
     47 CA         -1.6862   -1.0145   39.2828 C.3       1 GLC5        0.0000 
     48 CA         -0.2230    0.5820   38.4640 C.3       3 GLL5        0.0000 
     49 CA         -3.2720   -2.2990   39.4900 C.3       2 GLP5        0.0000 
     50 CA          4.4335   -4.7808   35.5003 C.3       1 GLC5        0.0000 
     51 CA          4.6000   -2.5430   35.5080 C.3       3 GLL5        0.0000 
     52 CA         -2.6152    2.6825   38.0110 C.3       1 GLC5        0.0000 
     53 CA         -0.7480    1.8750   38.4160 C.3       3 GLL5        0.0000 
     54 CA         -4.3420    3.1520   37.0150 C.3       2 GLP5        0.0000 
     55 CA          1.4764    1.9057   38.7139 C.3       1 GLC5        0.0000 
     56 CA         -2.3037    0.2120   41.1040 C.3       1 GLC5        0.0000 
     57 CA         -4.0850   -0.8570   41.3640 C.3       2 GLP5        0.0000 
     58 CA          2.8518   -3.4035   36.3912 C.3       1 GLC5        0.0000 
@<TRIPOS>BOND
@<TRIPOS>SUBSTRUCTURE
     1 GLC5        1 GROUP        1 X    GLC  0     ROOT GLC X 6
     2 GLP5        3 GROUP        1 Y    GLP  0     ROOT GLP Y 13
     3 GLL5        2 GROUP        1 Z    GLL  0     ROOT GLL Z 20
@<TRIPOS>SET

