#    Name: 3r9c_ECL_2_ligand
#    Modification time : Tue Mar 25 11:16:38 2014

@<TRIPOS>MOLECULE
3r9c_ECL_2_ligand
   39    41     1     0     0
SMALL
NO_CHARGES


@<TRIPOS>ATOM
      1 C1         -0.2230    0.5820   38.4640 C.ar      1 ECL452      0.0000 
      2 N1          0.2040    1.7580   33.7800 N.pl3     1 ECL452      0.0000 
      3 C2          0.0220   -0.0420   39.6870 C.ar      1 ECL452      0.0000 
      4 CL2        -1.1470    2.7980   42.3380 Cl        1 ECL452      0.0000 
      5 C3         -0.1170    2.9610   34.2580 C.2       1 ECL452      0.0000 
      6 CL4         6.0240   -3.6160   35.6830 Cl        1 ECL452      0.0000 
      7 C5          4.4910   -1.4190   36.3230 C.ar      1 ECL452      0.0000 
      8 C6         -1.8070    2.2570   33.0630 C.2       1 ECL452      0.0000 
      9 C7         -0.8160    1.3020   33.0420 C.2       1 ECL452      0.0000 
     10 C8          0.0800   -0.1500   37.1830 C.3       1 ECL452      0.0000 
     11 CL8         1.2260   -2.3700   33.2240 Cl        1 ECL452      0.0000 
     12 C9         -1.0290    2.5510   39.5980 C.ar      1 ECL452      0.0000 
     13 C10        -0.7480    1.8750   38.4160 C.ar      1 ECL452      0.0000 
     14 C11        -0.7850    1.9270   40.8180 C.ar      1 ECL452      0.0000 
     15 C13        -0.2600    0.6350   40.8700 C.ar      1 ECL452      0.0000 
     16 C14         4.6000   -2.5430   35.5080 C.ar      1 ECL452      0.0000 
     17 C15         3.6100   -2.8330   34.5680 C.ar      1 ECL452      0.0000 
     18 C16         2.5020   -1.9960   34.4390 C.ar      1 ECL452      0.0000 
     19 C17         2.3960   -0.8710   35.2520 C.ar      1 ECL452      0.0000 
     20 C19         1.4640    1.0680   34.0380 C.3       1 ECL452      0.0000 
     21 N19        -1.3570    3.2790   33.8230 N.2       1 ECL452      0.0000 
     22 C20         1.2160    0.0200   35.1180 C.3       1 ECL452      0.0000 
     23 O20         0.9150    0.6610   36.3590 O.3       1 ECL452      0.0000 
     24 C21         3.3880   -0.5820   36.1940 C.ar      1 ECL452      0.0000 
     25 H           0.4062   -0.9905   39.7131 H         1 ECL452      0.0000 
     26 H           0.4371    3.5208   34.8223 H         1 ECL452      0.0000 
     27 H           5.2196   -1.2108   37.0132 H         1 ECL452      0.0000 
     28 H          -2.6469    2.1945   32.6199 H         1 ECL452      0.0000 
     29 H          -0.8681    0.4668   32.5757 H         1 ECL452      0.0000 
     30 H          -0.8704   -0.3832   36.6868 H         1 ECL452      0.0000 
     31 H           0.5660   -1.1005   37.4364 H         1 ECL452      0.0000 
     32 H          -1.4124    3.5005   39.5720 H         1 ECL452      0.0000 
     33 H          -0.9249    2.3225   37.5099 H         1 ECL452      0.0000 
     34 H          -0.0836    0.1884   41.7754 H         1 ECL452      0.0000 
     35 H           3.6980   -3.6641   33.9706 H         1 ECL452      0.0000 
     36 H           2.2223    1.7576   34.3952 H         1 ECL452      0.0000 
     37 H           1.8248    0.5649   33.1465 H         1 ECL452      0.0000 
     38 H           0.3631   -0.5819   34.7886 H         1 ECL452      0.0000 
     39 H           3.2988    0.2502   36.7898 H         1 ECL452      0.0000 
@<TRIPOS>BOND
     1    3    1 ar   
     2   10    1 1    
     3   13    1 ar   
     4    5    2 1    
     5    9    2 1    
     6   20    2 1    
     7   15    3 ar   
     8   25    3 1    
     9   14    4 1    
    10   21    5 2    
    11   26    5 1    
    12   16    6 1    
    13   16    7 ar   
    14   24    7 ar   
    15   27    7 1    
    16    9    8 2    
    17   21    8 1    
    18   28    8 1    
    19   29    9 1    
    20   23   10 1    
    21   30   10 1    
    22   31   10 1    
    23   18   11 1    
    24   13   12 ar   
    25   14   12 ar   
    26   32   12 1    
    27   33   13 1    
    28   15   14 ar   
    29   34   15 1    
    30   17   16 ar   
    31   18   17 ar   
    32   35   17 1    
    33   19   18 ar   
    34   22   19 1    
    35   24   19 ar   
    36   22   20 1    
    37   36   20 1    
    38   37   20 1    
    39   23   22 1    
    40   38   22 1    
    41   39   24 1    
@<TRIPOS>SUBSTRUCTURE
     1 ECL452      1 GROUP   
@<TRIPOS>SET

