#    Name: 3lkh_LT6_2_INTS_M
#    Modification time : Mon Mar 24 21:45:18 2014

@<TRIPOS>MOLECULE
3lkh_LT6_2_INTS_M
   88     0     6     0     0
SMALL
NO_CHARGES


@<TRIPOS>ATOM
      1 CA         32.6790    5.5610    1.6035 C.3       2 GLC5        0.0000 
      2 CA         31.0290    5.3610    2.6060 C.3       6 GLL5        0.0000 
      3 CA         34.3290    5.7610    0.6010 C.3       4 GLP5        0.0000 
      4 CA         33.7805    0.0460    5.3230 C.3       2 GLC5        0.0000 
      5 CA         33.9810    1.2370    3.8040 C.3       6 GLL5        0.0000 
      6 CA         33.5800   -1.1450    6.8420 C.3       4 GLP5        0.0000 
      7 CA         34.9345    0.0480    3.2885 C.3       2 GLC5        0.0000 
      8 CA         35.8880   -1.1410    2.7730 C.3       4 GLP5        0.0000 
      9 CA         34.8235    1.8180    2.3435 C.3       2 GLC5        0.0000 
     10 CA         35.6660    2.3990    0.8830 C.3       4 GLP5        0.0000 
     11 CA         35.4405    0.9415    4.8245 C.3       2 GLC5        0.0000 
     12 CA         36.9000    0.6460    5.8450 C.3       4 GLP5        0.0000 
     13 O          28.8685   -0.0370    7.4045 O.2       1 ALC1        0.0000 
     14 O          27.8820   -0.9120    7.2520 O.2       5 ALL1        0.0000 
     15 O          29.8550    0.8380    7.5570 O.2       3 ALP1        0.0000 
     16 CA         30.4000    2.6480   -0.8535 C.3       2 GLC5        0.0000 
     17 CA         31.0470    3.5990    0.7850 C.3       6 GLL5        0.0000 
     18 CA         29.7530    1.6970   -2.4920 C.3       4 GLP5        0.0000 
     19 CA         32.7775    3.7500    0.0680 C.3       2 GLC5        0.0000 
     20 CA         34.5080    3.9010   -0.6490 C.3       4 GLP5        0.0000 
     21 CA         32.8645    0.4625    1.4600 C.3       2 GLC5        0.0000 
     22 CA         32.0180    2.5410    1.3880 C.3       6 GLL5        0.0000 
     23 CA         33.7110   -1.6160    1.5320 C.3       4 GLP5        0.0000 
     24 CA         33.5800    3.1065    0.9980 C.3       2 GLC5        0.0000 
     25 CA         35.1420    3.6720    0.6080 C.3       4 GLP5        0.0000 
     26 CA         31.5460   -0.6995   -0.4105 C.3       2 GLC5        0.0000 
     27 CA         30.5960    0.5590    0.9180 C.3       6 GLL5        0.0000 
     28 CA         32.4960   -1.9580   -1.7390 C.3       4 GLP5        0.0000 
     29 CA         29.0450   -0.6880    0.2715 C.3       2 GLC5        0.0000 
     30 CA         27.4940   -1.9350   -0.3750 C.3       4 GLP5        0.0000 
     31 CA         30.1745    1.1280   -0.7870 C.3       2 GLC5        0.0000 
     32 CA         32.1535   -0.5285    1.2250 C.3       2 GLC5        0.0000 
     33 CA         28.6565   -3.3820    3.5230 C.3       2 GLC5        0.0000 
     34 CA         26.8010   -3.1990    3.0640 C.3       6 GLL5        0.0000 
     35 CA         30.5120   -3.5650    3.9820 C.3       4 GLP5        0.0000 
     36 CA         27.1475   -2.5670    1.3445 C.3       2 GLC5        0.0000 
     37 CA         28.1610   -4.5465    3.9965 C.3       2 GLC5        0.0000 
     38 CA         26.1450   -4.4320    3.0120 C.3       6 GLL5        0.0000 
     39 CA         30.1770   -4.6610    4.9810 C.3       4 GLP5        0.0000 
     40 CA         26.7985   -3.9475    1.1925 C.3       2 GLC5        0.0000 
     41 CA         27.4520   -3.4630   -0.6270 C.3       4 GLP5        0.0000 
     42 CA         25.3575    0.6540    2.8395 C.3       2 GLC5        0.0000 
     43 CA         26.8110   -0.7050    3.6120 C.3       6 GLL5        0.0000 
     44 CA         23.9040    2.0130    2.0670 C.3       4 GLP5        0.0000 
     45 CA         28.9510   -2.6695    6.1325 C.3       2 GLC5        0.0000 
     46 CA         27.6690   -1.3650    5.9170 C.3       6 GLL5        0.0000 
     47 CA         30.2330   -3.9740    6.3480 C.3       4 GLP5        0.0000 
     48 CA         26.3755   -2.1070    7.3820 C.3       2 GLC5        0.0000 
     49 CA         25.0820   -2.8490    8.8470 C.3       4 GLP5        0.0000 
     50 CA         27.7310    4.1840    7.2435 C.3       2 GLC5        0.0000 
     51 CA         28.6180    3.2080    5.7160 C.3       6 GLL5        0.0000 
     52 CA         26.8440    5.1600    8.7710 C.3       4 GLP5        0.0000 
     53 CA         28.1560    4.9965    5.0525 C.3       2 GLC5        0.0000 
     54 CA         27.6940    6.7850    4.3890 C.3       4 GLP5        0.0000 
     55 CA         30.9950    2.3760    8.0050 C.3       2 GLC5        0.0000 
     56 CA         31.4930    3.5270    6.1940 C.3       6 GLL5        0.0000 
     57 CA         30.4970    1.2250    9.8160 C.3       4 GLP5        0.0000 
     58 CA         29.1580    5.8015    3.3175 C.3       2 GLC5        0.0000 
     59 CA         30.2150    4.2750    1.8860 C.3       6 GLL5        0.0000 
     60 CA         30.9765    5.3335   -0.1893 C.3       2 GLC5        0.0000 
     61 CA         31.3220    6.7300   -1.7140 C.3       4 GLP5        0.0000 
     62 CA         22.9330   -5.2620    4.0380 C.3       2 GLC5        0.0000 
     63 CA         24.1350   -3.4250    3.9080 C.3       6 GLL5        0.0000 
     64 CA         21.3900   -6.5370    4.4080 C.3       4 GLP5        0.0000 
     65 CA         25.2655   -4.9135    5.1340 C.3       2 GLC5        0.0000 
     66 CA         24.8170   -4.5490    3.4280 C.3       6 GLL5        0.0000 
     67 CA         26.0550   -5.8400    6.6000 C.3       4 GLP5        0.0000 
     68 CA         24.6245   -2.7000    1.9945 C.3       2 GLC5        0.0000 
     69 CA         24.7730   -1.4130    0.3210 C.3       4 GLP5        0.0000 
     70 CA         22.6925   -2.2200    4.9478 C.3       2 GLC5        0.0000 
     71 CA         24.7890   -2.1930    3.9670 C.3       6 GLL5        0.0000 
     72 CA         20.9230   -1.6310    5.9580 C.3       4 GLP5        0.0000 
     73 CA         26.2640   -4.8277    4.8190 C.3       2 GLC5        0.0000 
     74 CA         25.4524   -1.4137    2.0010 C.3       2 GLC5        0.0000 
     75 CA         31.6560    1.2290    6.3098 C.3       2 GLC5        0.0000 
     76 CA         30.9290    2.7710    5.1530 C.3       6 GLL5        0.0000 
     77 CA         32.1010   -0.6910    6.9460 C.3       4 GLP5        0.0000 
     78 CA         32.0025    5.3075    6.5918 C.3       2 GLC5        0.0000 
     79 CA         31.8240    7.1110    6.8710 C.3       4 GLP5        0.0000 
     80 CA         32.6930    1.2027    6.4835 C.3       2 GLC5        0.0000 
     81 CA         32.8690    3.4810    6.4310 C.3       6 GLL5        0.0000 
     82 CA         34.9850    4.3773    6.4170 C.3       2 GLC5        0.0000 
     83 CA         33.7010    2.7120    5.6110 C.3       6 GLL5        0.0000 
     84 CA         36.6850    5.6580    6.8130 C.3       4 GLP5        0.0000 
     85 CA         34.4280    3.6877    3.9545 C.3       2 GLC5        0.0000 
     86 CA         35.4320    5.0420    2.8170 C.3       4 GLP5        0.0000 
     87 CA         32.2752    0.6360    5.7022 C.3       2 GLC5        0.0000 
     88 CA         33.1470    1.9550    4.5730 C.3       6 GLL5        0.0000 
@<TRIPOS>BOND
@<TRIPOS>SUBSTRUCTURE
     1 ALC1       13 GROUP        1 X    ALC  0     ROOT ALC X 1
     2 GLC5        1 GROUP        1 X    GLC  0     **** GLC X 6
     3 ALP1       15 GROUP        1 Y    ALP  0     ROOT ALP Y 8
     4 GLP5        3 GROUP        1 Y    GLP  0     **** GLP Y 13
     5 ALL1       14 GROUP        1 Z    ALL  0     ROOT ALL Z 15
     6 GLL5        2 GROUP        1 Z    GLL  0     **** GLL Z 20
@<TRIPOS>SET

