#    Name: 3lkh_LT6_2_ligand
#    Modification time : Mon Mar 24 21:45:18 2014

@<TRIPOS>MOLECULE
3lkh_LT6_2_ligand
   59    60     1     0     0
SMALL
NO_CHARGES


@<TRIPOS>ATOM
      1 C1         31.0290    5.3610    2.6060 C.3       1 LT6577      0.0000 
      2 F1         33.9810    1.2370    3.8040 F         1 LT6577      0.0000 
      3 N1         31.2590    1.3880    1.9020 N.am      1 LT6577      0.0000 
      4 O1         27.8820   -0.9120    7.2520 O.3       1 LT6577      0.0000 
      5 C2         30.2150    4.2750    1.8860 C.3       1 LT6577      0.0000 
      6 N2         27.9010    0.9810    5.0980 N.am      1 LT6577      0.0000 
      7 O2         26.5370    2.2450    6.4410 O.2       1 LT6577      0.0000 
      8 C3         31.0470    3.5990    0.7850 C.3       1 LT6577      0.0000 
      9 O3         29.6070    2.7230    4.8240 O.3       1 LT6577      0.0000 
     10 C4         32.0180    2.5410    1.3880 C.3       1 LT6577      0.0000 
     11 O4         30.4320    0.1820    3.6330 O.2       1 LT6577      0.0000 
     12 C5         30.5960    0.5590    0.9180 C.3       1 LT6577      0.0000 
     13 C6         24.8170   -4.5490    3.4280 C.ar      1 LT6577      0.0000 
     14 C7         24.1350   -3.4250    3.9080 C.ar      1 LT6577      0.0000 
     15 C8         24.7890   -2.1930    3.9670 C.ar      1 LT6577      0.0000 
     16 C9         26.1160   -2.0550    3.5330 C.ar      1 LT6577      0.0000 
     17 C10        26.8010   -3.1990    3.0640 C.ar      1 LT6577      0.0000 
     18 C11        26.1450   -4.4320    3.0120 C.ar      1 LT6577      0.0000 
     19 C12        26.8110   -0.7050    3.6120 C.3       1 LT6577      0.0000 
     20 C13        27.0330   -0.2330    5.0690 C.3       1 LT6577      0.0000 
     21 C14        27.6690   -1.3650    5.9170 C.3       1 LT6577      0.0000 
     22 C15        27.5650    2.1190    5.8160 C.2       1 LT6577      0.0000 
     23 C16        28.6180    3.2080    5.7160 C.3       1 LT6577      0.0000 
     24 C17        30.9290    2.7710    5.1530 C.ar      1 LT6577      0.0000 
     25 C18        31.4930    3.5270    6.1940 C.ar      1 LT6577      0.0000 
     26 C19        32.8690    3.4810    6.4310 C.ar      1 LT6577      0.0000 
     27 C20        33.7010    2.7120    5.6110 C.ar      1 LT6577      0.0000 
     28 C21        33.1470    1.9550    4.5730 C.ar      1 LT6577      0.0000 
     29 C22        31.7520    1.9710    4.3440 C.ar      1 LT6577      0.0000 
     30 C23        31.1200    1.1340    3.2590 C.2       1 LT6577      0.0000 
     31 H          29.3321    4.7274    1.4394 H         1 LT6577      0.0000 
     32 H          29.9024    3.5245    2.6089 H         1 LT6577      0.0000 
     33 H          28.7726    0.9280    4.5502 H         1 LT6577      0.0000 
     34 H          31.6317    4.3484    0.2608 H         1 LT6577      0.0000 
     35 H          30.3843    3.1024    0.0833 H         1 LT6577      0.0000 
     36 H          32.7079    2.2375    0.6013 H         1 LT6577      0.0000 
     37 H          32.5833    3.0250    2.1838 H         1 LT6577      0.0000 
     38 H          24.3414   -5.4558    3.3824 H         1 LT6577      0.0000 
     39 H          23.1618   -3.5075    4.2138 H         1 LT6577      0.0000 
     40 H          24.2899   -1.3670    4.3360 H         1 LT6577      0.0000 
     41 H          27.7756   -3.1173    2.7646 H         1 LT6577      0.0000 
     42 H          26.6462   -5.2621    2.6634 H         1 LT6577      0.0000 
     43 H          26.2100    0.0479    3.0908 H         1 LT6577      0.0000 
     44 H          27.7848   -0.7641    3.1139 H         1 LT6577      0.0000 
     45 H          26.0672   -0.0002    5.4970 H         1 LT6577      0.0000 
     46 H          26.9878   -2.2215    5.8749 H         1 LT6577      0.0000 
     47 H          28.6038   -1.6515    5.4237 H         1 LT6577      0.0000 
     48 H          28.1386    4.1083    5.3477 H         1 LT6577      0.0000 
     49 H          29.0135    3.3875    6.7097 H         1 LT6577      0.0000 
     50 H          30.8891    4.1142    6.7807 H         1 LT6577      0.0000 
     51 H          33.2725    4.0146    7.2115 H         1 LT6577      0.0000 
     52 H          34.7127    2.7029    5.7697 H         1 LT6577      0.0000 
     53 H          31.8475    4.9849    3.0404 H         1 LT6577      0.0000 
     54 H          31.3335    6.0757    1.9763 H         1 LT6577      0.0000 
     55 H          30.4964    5.8100    3.3235 H         1 LT6577      0.0000 
     56 H          31.2452    0.1598    0.2706 H         1 LT6577      0.0000 
     57 H          30.1023   -0.1995    1.3434 H         1 LT6577      0.0000 
     58 H          29.9301    1.0786    0.3826 H         1 LT6577      0.0000 
     59 H          28.2193    0.0246    7.1567 H         1 LT6577      0.0000 
@<TRIPOS>BOND
     1    5    1 1    
     2   53    1 1    
     3   54    1 1    
     4   55    1 1    
     5   28    2 1    
     6   10    3 1    
     7   12    3 1    
     8   30    3 am   
     9   21    4 1    
    10   59    4 1    
    11    8    5 1    
    12   31    5 1    
    13   32    5 1    
    14   20    6 1    
    15   22    6 am   
    16   33    6 1    
    17   22    7 2    
    18   10    8 1    
    19   34    8 1    
    20   35    8 1    
    21   23    9 1    
    22   24    9 1    
    23   36   10 1    
    24   37   10 1    
    25   30   11 2    
    26   56   12 1    
    27   57   12 1    
    28   58   12 1    
    29   14   13 ar   
    30   18   13 ar   
    31   38   13 1    
    32   15   14 ar   
    33   39   14 1    
    34   16   15 ar   
    35   40   15 1    
    36   17   16 ar   
    37   19   16 1    
    38   18   17 ar   
    39   41   17 1    
    40   42   18 1    
    41   20   19 1    
    42   43   19 1    
    43   44   19 1    
    44   21   20 1    
    45   45   20 1    
    46   46   21 1    
    47   47   21 1    
    48   23   22 1    
    49   48   23 1    
    50   49   23 1    
    51   25   24 ar   
    52   29   24 ar   
    53   26   25 ar   
    54   50   25 1    
    55   27   26 ar   
    56   51   26 1    
    57   28   27 ar   
    58   52   27 1    
    59   29   28 ar   
    60   30   29 1    
@<TRIPOS>SUBSTRUCTURE
     1 LT6577      1 GROUP   
@<TRIPOS>SET

