#    Name: 1kyx_CRM_2_INTS_M
#    Modification time : Tue Mar 25 10:48:58 2014

@<TRIPOS>MOLECULE
1kyx_CRM_2_INTS_M
   61     0     9     0     0
SMALL
NO_CHARGES


@<TRIPOS>ATOM
      1 N          75.5070   21.0160   36.3990 N.am      2 SEC2        0.0000 
      2 N          74.2360   20.5740   36.9660 N.am      8 SEL2        0.0000 
      3 N          76.7780   21.4580   35.8320 N.am      5 SEP2        0.0000 
      4 N          74.2970   20.7385   35.6360 N.am      2 SEC2        0.0000 
      5 N          74.3580   20.9030   34.3060 N.am      5 SEP2        0.0000 
      6 CA         74.0470   20.6715   39.7825 C.3       3 GLC5        0.0000 
      7 CA         73.9130   22.8460   39.6540 C.3       9 GLL5        0.0000 
      8 CA         74.1810   18.4970   39.9110 C.3       6 GLP5        0.0000 
      9 CA         75.6685   22.3550   41.4000 C.3       3 GLC5        0.0000 
     10 CA         76.1230   23.8000   40.2530 C.3       9 GLL5        0.0000 
     11 CA         75.2140   20.9100   42.5470 C.3       6 GLP5        0.0000 
     12 CA         75.2430   26.1120   38.4450 C.3       3 GLC5        0.0000 
     13 CA         76.7800   24.6680   39.1530 C.3       9 GLL5        0.0000 
     14 CA         73.7060   27.5560   37.7370 C.3       6 GLP5        0.0000 
     15 CA         81.5845   27.1535   41.0260 C.3       3 GLC5        0.0000 
     16 CA         80.0330   26.5050   40.5850 C.3       9 GLL5        0.0000 
     17 CA         83.1360   27.8020   41.4670 C.3       6 GLP5        0.0000 
     18 CA         80.1980   28.3940   39.9585 C.3       3 GLC5        0.0000 
     19 CA         80.3630   30.2830   39.3320 C.3       6 GLP5        0.0000 
     20 N          81.0340   27.9710   39.2240 N.am      2 SEC2        0.0000 
     21 N          80.6180   26.6230   39.2840 N.am      8 SEL2        0.0000 
     22 N          81.4500   29.3190   39.1640 N.am      5 SEP2        0.0000 
     23 O          81.1265   25.7205   38.6110 O.2       1 ALC1        0.0000 
     24 O          80.6180   26.6230   39.2840 O.2       7 ALL1        0.0000 
     25 O          81.6350   24.8180   37.9380 O.2       4 ALP1        0.0000 
     26 O          78.4490   28.2930   40.7945 O.2       1 ALC1        0.0000 
     27 O          77.7270   27.0930   40.3200 O.2       7 ALL1        0.0000 
     28 O          79.1710   29.4930   41.2690 O.2       4 ALP1        0.0000 
     29 O          79.7155   23.2970   38.6760 O.2       1 ALC1        0.0000 
     30 O          78.9020   23.6440   39.7720 O.2       7 ALL1        0.0000 
     31 O          80.5290   22.9500   37.5800 O.2       4 ALP1        0.0000 
     32 O          80.2685   24.2310   38.8550 O.2       1 ALC1        0.0000 
     33 N          77.1285   23.9645   36.4280 N.am      2 SEC2        0.0000 
     34 N          76.5910   23.9920   37.9050 N.am      8 SEL2        0.0000 
     35 N          77.6660   23.9370   34.9510 N.am      5 SEP2        0.0000 
     36 CA         72.7075   23.4910   43.3595 C.3       3 GLC5        0.0000 
     37 CA         71.7910   25.1290   42.6980 C.3       9 GLL5        0.0000 
     38 CA         73.6240   21.8530   44.0210 C.3       6 GLP5        0.0000 
     39 CA         71.5040   28.1480   41.2755 C.3       3 GLC5        0.0000 
     40 CA         71.1330   26.4490   42.2070 C.3       9 GLL5        0.0000 
     41 CA         71.8750   29.8470   40.3440 C.3       6 GLP5        0.0000 
     42 N          71.7675   27.7810   39.9855 N.am      2 SEC2        0.0000 
     43 N          70.9110   26.8550   39.8230 N.am      8 SEL2        0.0000 
     44 N          72.6240   28.7070   40.1480 N.am      5 SEP2        0.0000 
     45 N          69.0990   21.7015   38.2875 N.am      2 SEC2        0.0000 
     46 N          70.5180   21.8020   39.2190 N.am      8 SEL2        0.0000 
     47 N          67.6800   21.6010   37.3560 N.am      5 SEP2        0.0000 
     48 O          71.6655   20.1975   37.3075 O.2       1 ALC1        0.0000 
     49 O          72.3420   21.1330   38.0370 O.2       7 ALL1        0.0000 
     50 O          70.9890   19.2620   36.5780 O.2       4 ALP1        0.0000 
     51 CA         72.5340   23.1863   37.8062 C.3       3 GLC5        0.0000 
     52 CA         72.5550   22.7510   39.8430 C.3       9 GLL5        0.0000 
     53 CA         71.8340   23.5740   35.8640 C.3       6 GLP5        0.0000 
     54 CA         78.0807   25.3830   37.5895 C.3       3 GLC5        0.0000 
     55 CA         78.6180   25.9800   35.9010 C.3       6 GLP5        0.0000 
     56 CA         77.7171   22.6715   38.6645 C.3       3 GLC5        0.0000 
     57 CA         78.3070   24.9040   39.4030 C.3       9 GLL5        0.0000 
     58 CA         78.0550   20.7740   37.7760 C.3       6 GLP5        0.0000 
     59 CA         79.5507   26.6990   42.4492 C.3       3 GLC5        0.0000 
     60 CA         78.5800   25.9650   40.5160 C.3       9 GLL5        0.0000 
     61 CA         79.7950   27.1630   44.3480 C.3       6 GLP5        0.0000 
@<TRIPOS>BOND
@<TRIPOS>SUBSTRUCTURE
     1 ALC1       23 GROUP        1 X    ALC  0     ROOT ALC X 1
     2 SEC2        1 GROUP        1 X    SEC  0     **** SEC X 2
     3 GLC5        6 GROUP        1 X    GLC  0     **** GLC X 6
     4 ALP1       25 GROUP        1 Y    ALP  0     ROOT ALP Y 8
     5 SEP2        3 GROUP        1 Y    SEP  0     **** SEP Y 9
     6 GLP5        8 GROUP        1 Y    GLP  0     **** GLP Y 13
     7 ALL1       24 GROUP        1 Z    ALL  0     ROOT ALL Z 15
     8 SEL2        2 GROUP        1 Z    SEL  0     **** SEL Z 16
     9 GLL5        7 GROUP        1 Z    GLL  0     **** GLL Z 20
@<TRIPOS>SET

