#    Name: 1kyx_CRM_2_ligand
#    Modification time : Tue Mar 25 10:48:58 2014

@<TRIPOS>MOLECULE
1kyx_CRM_2_ligand
   44    45     1     0     0
SMALL
NO_CHARGES


@<TRIPOS>ATOM
      1 C2         73.6940   21.2260   37.8360 C.2       1 CRM502      0.0000 
      2 O15        74.2360   20.5740   36.9660 O.2       1 CRM502      0.0000 
      3 N3         74.4070   22.0630   38.6360 N.am      1 CRM502      0.0000 
      4 C4         73.9130   22.8460   39.6540 C.2       1 CRM502      0.0000 
      5 N10        74.6590   23.6660   40.4270 N.am      1 CRM502      0.0000 
      6 C17        76.1230   23.8000   40.2530 C.3       1 CRM502      0.0000 
      7 C18        76.7800   24.6680   39.1530 C.3       1 CRM502      0.0000 
      8 C20        78.3070   24.9040   39.4030 C.3       1 CRM502      0.0000 
      9 C22        78.5800   25.9650   40.5160 C.3       1 CRM502      0.0000 
     10 C25        80.0330   26.5050   40.5850 C.3       1 CRM502      0.0000 
     11 O26        80.6180   26.6230   39.2840 O.3       1 CRM502      0.0000 
     12 O23        77.7270   27.0930   40.3200 O.3       1 CRM502      0.0000 
     13 O21        78.9020   23.6440   39.7720 O.3       1 CRM502      0.0000 
     14 O19        76.5910   23.9920   37.9050 O.3       1 CRM502      0.0000 
     15 C9         74.0740   24.4100   41.4030 C.2       1 CRM502      0.0000 
     16 O16        74.6900   25.1750   42.1250 O.2       1 CRM502      0.0000 
     17 C8         72.5980   24.3560   41.6610 C.2       1 CRM502      0.0000 
     18 C11        71.7910   25.1290   42.6980 C.3       1 CRM502      0.0000 
     19 C12        71.1330   26.4490   42.2070 C.3       1 CRM502      0.0000 
     20 C13        70.3760   26.3730   40.8670 C.2       1 CRM502      0.0000 
     21 O28        69.2240   25.8170   40.8500 O.co2     1 CRM502      0.0000 
     22 O27        70.9110   26.8550   39.8230 O.co2     1 CRM502      0.0000 
     23 N7         71.9290   23.5460   40.8920 N.2       1 CRM502      0.0000 
     24 C5         72.5550   22.7510   39.8430 C.2       1 CRM502      0.0000 
     25 C6         71.7180   21.8590   39.0130 C.2       1 CRM502      0.0000 
     26 O14        70.5180   21.8020   39.2190 O.2       1 CRM502      0.0000 
     27 N1         72.3420   21.1330   38.0370 N.am      1 CRM502      0.0000 
     28 H          75.4733   22.1240   38.4588 H         1 CRM502      0.0000 
     29 H          76.5821   22.7493   40.1520 H         1 CRM502      0.0000 
     30 H          76.5855   24.1394   41.2509 H         1 CRM502      0.0000 
     31 H          76.2893   25.6272   39.1481 H         1 CRM502      0.0000 
     32 H          78.7349   25.2694   38.4797 H         1 CRM502      0.0000 
     33 H          78.3573   25.5026   41.4796 H         1 CRM502      0.0000 
     34 H          80.6029   25.8166   41.2297 H         1 CRM502      0.0000 
     35 H          79.9923   27.4754   41.1056 H         1 CRM502      0.0000 
     36 H          72.4448   25.3723   43.5608 H         1 CRM502      0.0000 
     37 H          70.9892   24.4743   43.0973 H         1 CRM502      0.0000 
     38 H          71.9231   27.2217   42.1270 H         1 CRM502      0.0000 
     39 H          70.4346   26.8013   42.9917 H         1 CRM502      0.0000 
     40 H          71.7782   20.4948   37.4323 H         1 CRM502      0.0000 
     41 H          80.9346   25.7017   39.0582 H         1 CRM502      0.0000 
     42 H          78.2628   27.8791   40.6281 H         1 CRM502      0.0000 
     43 H          79.5056   23.4099   39.0098 H         1 CRM502      0.0000 
     44 H          75.8737   24.5084   37.4371 H         1 CRM502      0.0000 
@<TRIPOS>BOND
     1    2    1 2    
     2    3    1 1    
     3   27    1 1    
     4    4    3 1    
     5   28    3 1    
     6    5    4 1    
     7   24    4 2    
     8    6    5 1    
     9   15    5 am   
    10    7    6 1    
    11   29    6 1    
    12   30    6 1    
    13    8    7 1    
    14   14    7 1    
    15   31    7 1    
    16    9    8 1    
    17   13    8 1    
    18   32    8 1    
    19   10    9 1    
    20   12    9 1    
    21   33    9 1    
    22   11   10 1    
    23   34   10 1    
    24   35   10 1    
    25   41   11 1    
    26   42   12 1    
    27   43   13 1    
    28   44   14 1    
    29   16   15 2    
    30   17   15 1    
    31   18   17 1    
    32   23   17 2    
    33   19   18 1    
    34   36   18 1    
    35   37   18 1    
    36   20   19 1    
    37   38   19 1    
    38   39   19 1    
    39   21   20 ar   
    40   22   20 ar   
    41   24   23 1    
    42   25   24 1    
    43   26   25 2    
    44   27   25 1    
    45   40   27 1    
@<TRIPOS>SUBSTRUCTURE
     1 CRM502      1 GROUP   
@<TRIPOS>SET

