#    Name: 1n4g_PYZ_1_INTS_M
#    Modification time : Tue Mar 25 12:22:50 2014

@<TRIPOS>MOLECULE
1n4g_PYZ_1_INTS_M
   14     0     3     0     0
SMALL
NO_CHARGES


@<TRIPOS>ATOM
      1 CA        -13.2105   16.4595    2.0175 C.3       1 GLC5        0.0000 
      2 CA        -13.3580   17.9660    3.5580 C.3       3 GLL5        0.0000 
      3 CA        -13.0630   14.9530    0.4770 C.3       2 GLP5        0.0000 
      4 CA        -13.6895   19.2760    1.8835 C.3       1 GLC5        0.0000 
      5 CA        -14.0210   20.5860    0.2090 C.3       2 GLP5        0.0000 
      6 CA        -11.8130   18.4600    5.0940 C.3       1 GLC5        0.0000 
      7 CA        -11.5290   18.8520    3.0640 C.3       3 GLL5        0.0000 
      8 CA        -12.0970   18.0680    7.1240 C.3       2 GLP5        0.0000 
      9 CA        -12.7750   19.7190    1.6365 C.3       1 GLC5        0.0000 
     10 CA        -14.5815   20.2055    3.2185 C.3       1 GLC5        0.0000 
     11 CA        -14.4360   18.5600    4.1570 C.3       3 GLL5        0.0000 
     12 CA        -14.7270   21.8510    2.2800 C.3       2 GLP5        0.0000 
     13 CA        -14.9060   19.7870    5.7315 C.3       1 GLC5        0.0000 
     14 CA        -15.3760   21.0140    7.3060 C.3       2 GLP5        0.0000 
@<TRIPOS>BOND
@<TRIPOS>SUBSTRUCTURE
     1 GLC5        1 GROUP        1 X    GLC  0     ROOT GLC X 6
     2 GLP5        3 GROUP        1 Y    GLP  0     ROOT GLP Y 13
     3 GLL5        2 GROUP        1 Z    GLL  0     ROOT GLL Z 20
@<TRIPOS>SET

