#    Name: 1n4g_PYZ_1_ligand
#    Modification time : Tue Mar 25 12:22:50 2014

@<TRIPOS>MOLECULE
1n4g_PYZ_1_ligand
    9     9     1     0     0
SMALL
NO_CHARGES


@<TRIPOS>ATOM
      1 N1        -15.3420   17.5860    4.3870 N.pl3     1 PYZ600      0.0000 
      2 N2        -14.8510   16.4250    3.9260 N.2       1 PYZ600      0.0000 
      3 C3        -13.6350   16.6440    3.4090 C.2       1 PYZ600      0.0000 
      4 C4        -13.3580   17.9660    3.5580 C.2       1 PYZ600      0.0000 
      5 I4        -11.5290   18.8520    3.0640 I         1 PYZ600      0.0000 
      6 C5        -14.4360   18.5600    4.1570 C.2       1 PYZ600      0.0000 
      7 H         -16.2025   17.7092    4.8142 H         1 PYZ600      0.0000 
      8 H         -13.0557   15.9936    3.0044 H         1 PYZ600      0.0000 
      9 H         -14.5198   19.4847    4.3666 H         1 PYZ600      0.0000 
@<TRIPOS>BOND
     1    2    1 1    
     2    6    1 1    
     3    7    1 1    
     4    3    2 2    
     5    4    3 1    
     6    8    3 1    
     7    5    4 1    
     8    6    4 2    
     9    9    6 1    
@<TRIPOS>SUBSTRUCTURE
     1 PYZ600      1 GROUP   
@<TRIPOS>SET

