#    Name: 3mtl_FEF_1_INTS_M
#    Modification time : Mon Mar 24 23:41:54 2014

@<TRIPOS>MOLECULE
3mtl_FEF_1_INTS_M
   68     0     9     0     0
SMALL
NO_CHARGES


@<TRIPOS>ATOM
      1 N          -5.1955  -25.9915   12.3510 N.am      2 SEC2        0.0000 
      2 N          -6.5720  -25.6270   12.5570 N.am      8 SEL2        0.0000 
      3 N          -3.8190  -26.3560   12.1450 N.am      5 SEP2        0.0000 
      4 CA        -11.8190  -20.4965   11.7445 C.3       3 GLC5        0.0000 
      5 CA        -11.3770  -22.5420   11.5980 C.3       9 GLL5        0.0000 
      6 CA        -12.2610  -18.4510   11.8910 C.3       6 GLP5        0.0000 
      7 CA         -7.8350  -22.2510   11.4650 C.3       3 GLC5        0.0000 
      8 CA         -9.2810  -23.7760   11.8170 C.3       9 GLL5        0.0000 
      9 CA         -6.3890  -20.7260   11.1130 C.3       6 GLP5        0.0000 
     10 O          -7.2170  -24.5035   10.2815 O.2       1 ALC1        0.0000 
     11 O          -8.0540  -24.2400   11.5440 O.2       7 ALL1        0.0000 
     12 O          -6.3800  -24.7670    9.0190 O.2       4 ALP1        0.0000 
     13 CA         -8.9600  -27.6030   14.4030 C.3       3 GLC5        0.0000 
     14 CA         -8.4230  -25.7300   14.7620 C.3       9 GLL5        0.0000 
     15 CA         -9.4970  -29.4760   14.0440 C.3       6 GLP5        0.0000 
     16 CA         -7.5245  -24.0635   14.6475 C.3       3 GLC5        0.0000 
     17 CA         -6.6260  -22.3970   14.5330 C.3       6 GLP5        0.0000 
     18 CA         -4.5400  -28.3345   16.4435 C.3       3 GLC5        0.0000 
     19 CA         -6.4340  -27.6060   17.0800 C.3       9 GLL5        0.0000 
     20 CA         -2.6460  -29.0630   15.8070 C.3       6 GLP5        0.0000 
     21 O          -5.9250  -26.7770   14.8750 O.2       1 ALC1        0.0000 
     22 O          -7.2960  -26.3760   15.0830 O.2       7 ALL1        0.0000 
     23 O          -4.5540  -27.1780   14.6670 O.2       4 ALP1        0.0000 
     24 CA        -13.8010  -26.1685   18.3815 C.3       3 GLC5        0.0000 
     25 CA        -13.0650  -24.1690   18.1790 C.3       9 GLL5        0.0000 
     26 CA        -14.5370  -28.1680   18.5840 C.3       6 GLP5        0.0000 
     27 CA        -14.1225  -22.5915   16.9915 C.3       3 GLC5        0.0000 
     28 CA        -15.1800  -21.0140   15.8040 C.3       6 GLP5        0.0000 
     29 CA        -14.8005  -21.9895   17.9440 C.3       3 GLC5        0.0000 
     30 CA        -13.5240  -22.9690   19.0210 C.3       9 GLL5        0.0000 
     31 CA        -16.0770  -21.0100   16.8670 C.3       6 GLP5        0.0000 
     32 CA        -11.5065  -22.6955   21.6860 C.3       3 GLC5        0.0000 
     33 CA        -12.6560  -22.8350   20.2730 C.3       9 GLL5        0.0000 
     34 CA        -10.3570  -22.5560   23.0990 C.3       6 GLP5        0.0000 
     35 CA         -9.2963  -25.7392   11.6028 C.3       3 GLC5        0.0000 
     36 CA         -9.6650  -24.2370   13.0860 C.3       9 GLL5        0.0000 
     37 CA         -9.4450  -26.8240    9.8990 C.3       6 GLP5        0.0000 
     38 CA         -9.9793  -22.1660   14.2123 C.3       3 GLC5        0.0000 
     39 CA         -9.6690  -20.2920   15.0840 C.3       6 GLP5        0.0000 
     40 CA        -12.9050  -24.5143   13.1578 C.3       3 GLC5        0.0000 
     41 CA        -10.9140  -23.8430   13.5950 C.3       9 GLL5        0.0000 
     42 CA        -14.4710  -25.6070   13.0860 C.3       6 GLP5        0.0000 
     43 CA        -10.6197  -21.5315   13.6575 C.3       3 GLC5        0.0000 
     44 CA        -11.7640  -23.0000   12.8640 C.3       9 GLL5        0.0000 
     45 CA         -9.6370  -21.2467   10.7650 C.3       3 GLC5        0.0000 
     46 CA         -8.5170  -19.7530   10.1910 C.3       6 GLP5        0.0000 
     47 CA         -9.5770  -25.0907   10.6738 C.3       3 GLC5        0.0000 
     48 CA        -10.1370  -22.9390   11.0800 C.3       9 GLL5        0.0000 
     49 CA         -9.5895  -23.4477    9.4213 C.3       3 GLC5        0.0000 
     50 CA         -9.4700  -23.5380    7.3940 C.3       6 GLP5        0.0000 
     51 CA         -7.9201  -23.3061   13.5474 C.3       3 GLC5        0.0000 
     52 CA         -9.8455  -28.1055   16.8068 C.3       3 GLC5        0.0000 
     53 CA         -8.5730  -26.4840   16.8860 C.3       9 GLL5        0.0000 
     54 CA        -10.9640  -29.5260   16.0750 C.3       6 GLP5        0.0000 
     55 CA         -7.4780  -24.8060   16.7748 C.3       3 GLC5        0.0000 
     56 CA         -6.9920  -22.9410   16.9420 C.3       6 GLP5        0.0000 
     57 CA         -7.9923  -29.1747   17.4090 C.3       3 GLC5        0.0000 
     58 CA         -7.9570  -27.6170   18.9450 C.3       9 GLL5        0.0000 
     59 CA         -8.6400  -30.5440   16.1520 C.3       6 GLP5        0.0000 
     60 CA         -4.7535  -27.4985   18.4292 C.3       3 GLC5        0.0000 
     61 CA         -6.7320  -27.9940   18.3870 C.3       9 GLL5        0.0000 
     62 CA         -2.9240  -27.1970   19.1250 C.3       6 GLP5        0.0000 
     63 CA         -7.0083  -25.8944   19.5437 C.3       3 GLC5        0.0000 
     64 CA         -6.4410  -24.1660   20.6100 C.3       6 GLP5        0.0000 
     65 CA         -7.7673  -28.8880   16.4282 C.3       3 GLC5        0.0000 
     66 CA        -12.9992  -25.4420   16.5042 C.3       3 GLC5        0.0000 
     67 CA        -11.6400  -24.0010   17.6180 C.3       9 GLL5        0.0000 
     68 CA        -13.6460  -26.7990   15.1100 C.3       6 GLP5        0.0000 
@<TRIPOS>BOND
@<TRIPOS>SUBSTRUCTURE
     1 ALC1       10 GROUP        1 X    ALC  0     ROOT ALC X 1
     2 SEC2        1 GROUP        1 X    SEC  0     **** SEC X 2
     3 GLC5        4 GROUP        1 X    GLC  0     **** GLC X 6
     4 ALP1       12 GROUP        1 Y    ALP  0     ROOT ALP Y 8
     5 SEP2        3 GROUP        1 Y    SEP  0     **** SEP Y 9
     6 GLP5        6 GROUP        1 Y    GLP  0     **** GLP Y 13
     7 ALL1       11 GROUP        1 Z    ALL  0     ROOT ALL Z 15
     8 SEL2        2 GROUP        1 Z    SEL  0     **** SEL Z 16
     9 GLL5        5 GROUP        1 Z    GLL  0     **** GLL Z 20
@<TRIPOS>SET

