#    Name: 3mtl_FEF_1_ligand
#    Modification time : Mon Mar 24 23:41:54 2014

@<TRIPOS>MOLECULE
3mtl_FEF_1_ligand
   46    49     1     0     0
SMALL
NO_CHARGES


@<TRIPOS>ATOM
      1 OAV        -6.5720  -25.6270   12.5570 O.2       1 FEF668      0.0000 
      2 CAT        -7.6770  -25.0690   12.5090 C.2       1 FEF668      0.0000 
      3 CAR        -8.6300  -25.0720   13.5270 C.2       1 FEF668      0.0000 
      4 CAS        -9.6650  -24.2370   13.0860 C.ar      1 FEF668      0.0000 
      5 CAX       -10.9140  -23.8430   13.5950 C.ar      1 FEF668      0.0000 
      6 CAY       -11.7640  -23.0000   12.8640 C.ar      1 FEF668      0.0000 
      7 CAZ       -11.3770  -22.5420   11.5980 C.ar      1 FEF668      0.0000 
      8 CBA       -10.1370  -22.9390   11.0800 C.ar      1 FEF668      0.0000 
      9 CAW        -9.2810  -23.7760   11.8170 C.ar      1 FEF668      0.0000 
     10 NAU        -8.0540  -24.2400   11.5440 N.am      1 FEF668      0.0000 
     11 CAI        -8.4230  -25.7300   14.7620 C.2       1 FEF668      0.0000 
     12 CAG        -9.2380  -25.7470   15.9040 C.2       1 FEF668      0.0000 
     13 CAD        -8.5730  -26.4840   16.8860 C.ar      1 FEF668      0.0000 
     14 CAC        -8.8810  -26.8860   18.1910 C.ar      1 FEF668      0.0000 
     15 CAA        -7.9570  -27.6170   18.9450 C.ar      1 FEF668      0.0000 
     16 CAB        -6.7320  -27.9940   18.3870 C.ar      1 FEF668      0.0000 
     17 CAF        -6.4340  -27.6060   17.0800 C.ar      1 FEF668      0.0000 
     18 CAE        -7.3550  -26.8580   16.3290 C.ar      1 FEF668      0.0000 
     19 NAH        -7.2960  -26.3760   15.0830 N.pl3     1 FEF668      0.0000 
     20 NAJ       -10.4660  -25.2310   16.0350 N.2       1 FEF668      0.0000 
     21 OAK       -11.1740  -25.2950   17.2000 O.3       1 FEF668      0.0000 
     22 CAL       -11.6400  -24.0010   17.6180 C.3       1 FEF668      0.0000 
     23 CAM       -13.0650  -24.1690   18.1790 C.3       1 FEF668      0.0000 
     24 CAN       -13.5240  -22.9690   19.0210 C.3       1 FEF668      0.0000 
     25 OAQ       -14.8910  -23.1390   19.4090 O.3       1 FEF668      0.0000 
     26 CAO       -12.6560  -22.8350   20.2730 C.3       1 FEF668      0.0000 
     27 OAP       -12.7960  -23.9960   21.0920 O.3       1 FEF668      0.0000 
     28 H         -11.2107  -24.1808   14.5245 H         1 FEF668      0.0000 
     29 H         -12.6678  -22.7197   13.2568 H         1 FEF668      0.0000 
     30 H         -11.9881  -21.9291   11.0615 H         1 FEF668      0.0000 
     31 H          -9.8467  -22.6141   10.1463 H         1 FEF668      0.0000 
     32 H          -7.5268  -24.0012   10.7572 H         1 FEF668      0.0000 
     33 H          -9.7937  -26.6418   18.5981 H         1 FEF668      0.0000 
     34 H          -8.1802  -27.8780   19.9138 H         1 FEF668      0.0000 
     35 H          -6.0661  -28.5449   18.9283 H         1 FEF668      0.0000 
     36 H          -5.5320  -27.8686   16.6593 H         1 FEF668      0.0000 
     37 H          -6.5223  -26.4826   14.4787 H         1 FEF668      0.0000 
     38 H         -11.6905  -23.3005   16.7894 H         1 FEF668      0.0000 
     39 H         -11.0210  -23.5815   18.4058 H         1 FEF668      0.0000 
     40 H         -13.0981  -25.0731   18.7973 H         1 FEF668      0.0000 
     41 H         -13.7607  -24.3066   17.3436 H         1 FEF668      0.0000 
     42 H         -13.3963  -22.0761   18.4277 H         1 FEF668      0.0000 
     43 H         -12.9693  -21.9250   20.7999 H         1 FEF668      0.0000 
     44 H         -11.6187  -22.6905   19.9456 H         1 FEF668      0.0000 
     45 H         -14.8626  -23.7632   20.1898 H         1 FEF668      0.0000 
     46 H         -11.8951  -24.4299   21.0819 H         1 FEF668      0.0000 
@<TRIPOS>BOND
     1    2    1 2    
     2    3    2 1    
     3   10    2 am   
     4    4    3 1    
     5   11    3 2    
     6    5    4 ar   
     7    9    4 ar   
     8    6    5 ar   
     9   28    5 1    
    10    7    6 ar   
    11   29    6 1    
    12    8    7 ar   
    13   30    7 1    
    14    9    8 ar   
    15   31    8 1    
    16   10    9 1    
    17   32   10 1    
    18   12   11 1    
    19   19   11 1    
    20   13   12 1    
    21   20   12 2    
    22   14   13 ar   
    23   18   13 ar   
    24   15   14 ar   
    25   33   14 1    
    26   16   15 ar   
    27   34   15 1    
    28   17   16 ar   
    29   35   16 1    
    30   18   17 ar   
    31   36   17 1    
    32   19   18 1    
    33   37   19 1    
    34   21   20 1    
    35   22   21 1    
    36   23   22 1    
    37   38   22 1    
    38   39   22 1    
    39   24   23 1    
    40   40   23 1    
    41   41   23 1    
    42   25   24 1    
    43   26   24 1    
    44   42   24 1    
    45   45   25 1    
    46   27   26 1    
    47   43   26 1    
    48   44   26 1    
    49   46   27 1    
@<TRIPOS>SUBSTRUCTURE
     1 FEF668      1 GROUP   
@<TRIPOS>SET

