#    Name: 4eil_CB3_11_INTS_M
#    Modification time : Mon Mar 24 17:57:47 2014

@<TRIPOS>MOLECULE
4eil_CB3_11_INTS_M
   72     0    12     0     0
SMALL
NO_CHARGES


@<TRIPOS>ATOM
      1 O          16.6260  -53.6255   43.8820 O.2       1 ALC1        0.0000 
      2 O          15.3530  -54.0880   44.1880 O.2       9 ALL1        0.0000 
      3 O          17.8990  -53.1630   43.5760 O.2       5 ALP1        0.0000 
      4 N          12.9920  -53.4905   45.4845 N.am      2 SEC2        0.0000 
      5 N          13.1260  -53.3790   44.1240 N.am     10 SEL2        0.0000 
      6 N          12.8580  -53.6020   46.8450 N.am      6 SEP2        0.0000 
      7 CA         12.2015  -51.0745   43.7065 C.3       4 GLC5        0.0000 
      8 CA         12.2780  -52.4560   42.0740 C.3      12 GLL5        0.0000 
      9 CA         12.1250  -49.6930   45.3390 C.3       8 GLP5        0.0000 
     10 CA         13.9490  -51.2720   42.7045 C.3       4 GLC5        0.0000 
     11 CA         15.6200  -50.0880   43.3350 C.3       8 GLP5        0.0000 
     12 CA         12.7915  -54.3550   42.1100 C.3       4 GLC5        0.0000 
     13 CA         13.5250  -52.6540   41.5030 C.3      12 GLL5        0.0000 
     14 CA         12.0580  -56.0560   42.7170 C.3       8 GLP5        0.0000 
     15 CA         10.2575  -48.7930   38.8985 C.3       4 GLC5        0.0000 
     16 CA         10.3960  -50.9160   39.2090 C.3      12 GLL5        0.0000 
     17 CA         10.1190  -46.6700   38.5880 C.3       8 GLP5        0.0000 
     18 CA         10.3625  -51.7265   37.5355 C.3       4 GLC5        0.0000 
     19 CA         10.3290  -52.5370   35.8620 C.3       8 GLP5        0.0000 
     20 CA          9.9230  -48.6070   44.4465 C.3       4 GLC5        0.0000 
     21 CA          8.9650  -47.7050   42.7070 C.3      12 GLL5        0.0000 
     22 CA         10.8810  -49.5090   46.1860 C.3       8 GLP5        0.0000 
     23 CA          6.7120  -49.3680   42.4730 C.3       4 GLC5        0.0000 
     24 CA          8.6640  -48.6740   41.7440 C.3      12 GLL5        0.0000 
     25 CA          4.7600  -50.0620   43.2020 C.3       8 GLP5        0.0000 
     26 CA         11.7920  -46.6345   45.7915 C.3       4 GLC5        0.0000 
     27 CA         12.7400  -45.1360   44.7490 C.3      12 GLL5        0.0000 
     28 CA         10.8440  -48.1330   46.8340 C.3       8 GLP5        0.0000 
     29 CA         14.2275  -46.6660   42.6460 C.3       4 GLC5        0.0000 
     30 CA         13.9880  -44.8080   43.8920 C.3      12 GLL5        0.0000 
     31 CA         14.4670  -48.5240   41.4000 C.3       8 GLP5        0.0000 
     32 N          14.8915  -43.4670   47.8320 N.am      2 SEC2        0.0000 
     33 N          15.1670  -44.6850   46.8350 N.am     10 SEL2        0.0000 
     34 N          14.6160  -42.2490   48.8290 N.am      6 SEP2        0.0000 
     35 NZ         17.8915  -45.3025   44.3340 N.4       3 LYC4        0.0000 
     36 NZ         16.7580  -45.4360   45.4670 N.4      11 LYL4        0.0000 
     37 NZ         19.0250  -45.1690   43.2010 N.4       7 LYP4        0.0000 
     38 N          17.8915  -45.3025   44.3340 N.am      2 SEC2        0.0000 
     39 N          16.7580  -45.4360   45.4670 N.am     10 SEL2        0.0000 
     40 N          19.0250  -45.1690   43.2010 N.am      6 SEP2        0.0000 
     41 N          16.6175  -46.8475   46.0205 N.am      2 SEC2        0.0000 
     42 N          16.4770  -48.2590   46.5740 N.am      6 SEP2        0.0000 
     43 CA          8.0265  -48.9425   38.5235 C.3       4 GLC5        0.0000 
     44 CA          7.9940  -50.5920   39.7770 C.3      12 GLL5        0.0000 
     45 CA          8.0590  -47.2930   37.2700 C.3       8 GLP5        0.0000 
     46 CA         11.3610  -53.8285   41.1812 C.3       4 GLC5        0.0000 
     47 CA         11.2460  -51.9040   41.3150 C.3      12 GLL5        0.0000 
     48 CA         10.9600  -55.4770   40.6680 C.3       8 GLP5        0.0000 
     49 CA         13.2637  -50.0715   40.5502 C.3       4 GLC5        0.0000 
     50 CA         11.4310  -51.5210   39.9800 C.3      12 GLL5        0.0000 
     51 CA         10.4047  -53.2283   39.7073 C.3       4 GLC5        0.0000 
     52 CA          9.8960  -55.2380   39.8200 C.3       8 GLP5        0.0000 
     53 CA         12.0830  -53.7382   40.2332 C.3       4 GLC5        0.0000 
     54 CA         12.6900  -51.7170   39.4210 C.3      12 GLL5        0.0000 
     55 CA         14.6973  -51.0925   41.2078 C.3       4 GLC5        0.0000 
     56 CA         13.7220  -52.2820   40.1760 C.3      12 GLL5        0.0000 
     57 CA         15.7710  -49.7170   41.5760 C.3       8 GLP5        0.0000 
     58 CA          9.2063  -46.8959   40.8329 C.3       4 GLC5        0.0000 
     59 CA         10.2690  -47.2420   42.8720 C.3      12 GLL5        0.0000 
     60 CA          9.2720  -45.7180   39.3990 C.3       8 GLP5        0.0000 
     61 CA         11.4962  -48.9243   43.5825 C.3       4 GLC5        0.0000 
     62 CA         10.9670  -48.7830   41.1630 C.3      12 GLL5        0.0000 
     63 CA         12.7920  -48.4112   41.5172 C.3       4 GLC5        0.0000 
     64 CA         11.2670  -47.8140   42.1060 C.3      12 GLL5        0.0000 
     65 CA         10.4564  -47.5443   40.0886 C.3       4 GLC5        0.0000 
     66 CA          7.6280  -52.4447   43.0438 C.3       4 GLC5        0.0000 
     67 CA          7.5220  -51.5930   40.7350 C.3      12 GLL5        0.0000 
     68 CA          7.9190  -52.9100   44.9860 C.3       8 GLP5        0.0000 
     69 CA          8.6165  -53.6088   40.4608 C.3       4 GLC5        0.0000 
     70 CA          7.1520  -52.3660   41.4680 C.3      12 GLL5        0.0000 
     71 CA          6.0545  -50.7031   40.8010 C.3       4 GLC5        0.0000 
     72 CA          4.6540  -49.6770   40.7400 C.3       8 GLP5        0.0000 
@<TRIPOS>BOND
@<TRIPOS>SUBSTRUCTURE
     1 ALC1        1 GROUP        1 X    ALC  0     ROOT ALC X 1
     2 SEC2        4 GROUP        1 X    SEC  0     **** SEC X 2
     3 LYC4       35 GROUP        1 X    LYC  0     **** LYC X 4
     4 GLC5        7 GROUP        1 X    GLC  0     **** GLC X 6
     5 ALP1        3 GROUP        1 Y    ALP  0     ROOT ALP Y 8
     6 SEP2        6 GROUP        1 Y    SEP  0     **** SEP Y 9
     7 LYP4       37 GROUP        1 Y    LYP  0     **** LYP Y 11
     8 GLP5        9 GROUP        1 Y    GLP  0     **** GLP Y 13
     9 ALL1        2 GROUP        1 Z    ALL  0     ROOT ALL Z 15
    10 SEL2        5 GROUP        1 Z    SEL  0     **** SEL Z 16
    11 LYL4       36 GROUP        1 Z    LYL  0     **** LYL Z 18
    12 GLL5        8 GROUP        1 Z    GLL  0     **** GLL Z 20
@<TRIPOS>SET

