#    Name: 4eil_CB3_11_ligand
#    Modification time : Mon Mar 24 17:57:48 2014

@<TRIPOS>MOLECULE
4eil_CB3_11_ligand
   55    57     1     0     0
SMALL
NO_CHARGES


@<TRIPOS>ATOM
      1 N1         14.5280  -53.1990   42.2140 N.pl3     1 CB3702      0.0000 
      2 C2         14.3560  -53.5600   43.4970 C.2       1 CB3702      0.0000 
      3 NA2        15.3530  -54.0880   44.1880 N.pl3     1 CB3702      0.0000 
      4 N3         13.1260  -53.3790   44.1240 N.2       1 CB3702      0.0000 
      5 C4         12.0730  -52.8230   43.4030 C.2       1 CB3702      0.0000 
      6 O4         10.9870  -52.6790   43.9540 O.2       1 CB3702      0.0000 
      7 C4A        12.2780  -52.4560   42.0740 C.ar      1 CB3702      0.0000 
      8 C5         11.2460  -51.9040   41.3150 C.ar      1 CB3702      0.0000 
      9 C6         11.4310  -51.5210   39.9800 C.ar      1 CB3702      0.0000 
     10 C7         12.6900  -51.7170   39.4210 C.ar      1 CB3702      0.0000 
     11 C8         13.7220  -52.2820   40.1760 C.ar      1 CB3702      0.0000 
     12 C8A        13.5250  -52.6540   41.5030 C.ar      1 CB3702      0.0000 
     13 C9         10.3960  -50.9160   39.2090 C.3       1 CB3702      0.0000 
     14 N10         9.3880  -50.2210   40.0660 N.pl3     1 CB3702      0.0000 
     15 C11        10.2690  -47.2420   42.8720 C.ar      1 CB3702      0.0000 
     16 C12         8.9650  -47.7050   42.7070 C.ar      1 CB3702      0.0000 
     17 C13         8.6640  -48.6740   41.7440 C.ar      1 CB3702      0.0000 
     18 C14         9.6740  -49.2630   40.9820 C.ar      1 CB3702      0.0000 
     19 C15        10.9670  -48.7830   41.1630 C.ar      1 CB3702      0.0000 
     20 C16        11.2670  -47.8140   42.1060 C.ar      1 CB3702      0.0000 
     21 C          10.6220  -46.2900   43.8350 C.2       1 CB3702      0.0000 
     22 O           9.7800  -45.8200   44.5950 O.2       1 CB3702      0.0000 
     23 N          11.9500  -46.0600   43.8860 N.am      1 CB3702      0.0000 
     24 CA         12.7400  -45.1360   44.7490 C.3       1 CB3702      0.0000 
     25 CB         13.9880  -44.8080   43.8920 C.3       1 CB3702      0.0000 
     26 CG         15.1060  -43.9820   44.5530 C.3       1 CB3702      0.0000 
     27 CD         15.7270  -44.7680   45.7210 C.2       1 CB3702      0.0000 
     28 OE1        15.1670  -44.6850   46.8350 O.co2     1 CB3702      0.0000 
     29 OE2        16.7580  -45.4360   45.4670 O.co2     1 CB3702      0.0000 
     30 CT         11.9910  -43.8460   45.2300 C.2       1 CB3702      0.0000 
     31 O1         12.5870  -43.1320   46.0670 O.co2     1 CB3702      0.0000 
     32 O2         10.8560  -43.5810   44.7730 O.co2     1 CB3702      0.0000 
     33 CP1         7.9940  -50.5920   39.7770 C.3       1 CB3702      0.0000 
     34 CP2         7.5220  -51.5930   40.7350 C.1       1 CB3702      0.0000 
     35 CP3         7.1520  -52.3660   41.4680 C.1       1 CB3702      0.0000 
     36 H          15.4641  -53.3452   41.7571 H         1 CB3702      0.0000 
     37 H          15.0954  -54.7173   44.9212 H         1 CB3702      0.0000 
     38 H          16.2738  -53.8099   43.9145 H         1 CB3702      0.0000 
     39 H          10.3113  -51.7718   41.7502 H         1 CB3702      0.0000 
     40 H          12.8661  -51.4444   38.4428 H         1 CB3702      0.0000 
     41 H          14.6491  -52.4254   39.7379 H         1 CB3702      0.0000 
     42 H           9.8660  -51.6713   38.5923 H         1 CB3702      0.0000 
     43 H          10.8129  -50.1767   38.4940 H         1 CB3702      0.0000 
     44 H           8.2095  -47.3294   43.3021 H         1 CB3702      0.0000 
     45 H           7.6824  -48.9558   41.5963 H         1 CB3702      0.0000 
     46 H          11.7338  -49.1670   40.5679 H         1 CB3702      0.0000 
     47 H          12.2499  -47.5159   42.2375 H         1 CB3702      0.0000 
     48 H          12.5960  -46.6208   43.1992 H         1 CB3702      0.0000 
     49 H          13.0993  -45.6827   45.6169 H         1 CB3702      0.0000 
     50 H          13.6487  -44.2748   42.9736 H         1 CB3702      0.0000 
     51 H          14.4233  -45.7683   43.5299 H         1 CB3702      0.0000 
     52 H          14.6902  -43.0543   44.9279 H         1 CB3702      0.0000 
     53 H          15.8734  -43.7680   43.8185 H         1 CB3702      0.0000 
     54 H           7.9218  -50.9893   38.7532 H         1 CB3702      0.0000 
     55 H           7.3556  -49.6967   39.8248 H         1 CB3702      0.0000 
@<TRIPOS>BOND
     1    2    1 1    
     2   12    1 1    
     3   36    1 1    
     4    3    2 1    
     5    4    2 2    
     6   37    3 1    
     7   38    3 1    
     8    5    4 1    
     9    6    5 2    
    10    7    5 1    
    11    8    7 ar   
    12   12    7 ar   
    13    9    8 ar   
    14   39    8 1    
    15   10    9 ar   
    16   13    9 1    
    17   11   10 ar   
    18   40   10 1    
    19   12   11 ar   
    20   41   11 1    
    21   14   13 1    
    22   42   13 1    
    23   43   13 1    
    24   18   14 1    
    25   33   14 1    
    26   16   15 ar   
    27   20   15 ar   
    28   21   15 1    
    29   17   16 ar   
    30   44   16 1    
    31   18   17 ar   
    32   45   17 1    
    33   19   18 ar   
    34   20   19 ar   
    35   46   19 1    
    36   47   20 1    
    37   22   21 2    
    38   23   21 am   
    39   24   23 1    
    40   48   23 1    
    41   25   24 1    
    42   30   24 1    
    43   49   24 1    
    44   26   25 1    
    45   50   25 1    
    46   51   25 1    
    47   27   26 1    
    48   52   26 1    
    49   53   26 1    
    50   28   27 ar   
    51   29   27 ar   
    52   31   30 ar   
    53   32   30 ar   
    54   34   33 1    
    55   54   33 1    
    56   55   33 1    
    57   35   34 3    
@<TRIPOS>SUBSTRUCTURE
     1 CB3702      1 GROUP   
@<TRIPOS>SET

