#    Name: 4ba5_PXG_1_INTS_M
#    Modification time : Tue Mar 25 07:09:10 2014

@<TRIPOS>MOLECULE
4ba5_PXG_1_INTS_M
   53     0     9     0     0
SMALL
NO_CHARGES


@<TRIPOS>ATOM
      1 N          55.1860    1.1290    5.2125 N.am      1 SEC2        0.0000 
      2 N          54.2230    0.7870    4.3500 N.am      7 SEL2        0.0000 
      3 N          56.1490    1.4710    6.0750 N.am      4 SEP2        0.0000 
      4 CA         53.8190    2.4665    4.7720 C.3       3 GLC5        0.0000 
      5 CA         54.4920    1.2800    3.1150 C.3       9 GLL5        0.0000 
      6 CA         53.1460    3.6530    6.4290 C.3       6 GLP5        0.0000 
      7 CA         57.2060    3.0415    3.1825 C.3       3 GLC5        0.0000 
      8 CA         55.8480    1.9140    2.8540 C.3       9 GLL5        0.0000 
      9 CA         58.5640    4.1690    3.5110 C.3       6 GLP5        0.0000 
     10 CA         53.5165    0.1185    6.7630 C.3       3 GLC5        0.0000 
     11 CA         53.0700    0.1930    4.6630 C.3       9 GLL5        0.0000 
     12 CA         53.9630    0.0440    8.8630 C.3       6 GLP5        0.0000 
     13 CA         53.1080    1.9230    5.5460 C.3       3 GLC5        0.0000 
     14 CA         54.1830   -1.2665    4.5985 C.3       3 GLC5        0.0000 
     15 CA         55.2960   -2.7260    4.5340 C.3       6 GLP5        0.0000 
     16 CA         51.2690   -2.2830    5.0040 C.3       3 GLC5        0.0000 
     17 CA         50.7790   -0.6250    4.0940 C.3       9 GLL5        0.0000 
     18 CA         51.7590   -3.9410    5.9140 C.3       6 GLP5        0.0000 
     19 CA         50.0540   -1.1110    5.9105 C.3       3 GLC5        0.0000 
     20 CA         49.3290   -1.5970    7.7270 C.3       6 GLP5        0.0000 
     21 N          49.2260   -2.6035    5.5945 N.am      1 SEC2        0.0000 
     22 N          48.5020   -2.6320    4.3930 N.am      7 SEL2        0.0000 
     23 N          49.9500   -2.5750    6.7960 N.am      4 SEP2        0.0000 
     24 N          48.2510   -1.5800    5.2040 N.am      1 SEC2        0.0000 
     25 N          48.0000   -0.5280    6.0150 N.am      4 SEP2        0.0000 
     26 N          50.3310   -4.5245    4.2425 N.am      1 SEC2        0.0000 
     27 N          49.9420   -4.1250    2.9270 N.am      7 SEL2        0.0000 
     28 N          50.7200   -4.9240    5.5580 N.am      4 SEP2        0.0000 
     29 CA         50.7165    2.0660    1.8740 C.3       3 GLC5        0.0000 
     30 CA         51.2050    0.4440    1.3380 C.3       9 GLL5        0.0000 
     31 CA         50.2280    3.6880    2.4100 C.3       6 GLP5        0.0000 
     32 NZ         50.0855    4.5390   -4.9765 N.4       2 LYC4        0.0000 
     33 NZ         51.1190    3.9750   -3.4490 N.4       8 LYL4        0.0000 
     34 NZ         49.0520    5.1030   -6.5040 N.4       5 LYP4        0.0000 
     35 CA         53.6220    1.3830   -1.8520 C.3       3 GLC5        0.0000 
     36 CA         51.5720    1.3840   -1.7940 C.3       9 GLL5        0.0000 
     37 CA         55.6720    1.3820   -1.9100 C.3       6 GLP5        0.0000 
     38 CA         50.7815   -2.3165   -3.8090 C.3       3 GLC5        0.0000 
     39 CA         49.9400   -0.5380   -3.0070 C.3       9 GLL5        0.0000 
     40 CA         51.6230   -4.0950   -4.6110 C.3       6 GLP5        0.0000 
     41 NZ         50.1090    3.8900   -5.8475 N.4       2 LYC4        0.0000 
     42 NZ         51.1660    2.6770   -5.1910 N.4       8 LYL4        0.0000 
     43 CA         55.3900   -0.2760    3.0667 C.3       3 GLC5        0.0000 
     44 CA         55.6100   -2.1490    3.1490 C.3       6 GLP5        0.0000 
     45 CA         52.9093   -1.3207    3.0585 C.3       3 GLC5        0.0000 
     46 CA         52.0640    0.0680    3.6980 C.3       9 GLL5        0.0000 
     47 CA         54.3970   -2.3630    2.2210 C.3       6 GLP5        0.0000 
     48 CA         50.6870    1.0209    4.9346 C.3       3 GLC5        0.0000 
     49 CA         49.7010    2.2890    5.7320 C.3       6 GLP5        0.0000 
     50 CA         53.2266   -0.8518    2.0115 C.3       3 GLC5        0.0000 
     51 CA         52.0700    0.5447   -4.7365 C.3       3 GLC5        0.0000 
     52 CA         51.0270    1.6050   -3.0870 C.3       9 GLL5        0.0000 
     53 CA         53.5220   -0.0340   -6.0950 C.3       6 GLP5        0.0000 
@<TRIPOS>BOND
@<TRIPOS>SUBSTRUCTURE
     1 SEC2        1 GROUP        1 X    SEC  0     ROOT SEC X 2
     2 LYC4       32 GROUP        1 X    LYC  0     **** LYC X 4
     3 GLC5        4 GROUP        1 X    GLC  0     **** GLC X 6
     4 SEP2        3 GROUP        1 Y    SEP  0     ROOT SEP Y 9
     5 LYP4       34 GROUP        1 Y    LYP  0     **** LYP Y 11
     6 GLP5        6 GROUP        1 Y    GLP  0     **** GLP Y 13
     7 SEL2        2 GROUP        1 Z    SEL  0     ROOT SEL Z 16
     8 LYL4       33 GROUP        1 Z    LYL  0     **** LYL Z 18
     9 GLL5        5 GROUP        1 Z    GLL  0     **** GLL Z 20
@<TRIPOS>SET

