#    Name: 4ba5_PXG_1_ligand
#    Modification time : Tue Mar 25 07:09:11 2014

@<TRIPOS>MOLECULE
4ba5_PXG_1_ligand
   39    40     1     0     0
SMALL
NO_CHARGES


@<TRIPOS>ATOM
      1 N1         54.2230    0.7870    4.3500 N.ar      1 PXG470      0.0000 
      2 C2         54.4920    1.2800    3.1150 C.ar      1 PXG470      0.0000 
      3 C2A        55.8480    1.9140    2.8540 C.3       1 PXG470      0.0000 
      4 C3         53.5210    1.1890    2.1250 C.ar      1 PXG470      0.0000 
      5 O3         53.7910    1.7090    0.8930 O.3       1 PXG470      0.0000 
      6 C5         52.0640    0.0680    3.6980 C.ar      1 PXG470      0.0000 
      7 C6         53.0700    0.1930    4.6630 C.ar      1 PXG470      0.0000 
      8 C5A        50.7790   -0.6250    4.0940 C.3       1 PXG470      0.0000 
      9 OP4        50.8070   -1.9570    3.5680 O.3       1 PXG470      0.0000 
     10 P          49.4440   -2.7360    3.1960 P.3       1 PXG470      0.0000 
     11 OP1        48.5020   -2.6320    4.3930 O.co2     1 PXG470      0.0000 
     12 OP2        48.9600   -1.9940    1.9930 O.co2     1 PXG470      0.0000 
     13 OP3        49.9420   -4.1250    2.9270 O.co2     1 PXG470      0.0000 
     14 C4         52.2940    0.5610    2.4070 C.ar      1 PXG470      0.0000 
     15 C4A        51.2050    0.4440    1.3380 C.3       1 PXG470      0.0000 
     16 C7         51.1600    2.8270   -3.9450 C.2       1 PXG470      0.0000 
     17 C8         51.0270    1.6050   -3.0870 C.ar      1 PXG470      0.0000 
     18 O2         51.1190    3.9750   -3.4490 O.co2     1 PXG470      0.0000 
     19 C9         51.5720    1.3840   -1.7940 C.ar      1 PXG470      0.0000 
     20 C10        51.2720    0.1760   -1.1220 C.ar      1 PXG470      0.0000 
     21 C11        50.4770   -0.7540   -1.7470 C.ar      1 PXG470      0.0000 
     22 C12        49.9400   -0.5380   -3.0070 C.ar      1 PXG470      0.0000 
     23 C13        50.2090    0.6420   -3.6690 C.ar      1 PXG470      0.0000 
     24 O8         51.1660    2.6770   -5.1910 O.co2     1 PXG470      0.0000 
     25 N9         51.7440   -0.1640    0.1140 N.pl3     1 PXG470      0.0000 
     26 H          52.8910   -0.1849    5.6111 H         1 PXG470      0.0000 
     27 H          49.9420   -0.0520    3.6921 H         1 PXG470      0.0000 
     28 H          50.7102   -0.6246    5.1828 H         1 PXG470      0.0000 
     29 H          50.8156    1.4462    1.1337 H         1 PXG470      0.0000 
     30 H          50.3889   -0.1615    1.7444 H         1 PXG470      0.0000 
     31 H          52.1650    2.0812   -1.3628 H         1 PXG470      0.0000 
     32 H          50.2667   -1.6567   -1.2607 H         1 PXG470      0.0000 
     33 H          49.3455   -1.2547   -3.4424 H         1 PXG470      0.0000 
     34 H          49.8031    0.8164   -4.6026 H         1 PXG470      0.0000 
     35 H          52.4960   -0.8596    0.2374 H         1 PXG470      0.0000 
     36 H          56.5959    1.2688    3.0102 H         1 PXG470      0.0000 
     37 H          55.9317    2.2371    1.9113 H         1 PXG470      0.0000 
     38 H          56.0107    2.7010    3.4491 H         1 PXG470      0.0000 
     39 H          54.2109    2.5983    1.0739 H         1 PXG470      0.0000 
@<TRIPOS>BOND
     1    2    1 ar   
     2    7    1 ar   
     3    3    2 1    
     4    4    2 ar   
     5   36    3 1    
     6   37    3 1    
     7   38    3 1    
     8    5    4 1    
     9   14    4 ar   
    10   39    5 1    
    11    7    6 ar   
    12    8    6 1    
    13   14    6 ar   
    14   26    7 1    
    15    9    8 1    
    16   27    8 1    
    17   28    8 1    
    18   10    9 1    
    19   11   10 ar   
    20   12   10 ar   
    21   13   10 ar   
    22   15   14 1    
    23   25   15 1    
    24   29   15 1    
    25   30   15 1    
    26   17   16 1    
    27   18   16 ar   
    28   24   16 ar   
    29   19   17 ar   
    30   23   17 ar   
    31   20   19 ar   
    32   31   19 1    
    33   21   20 ar   
    34   25   20 1    
    35   22   21 ar   
    36   32   21 1    
    37   23   22 ar   
    38   33   22 1    
    39   34   23 1    
    40   35   25 1    
@<TRIPOS>SUBSTRUCTURE
     1 PXG470      1 GROUP   
@<TRIPOS>SET

