#    Name: 3h3r_14H_1_INTS_M
#    Modification time : Tue Mar 25 13:32:40 2014

@<TRIPOS>MOLECULE
3h3r_14H_1_INTS_M
   88     0     9     0     0
SMALL
NO_CHARGES


@<TRIPOS>ATOM
      1 N           9.7450    1.5590   34.3450 N.am      2 SEC2        0.0000 
      2 N           8.6530    1.2990   33.6910 N.am      8 SEL2        0.0000 
      3 N          10.8370    1.8190   34.9990 N.am      5 SEP2        0.0000 
      4 O           6.8460    2.2085   30.5585 O.2       1 ALC1        0.0000 
      5 O           7.2830    1.2600   31.7930 O.2       7 ALL1        0.0000 
      6 O           6.4090    3.1570   29.3240 O.2       4 ALP1        0.0000 
      7 CA          6.3935    0.2905   33.9020 C.3       3 GLC5        0.0000 
      8 CA          6.5530   -0.0170   31.8410 C.3       9 GLL5        0.0000 
      9 CA          6.2340    0.5980   35.9630 C.3       6 GLP5        0.0000 
     10 CA          3.6900    0.8765   30.3900 C.3       3 GLC5        0.0000 
     11 CA          5.2450    0.1620   31.0620 C.3       9 GLL5        0.0000 
     12 CA          2.1350    1.5910   29.7180 C.3       6 GLP5        0.0000 
     13 CA          4.6295    1.9105   31.9760 C.3       3 GLC5        0.0000 
     14 CA          4.0140    3.6590   32.8900 C.3       6 GLP5        0.0000 
     15 N           6.2660   -0.3735   28.5630 N.am      2 SEC2        0.0000 
     16 N           5.5760    0.4800   29.6920 N.am      8 SEL2        0.0000 
     17 N           6.9560   -1.2270   27.4340 N.am      5 SEP2        0.0000 
     18 O           5.9925    1.8185   29.5080 O.2       1 ALC1        0.0000 
     19 O           5.5760    0.4800   29.6920 O.2       7 ALL1        0.0000 
     20 CA          6.3980   -2.6945   30.5345 C.3       3 GLC5        0.0000 
     21 CA          7.3500   -1.1480   31.1770 C.3       9 GLL5        0.0000 
     22 CA          5.4460   -4.2410   29.8920 C.3       6 GLP5        0.0000 
     23 N           7.4840   -2.3000   33.7730 N.am      2 SEC2        0.0000 
     24 N           8.6610   -1.6580   33.2310 N.am      8 SEL2        0.0000 
     25 N           6.3070   -2.9420   34.3150 N.am      5 SEP2        0.0000 
     26 CA          6.6150    4.0255   32.3885 C.3       3 GLC5        0.0000 
     27 CA          8.6680    3.1380   32.1770 C.3       9 GLL5        0.0000 
     28 CA          4.5620    4.9130   32.6000 C.3       6 GLP5        0.0000 
     29 CA          7.8060    4.3300   33.6285 C.3       3 GLC5        0.0000 
     30 CA          6.9440    5.5220   35.0800 C.3       6 GLP5        0.0000 
     31 CA         10.5430    2.7620   34.1910 C.3       3 GLC5        0.0000 
     32 CA         10.1700    3.3330   32.0660 C.3       9 GLL5        0.0000 
     33 CA         10.9160    2.1910   36.3160 C.3       6 GLP5        0.0000 
     34 CA          9.9060    4.7370   33.4870 C.3       3 GLC5        0.0000 
     35 CA          9.6420    6.1410   34.9080 C.3       6 GLP5        0.0000 
     36 CA          9.5680    5.7630   32.7495 C.3       3 GLC5        0.0000 
     37 CA         10.3860    4.6790   31.3830 C.3       9 GLL5        0.0000 
     38 CA          8.7500    6.8470   34.1160 C.3       6 GLP5        0.0000 
     39 CA         12.9505    6.7355   30.2070 C.3       3 GLC5        0.0000 
     40 CA         11.8300    4.9970   30.9570 C.3       9 GLL5        0.0000 
     41 CA         14.0710    8.4740   29.4570 C.3       6 GLP5        0.0000 
     42 CA         10.5515    6.4615   32.0580 C.3       3 GLC5        0.0000 
     43 CA          9.2730    7.9260   33.1590 C.3       6 GLP5        0.0000 
     44 CA         13.9035    6.4340   29.4335 C.3       3 GLC5        0.0000 
     45 CA         13.7360    4.3940   29.4100 C.3       9 GLL5        0.0000 
     46 CA         14.4315    3.8460   31.1585 C.3       3 GLC5        0.0000 
     47 CA         15.1270    3.2980   32.9070 C.3       6 GLP5        0.0000 
     48 CA         15.6130   -1.5140   27.7920 C.3       3 GLC5        0.0000 
     49 CA         14.4060   -1.0240   26.2110 C.3       9 GLL5        0.0000 
     50 CA         16.8200   -2.0040   29.3730 C.3       6 GLP5        0.0000 
     51 CA         11.6630   -1.3425   25.6145 C.3       3 GLC5        0.0000 
     52 CA         13.2930   -2.0430   26.4120 C.3       9 GLL5        0.0000 
     53 CA         10.0330   -0.6420   24.8170 C.3       6 GLP5        0.0000 
     54 CA         11.9785   -3.6470   26.3080 C.3       3 GLC5        0.0000 
     55 CA         10.6640   -5.2510   26.2040 C.3       6 GLP5        0.0000 
     56 CA         13.3405   -3.1690   28.3070 C.3       3 GLC5        0.0000 
     57 CA         13.3880   -4.2950   30.2020 C.3       6 GLP5        0.0000 
     58 CA         10.0581   -2.7928   31.0294 C.3       3 GLC5        0.0000 
     59 CA          9.8940   -0.7160   31.2110 C.3       9 GLL5        0.0000 
     60 CA         10.4930   -4.7750   31.3590 C.3       6 GLP5        0.0000 
     61 CA         13.9537   -0.6670   31.1235 C.3       3 GLC5        0.0000 
     62 CA         12.1500    0.1400   31.3510 C.3       9 GLL5        0.0000 
     63 CA         15.7100   -1.4410   31.5860 C.3       6 GLP5        0.0000 
     64 CA         11.6265   -1.3872   33.0056 C.3       3 GLC5        0.0000 
     65 CA         11.9640   -2.6050   34.5450 C.3       6 GLP5        0.0000 
     66 CA         12.1195    3.7835   32.6638 C.3       3 GLC5        0.0000 
     67 CA         13.9610    3.5610   33.6030 C.3       6 GLP5        0.0000 
     68 CA         11.0300    5.5545   28.7458 C.3       3 GLC5        0.0000 
     69 CA         10.0110    6.5200   27.1420 C.3       6 GLP5        0.0000 
     70 CA         13.0050    4.0750   31.9763 C.3       3 GLC5        0.0000 
     71 CA         12.2680    4.1810   29.7420 C.3       9 GLL5        0.0000 
     72 CA         14.8117    4.2295   26.0392 C.3       3 GLC5        0.0000 
     73 CA         13.9420    3.8920   27.9870 C.3       9 GLL5        0.0000 
     74 CA         15.1650    5.1210   24.1170 C.3       6 GLP5        0.0000 
     75 CA         14.7532    3.4335   25.2410 C.3       3 GLC5        0.0000 
     76 CA         14.9940    2.0680   26.5830 C.3       9 GLL5        0.0000 
     77 CA         12.0375    0.7093   25.0877 C.3       3 GLC5        0.0000 
     78 CA         13.6890    1.4240   26.1470 C.3       9 GLL5        0.0000 
     79 CA         10.2610    0.6360   24.4320 C.3       6 GLP5        0.0000 
     80 CA         16.2409    1.6470   26.5446 C.3       3 GLC5        0.0000 
     81 CA         18.1450    1.3690   26.3860 C.3       6 GLP5        0.0000 
     82 CA         16.0637   -0.1603   25.8158 C.3       3 GLC5        0.0000 
     83 CA         13.9390    0.1410   25.3400 C.3       9 GLL5        0.0000 
     84 CA         17.9550    0.1210   25.8560 C.3       6 GLP5        0.0000 
     85 CA         14.4312   -1.2703   23.9477 C.3       3 GLC5        0.0000 
     86 CA         14.6900   -2.0990   22.1200 C.3       6 GLP5        0.0000 
     87 CA         14.5693   -3.0918   25.9288 C.3       3 GLC5        0.0000 
     88 CA         15.2890   -4.6500   25.5460 C.3       6 GLP5        0.0000 
@<TRIPOS>BOND
@<TRIPOS>SUBSTRUCTURE
     1 ALC1        4 GROUP        1 X    ALC  0     ROOT ALC X 1
     2 SEC2        1 GROUP        1 X    SEC  0     **** SEC X 2
     3 GLC5        7 GROUP        1 X    GLC  0     **** GLC X 6
     4 ALP1        6 GROUP        1 Y    ALP  0     ROOT ALP Y 8
     5 SEP2        3 GROUP        1 Y    SEP  0     **** SEP Y 9
     6 GLP5        9 GROUP        1 Y    GLP  0     **** GLP Y 13
     7 ALL1        5 GROUP        1 Z    ALL  0     ROOT ALL Z 15
     8 SEL2        2 GROUP        1 Z    SEL  0     **** SEL Z 16
     9 GLL5        8 GROUP        1 Z    GLL  0     **** GLL Z 20
@<TRIPOS>SET

