#    Name: 3h3r_14H_1_ligand
#    Modification time : Tue Mar 25 13:32:41 2014

@<TRIPOS>MOLECULE
3h3r_14H_1_ligand
   69    69     1     0     0
SMALL
NO_CHARGES


@<TRIPOS>ATOM
      1 O21         8.6530    1.2990   33.6910 O.2       1 14H600      0.0000 
      2 C21         8.2230    1.7660   32.6190 C.2       1 14H600      0.0000 
      3 N2          7.2830    1.2600   31.7930 N.am      1 14H600      0.0000 
      4 C2          6.5530   -0.0170   31.8410 C.3       1 14H600      0.0000 
      5 C1          5.2450    0.1620   31.0620 C.3       1 14H600      0.0000 
      6 O1          5.5760    0.4800   29.6920 O.3       1 14H600      0.0000 
      7 C3          7.3500   -1.1480   31.1770 C.3       1 14H600      0.0000 
      8 C4          8.6390   -1.0200   31.9500 C.3       1 14H600      0.0000 
      9 C5          9.8940   -0.7160   31.2110 C.ar      1 14H600      0.0000 
     10 C6          9.9800   -0.7530   29.8190 C.ar      1 14H600      0.0000 
     11 C7         11.1710   -0.3570   29.2150 C.ar      1 14H600      0.0000 
     12 C8         12.2450    0.0740   29.9710 C.ar      1 14H600      0.0000 
     13 C9         12.1500    0.1400   31.3510 C.ar      1 14H600      0.0000 
     14 C10        10.9620   -0.2420   31.9520 C.ar      1 14H600      0.0000 
     15 O4          8.6610   -1.6580   33.2310 O.3       1 14H600      0.0000 
     16 C22         8.6680    3.1380   32.1770 C.3       1 14H600      0.0000 
     17 C23        10.1700    3.3330   32.0660 C.3       1 14H600      0.0000 
     18 C24        10.3860    4.6790   31.3830 C.3       1 14H600      0.0000 
     19 C25        11.8300    4.9970   30.9570 C.3       1 14H600      0.0000 
     20 C26        12.2680    4.1810   29.7420 C.3       1 14H600      0.0000 
     21 C27        13.7360    4.3940   29.4100 C.3       1 14H600      0.0000 
     22 C28        13.9420    3.8920   27.9870 C.3       1 14H600      0.0000 
     23 C29        14.9750    2.7840   27.9360 C.3       1 14H600      0.0000 
     24 C30        14.9940    2.0680   26.5830 C.3       1 14H600      0.0000 
     25 C31        13.6890    1.4240   26.1470 C.3       1 14H600      0.0000 
     26 C32        13.9390    0.1410   25.3400 C.3       1 14H600      0.0000 
     27 C33        14.4060   -1.0240   26.2110 C.3       1 14H600      0.0000 
     28 C34        13.2930   -2.0430   26.4120 C.3       1 14H600      0.0000 
     29 H           6.9849    1.8718   30.9288 H         1 14H600      0.0000 
     30 H           6.3149   -0.2914   32.8393 H         1 14H600      0.0000 
     31 H           4.6789    0.9616   31.5332 H         1 14H600      0.0000 
     32 H           4.6810   -0.7647   31.1331 H         1 14H600      0.0000 
     33 H           7.5019   -0.9229   30.1683 H         1 14H600      0.0000 
     34 H           6.8900   -2.0642   31.3778 H         1 14H600      0.0000 
     35 H           8.4062    0.2071   32.3787 H         1 14H600      0.0000 
     36 H           9.1899   -1.0625   29.2585 H         1 14H600      0.0000 
     37 H          11.2486   -0.3877   28.1817 H         1 14H600      0.0000 
     38 H          13.1253    0.3491   29.5043 H         1 14H600      0.0000 
     39 H          12.9378    0.4629   31.9129 H         1 14H600      0.0000 
     40 H          10.8710   -0.1704   32.9872 H         1 14H600      0.0000 
     41 H           8.2627    3.8956   32.8832 H         1 14H600      0.0000 
     42 H           8.2060    3.3691   31.1921 H         1 14H600      0.0000 
     43 H          10.5944    2.5528   31.4644 H         1 14H600      0.0000 
     44 H          10.6074    3.3529   33.0454 H         1 14H600      0.0000 
     45 H          10.0352    5.4867   32.0604 H         1 14H600      0.0000 
     46 H           9.7357    4.7349   30.4840 H         1 14H600      0.0000 
     47 H          12.5004    4.7856   31.7949 H         1 14H600      0.0000 
     48 H          11.9025    6.0627   30.7218 H         1 14H600      0.0000 
     49 H          11.6565    4.4680   28.8803 H         1 14H600      0.0000 
     50 H          12.0926    3.1191   29.9434 H         1 14H600      0.0000 
     51 H          14.3465    3.8248   30.0848 H         1 14H600      0.0000 
     52 H          13.9710    5.4401   29.4606 H         1 14H600      0.0000 
     53 H          14.2697    4.7235   27.3578 H         1 14H600      0.0000 
     54 H          12.9910    3.5203   27.5971 H         1 14H600      0.0000 
     55 H          14.7619    2.0500   28.7219 H         1 14H600      0.0000 
     56 H          15.9695    3.2032   28.1286 H         1 14H600      0.0000 
     57 H          15.7891    1.2896   26.6080 H         1 14H600      0.0000 
     58 H          15.3143    2.7958   25.8043 H         1 14H600      0.0000 
     59 H          13.1244    2.1248   25.5297 H         1 14H600      0.0000 
     60 H          13.0921    1.1769   27.0265 H         1 14H600      0.0000 
     61 H          14.6971    0.3456   24.5751 H         1 14H600      0.0000 
     62 H          13.0121   -0.1413   24.8272 H         1 14H600      0.0000 
     63 H          14.7241   -0.6400   27.1815 H         1 14H600      0.0000 
     64 H          15.2582   -1.5091   25.7326 H         1 14H600      0.0000 
     65 H          13.5893   -2.8089   26.9825 H         1 14H600      0.0000 
     66 H          12.4944   -1.6378   26.8570 H         1 14H600      0.0000 
     67 H          12.9807   -2.4280   25.5435 H         1 14H600      0.0000 
     68 H           5.8221    1.4492   29.7036 H         1 14H600      0.0000 
     69 H           8.3910   -0.9460   33.8792 H         1 14H600      0.0000 
@<TRIPOS>BOND
     1    2    1 2    
     2    3    2 am   
     3   16    2 1    
     4    4    3 1    
     5   29    3 1    
     6    5    4 1    
     7    7    4 1    
     8   30    4 1    
     9    6    5 1    
    10   31    5 1    
    11   32    5 1    
    12   68    6 1    
    13    8    7 1    
    14   33    7 1    
    15   34    7 1    
    16    9    8 1    
    17   15    8 1    
    18   35    8 1    
    19   10    9 ar   
    20   14    9 ar   
    21   11   10 ar   
    22   36   10 1    
    23   12   11 ar   
    24   37   11 1    
    25   13   12 ar   
    26   38   12 1    
    27   14   13 ar   
    28   39   13 1    
    29   40   14 1    
    30   69   15 1    
    31   17   16 1    
    32   41   16 1    
    33   42   16 1    
    34   18   17 1    
    35   43   17 1    
    36   44   17 1    
    37   19   18 1    
    38   45   18 1    
    39   46   18 1    
    40   20   19 1    
    41   47   19 1    
    42   48   19 1    
    43   21   20 1    
    44   49   20 1    
    45   50   20 1    
    46   22   21 1    
    47   51   21 1    
    48   52   21 1    
    49   23   22 1    
    50   53   22 1    
    51   54   22 1    
    52   24   23 1    
    53   55   23 1    
    54   56   23 1    
    55   25   24 1    
    56   57   24 1    
    57   58   24 1    
    58   26   25 1    
    59   59   25 1    
    60   60   25 1    
    61   27   26 1    
    62   61   26 1    
    63   62   26 1    
    64   28   27 1    
    65   63   27 1    
    66   64   27 1    
    67   65   28 1    
    68   66   28 1    
    69   67   28 1    
@<TRIPOS>SUBSTRUCTURE
     1 14H600      1 GROUP   
@<TRIPOS>SET

