#    Name: 1t2c_NAI_1_INTS_M
#    Modification time : Tue Mar 25 04:10:40 2014

@<TRIPOS>MOLECULE
1t2c_NAI_1_INTS_M
   92     0     9     0     0
SMALL
NO_CHARGES


@<TRIPOS>ATOM
      1 N          36.8475   17.1615    6.2100 N.am      2 SEC2        0.0000 
      2 N          36.0550   15.8530    6.5090 N.am      8 SEL2        0.0000 
      3 N          37.6400   18.4700    5.9110 N.am      5 SEP2        0.0000 
      4 CA         37.1740   17.5635   12.4740 C.3       3 GLC5        0.0000 
      5 CA         36.6090   15.7870   11.2660 C.3       9 GLL5        0.0000 
      6 CA         37.7390   19.3400   13.6820 C.3       6 GLP5        0.0000 
      7 CA         38.1135   16.1730    9.4945 C.3       3 GLC5        0.0000 
      8 CA         37.5350   14.5710   10.9590 C.3       9 GLL5        0.0000 
      9 CA         38.6920   17.7750    8.0300 C.3       6 GLP5        0.0000 
     10 O          39.4900   15.6795   11.5730 O.2       1 ALC1        0.0000 
     11 O          38.8870   14.9620   10.6150 O.2       7 ALL1        0.0000 
     12 O          40.0930   16.3970   12.5310 O.2       4 ALP1        0.0000 
     13 O          39.6805   13.8120   13.0840 O.2       1 ALC1        0.0000 
     14 O          38.6990   12.9850   12.4560 O.2       7 ALL1        0.0000 
     15 O          40.6620   14.6390   13.7120 O.2       4 ALP1        0.0000 
     16 CA         35.5630   16.0640   13.9400 C.3       3 GLC5        0.0000 
     17 CA         37.1700   14.8310   13.2910 C.3       9 GLL5        0.0000 
     18 CA         33.9560   17.2970   14.5890 C.3       6 GLP5        0.0000 
     19 O          36.7435   15.0605   20.5305 O.2       1 ALC1        0.0000 
     20 O          36.2260   14.6420   19.2080 O.2       7 ALL1        0.0000 
     21 O          37.2610   15.4790   21.8530 O.2       4 ALP1        0.0000 
     22 CA         37.1465   18.6265   17.7420 C.3       3 GLC5        0.0000 
     23 CA         37.9510   16.8970   17.0380 C.3       9 GLL5        0.0000 
     24 CA         36.3420   20.3560   18.4460 C.3       6 GLP5        0.0000 
     25 CA         37.8450   18.1185   15.3600 C.3       3 GLC5        0.0000 
     26 CA         39.7590   16.9020   16.3360 C.3       3 GLC5        0.0000 
     27 CA         41.5670   16.9070   15.6340 C.3       6 GLP5        0.0000 
     28 CA         38.8160   15.0485   17.8660 C.3       3 GLC5        0.0000 
     29 CA         39.6810   13.2000   18.6940 C.3       6 GLP5        0.0000 
     30 CA         36.1945   17.1200   16.5355 C.3       3 GLC5        0.0000 
     31 CA         34.4380   17.3430   16.0330 C.3       6 GLP5        0.0000 
     32 CA         38.3630   13.6085   16.0455 C.3       3 GLC5        0.0000 
     33 CA         37.0570   15.1600   15.7230 C.3       9 GLL5        0.0000 
     34 CA         39.6690   12.0570   16.3680 C.3       6 GLP5        0.0000 
     35 N          35.2660   19.7325    6.5450 N.am      2 SEC2        0.0000 
     36 N          34.4440   18.6840    7.3570 N.am      8 SEL2        0.0000 
     37 N          36.0880   20.7810    5.7330 N.am      5 SEP2        0.0000 
     38 CA         31.8515   19.8645    7.7935 C.3       3 GLC5        0.0000 
     39 CA         31.9270   18.2270    8.9810 C.3       9 GLL5        0.0000 
     40 CA         31.7760   21.5020    6.6060 C.3       6 GLP5        0.0000 
     41 CA         29.6980   15.0200    8.2620 C.3       3 GLC5        0.0000 
     42 CA         29.6300   16.9690    9.2630 C.3       9 GLL5        0.0000 
     43 CA         29.7660   13.0710    7.2610 C.3       6 GLP5        0.0000 
     44 N          27.5525   17.1730   11.0700 N.am      2 SEC2        0.0000 
     45 N          28.8200   16.5460   10.3720 N.am      8 SEL2        0.0000 
     46 N          26.2850   17.8000   11.7680 N.am      5 SEP2        0.0000 
     47 O          28.9830   15.0090   10.1640 O.2       1 ALC1        0.0000 
     48 O          28.8200   16.5460   10.3720 O.2       7 ALL1        0.0000 
     49 O          29.1460   13.4720    9.9560 O.2       4 ALP1        0.0000 
     50 N          26.2705   17.6465    7.9035 N.am      2 SEC2        0.0000 
     51 N          27.5060   16.7820    7.8890 N.am      8 SEL2        0.0000 
     52 N          25.0350   18.5110    7.9180 N.am      5 SEP2        0.0000 
     53 CA         29.0010   20.7710    9.2355 C.3       3 GLC5        0.0000 
     54 CA         28.5710   18.9210    8.5790 C.3       9 GLL5        0.0000 
     55 CA         29.4310   22.6210    9.8920 C.3       6 GLP5        0.0000 
     56 CA         28.3390   18.9770   10.7150 C.3       3 GLC5        0.0000 
     57 CA         28.1070   19.0330   12.8510 C.3       6 GLP5        0.0000 
     58 CA         24.5145   21.9580    7.3325 C.3       3 GLC5        0.0000 
     59 CA         26.6350   21.8460    7.3160 C.3       9 GLL5        0.0000 
     60 CA         22.3940   22.0700    7.3490 C.3       6 GLP5        0.0000 
     61 O          26.2125   21.9565   10.1940 O.2       1 ALC1        0.0000 
     62 O          25.4310   22.8700    9.1880 O.2       7 ALL1        0.0000 
     63 O          26.9940   21.0430   11.2000 O.2       4 ALP1        0.0000 
     64 O          24.5675   24.1125    9.6660 O.2       1 ALC1        0.0000 
     65 O          23.7040   25.3550   10.1440 O.2       4 ALP1        0.0000 
     66 CA         26.4160   23.2860    4.8905 C.3       3 GLC5        0.0000 
     67 CA         27.0070   21.8860    5.9620 C.3       9 GLL5        0.0000 
     68 CA         25.8250   24.6860    3.8190 C.3       6 GLP5        0.0000 
     69 CA         28.5245   23.0680    5.1285 C.3       3 GLC5        0.0000 
     70 CA         30.0420   24.2500    4.2950 C.3       6 GLP5        0.0000 
     71 CA         28.7195   22.2565    4.2430 C.3       3 GLC5        0.0000 
     72 CA         27.8950   20.9290    5.4420 C.3       9 GLL5        0.0000 
     73 CA         29.5440   23.5840    3.0440 C.3       6 GLP5        0.0000 
     74 CA         37.3462   16.8192    9.4170 C.3       3 GLC5        0.0000 
     75 CA         35.3920   15.9400   10.3420 C.3       9 GLL5        0.0000 
     76 CA         38.1477   14.0287   18.0810 C.3       3 GLC5        0.0000 
     77 CA         36.5080   14.5580   16.8500 C.3       9 GLL5        0.0000 
     78 CA         34.5137   14.8893   18.0100 C.3       3 GLC5        0.0000 
     79 CA         32.4130   14.9210   18.5520 C.3       6 GLP5        0.0000 
     80 CA         35.6369   16.1759   16.3143 C.3       3 GLC5        0.0000 
     81 CA         36.7210   15.1570   18.0860 C.3       9 GLL5        0.0000 
     82 CA         32.4795   19.4833   10.3490 C.3       3 GLC5        0.0000 
     83 CA         33.7360   20.7530   11.4140 C.3       6 GLP5        0.0000 
     84 CA         29.0907   18.3088   11.1380 C.3       3 GLC5        0.0000 
     85 CA         30.5190   18.2000    9.5870 C.3       9 GLL5        0.0000 
     86 CA         26.7185   17.7067    9.1732 C.3       3 GLC5        0.0000 
     87 CA         24.7790   17.2190    9.9980 C.3       6 GLP5        0.0000 
     88 CA         28.1648   21.9857    8.8133 C.3       3 GLC5        0.0000 
     89 CA         27.1620   20.8550    8.1530 C.3       9 GLL5        0.0000 
     90 CA         27.1675   23.6810    7.1645 C.3       3 GLC5        0.0000 
     91 CA         27.5140   25.4960    7.6900 C.3       6 GLP5        0.0000 
     92 CA         29.9603   20.9650    6.2312 C.3       3 GLC5        0.0000 
@<TRIPOS>BOND
@<TRIPOS>SUBSTRUCTURE
     1 ALC1       10 GROUP        1 X    ALC  0     ROOT ALC X 1
     2 SEC2        1 GROUP        1 X    SEC  0     **** SEC X 2
     3 GLC5        4 GROUP        1 X    GLC  0     **** GLC X 6
     4 ALP1       12 GROUP        1 Y    ALP  0     ROOT ALP Y 8
     5 SEP2        3 GROUP        1 Y    SEP  0     **** SEP Y 9
     6 GLP5        6 GROUP        1 Y    GLP  0     **** GLP Y 13
     7 ALL1       11 GROUP        1 Z    ALL  0     ROOT ALL Z 15
     8 SEL2        2 GROUP        1 Z    SEL  0     **** SEL Z 16
     9 GLL5        5 GROUP        1 Z    GLL  0     **** GLL Z 20
@<TRIPOS>SET

