#    Name: 1t2c_NAI_1_ligand
#    Modification time : Tue Mar 25 04:10:40 2014

@<TRIPOS>MOLECULE
1t2c_NAI_1_ligand
   71    75     1     0     0
SMALL
NO_CHARGES


@<TRIPOS>ATOM
      1 PA         35.1600   15.6460    7.6810 P.3       1 NAI336      0.0000 
      2 O1A        36.0550   15.8530    6.5090 O.co2     1 NAI336      0.0000 
      3 O2A        34.8450   14.2130    8.0460 O.co2     1 NAI336      0.0000 
      4 O5B        35.8660   16.2030    9.0300 O.3       1 NAI336      0.0000 
      5 C5B        35.3920   15.9400   10.3420 C.3       1 NAI336      0.0000 
      6 C4B        36.6090   15.7870   11.2660 C.3       1 NAI336      0.0000 
      7 O4B        36.1880   15.6260   12.6220 O.3       1 NAI336      0.0000 
      8 C3B        37.5350   14.5710   10.9590 C.3       1 NAI336      0.0000 
      9 O3B        38.8870   14.9620   10.6150 O.3       1 NAI336      0.0000 
     10 C2B        37.4860   13.7200   12.2570 C.3       1 NAI336      0.0000 
     11 O2B        38.6990   12.9850   12.4560 O.3       1 NAI336      0.0000 
     12 C1B        37.1700   14.8310   13.2910 C.3       1 NAI336      0.0000 
     13 N9A        36.7250   14.4190   14.6370 N.pl3     1 NAI336      0.0000 
     14 C8A        35.9720   13.3050   15.0780 C.2       1 NAI336      0.0000 
     15 N7A        35.8500   13.4080   16.4430 N.2       1 NAI336      0.0000 
     16 C5A        36.5080   14.5580   16.8500 C.ar      1 NAI336      0.0000 
     17 C6A        36.7210   15.1570   18.0860 C.ar      1 NAI336      0.0000 
     18 N6A        36.2260   14.6420   19.2080 N.pl3     1 NAI336      0.0000 
     19 N1A        37.4100   16.3300   18.1830 N.ar      1 NAI336      0.0000 
     20 C2A        37.9510   16.8970   17.0380 C.ar      1 NAI336      0.0000 
     21 N3A        37.7960   16.2960   15.8190 N.ar      1 NAI336      0.0000 
     22 C4A        37.0570   15.1600   15.7230 C.ar      1 NAI336      0.0000 
     23 O3         33.7110   16.4560    7.6040 O.3       1 NAI336      0.0000 
     24 PN         33.3110   17.8450    6.8040 P.3       1 NAI336      0.0000 
     25 O1N        34.4440   18.6840    7.3570 O.co2     1 NAI336      0.0000 
     26 O2N        33.1950   17.7390    5.3240 O.co2     1 NAI336      0.0000 
     27 O5D        31.9090   18.0960    7.5590 O.3       1 NAI336      0.0000 
     28 C5D        31.9270   18.2270    8.9810 C.3       1 NAI336      0.0000 
     29 C4D        30.5190   18.2000    9.5870 C.3       1 NAI336      0.0000 
     30 O4D        29.8610   19.3190    8.9920 O.3       1 NAI336      0.0000 
     31 C3D        29.6300   16.9690    9.2630 C.3       1 NAI336      0.0000 
     32 O3D        28.8200   16.5460   10.3720 O.3       1 NAI336      0.0000 
     33 C2D        28.7450   17.4680    8.1180 C.3       1 NAI336      0.0000 
     34 O2D        27.5060   16.7820    7.8890 O.3       1 NAI336      0.0000 
     35 C1D        28.5710   18.9210    8.5790 C.3       1 NAI336      0.0000 
     36 N1N        28.0450   19.9070    7.6230 N.pl3     1 NAI336      0.0000 
     37 C2N        27.1620   20.8550    8.1530 C.2       1 NAI336      0.0000 
     38 C3N        26.6350   21.8460    7.3160 C.2       1 NAI336      0.0000 
     39 C7N        25.6930   22.8580    7.8870 C.2       1 NAI336      0.0000 
     40 O7N        25.1550   23.8540    7.0650 O.2       1 NAI336      0.0000 
     41 N7N        25.4310   22.8700    9.1880 N.am      1 NAI336      0.0000 
     42 C4N        27.0070   21.8860    5.9620 C.3       1 NAI336      0.0000 
     43 C5N        27.8950   20.9290    5.4420 C.2       1 NAI336      0.0000 
     44 C6N        28.3940   19.9270    6.2710 C.2       1 NAI336      0.0000 
     45 H          34.8187   15.0150   10.3968 H         1 NAI336      0.0000 
     46 H          34.7826   16.7545   10.7324 H         1 NAI336      0.0000 
     47 H          37.2269   16.6833   11.1829 H         1 NAI336      0.0000 
     48 H          37.0551   13.9963   10.1884 H         1 NAI336      0.0000 
     49 H          36.6045   13.1117   12.1721 H         1 NAI336      0.0000 
     50 H          38.0938   15.4376   13.3647 H         1 NAI336      0.0000 
     51 H          35.6283   12.6300   14.5197 H         1 NAI336      0.0000 
     52 H          36.3804   15.1728   20.0413 H         1 NAI336      0.0000 
     53 H          35.7441   13.7705   19.1170 H         1 NAI336      0.0000 
     54 H          38.4780   17.7878   17.1164 H         1 NAI336      0.0000 
     55 H          32.4036   19.1748    9.2956 H         1 NAI336      0.0000 
     56 H          32.5067   17.4132    9.4566 H         1 NAI336      0.0000 
     57 H          30.5771   18.3309   10.6411 H         1 NAI336      0.0000 
     58 H          30.2607   16.2057    8.8753 H         1 NAI336      0.0000 
     59 H          29.3862   17.5220    7.2400 H         1 NAI336      0.0000 
     60 H          27.9254   18.8906    9.4757 H         1 NAI336      0.0000 
     61 H          26.9046   20.8243    9.1403 H         1 NAI336      0.0000 
     62 H          24.8410   23.6099    9.5112 H         1 NAI336      0.0000 
     63 H          25.8473   22.1381    9.7275 H         1 NAI336      0.0000 
     64 H          27.4169   22.9412    5.7210 H         1 NAI336      0.0000 
     65 H          26.0480   21.8922    5.3140 H         1 NAI336      0.0000 
     66 H          28.1707   20.9728    4.4572 H         1 NAI336      0.0000 
     67 H          29.0159   19.2055    5.8911 H         1 NAI336      0.0000 
     68 H          39.1486   15.6293   11.3124 H         1 NAI336      0.0000 
     69 H          39.4106   13.6811   12.5514 H         1 NAI336      0.0000 
     70 H          28.8327   15.5468   10.3353 H         1 NAI336      0.0000 
     71 H          27.1608   16.5601    8.8009 H         1 NAI336      0.0000 
@<TRIPOS>BOND
     1    2    1 ar   
     2    3    1 ar   
     3    4    1 1    
     4   23    1 1    
     5    5    4 1    
     6    6    5 1    
     7   45    5 1    
     8   46    5 1    
     9    7    6 1    
    10    8    6 1    
    11   47    6 1    
    12   12    7 1    
    13    9    8 1    
    14   10    8 1    
    15   48    8 1    
    16   68    9 1    
    17   11   10 1    
    18   12   10 1    
    19   49   10 1    
    20   69   11 1    
    21   13   12 1    
    22   50   12 1    
    23   14   13 1    
    24   22   13 1    
    25   15   14 2    
    26   51   14 1    
    27   16   15 1    
    28   17   16 ar   
    29   22   16 ar   
    30   18   17 1    
    31   19   17 ar   
    32   52   18 1    
    33   53   18 1    
    34   20   19 ar   
    35   21   20 ar   
    36   54   20 1    
    37   22   21 ar   
    38   24   23 1    
    39   25   24 ar   
    40   26   24 ar   
    41   27   24 1    
    42   28   27 1    
    43   29   28 1    
    44   55   28 1    
    45   56   28 1    
    46   30   29 1    
    47   31   29 1    
    48   57   29 1    
    49   35   30 1    
    50   32   31 1    
    51   33   31 1    
    52   58   31 1    
    53   70   32 1    
    54   34   33 1    
    55   35   33 1    
    56   59   33 1    
    57   71   34 1    
    58   36   35 1    
    59   60   35 1    
    60   37   36 1    
    61   44   36 1    
    62   38   37 2    
    63   61   37 1    
    64   39   38 1    
    65   42   38 1    
    66   40   39 2    
    67   41   39 am   
    68   62   41 1    
    69   63   41 1    
    70   43   42 1    
    71   64   42 1    
    72   65   42 1    
    73   44   43 2    
    74   66   43 1    
    75   67   44 1    
@<TRIPOS>SUBSTRUCTURE
     1 NAI336      1 GROUP   
@<TRIPOS>SET

