#    Name: 3gwn_FAD_2_INTS_M
#    Modification time : Tue Mar 25 13:10:39 2014

@<TRIPOS>MOLECULE
3gwn_FAD_2_INTS_M
   69     0     9     0     0
SMALL
NO_CHARGES


@<TRIPOS>ATOM
      1 N          19.2105   -1.5955   24.4955 N.am      2 SEC2        0.0000 
      2 N          19.9330   -2.9090   24.1430 N.am      8 SEL2        0.0000 
      3 N          18.4880   -0.2820   24.8480 N.am      5 SEP2        0.0000 
      4 CA         22.3520   -1.1000   20.8890 C.3       3 GLC5        0.0000 
      5 CA         21.9060   -0.8330   22.9770 C.3       9 GLL5        0.0000 
      6 CA         22.7980   -1.3670   18.8010 C.3       6 GLP5        0.0000 
      7 CA         24.5880   -1.6825   25.6615 C.3       3 GLC5        0.0000 
      8 CA         24.1390   -0.4550   24.4050 C.3       9 GLL5        0.0000 
      9 CA         25.0370   -2.9100   26.9180 C.3       6 GLP5        0.0000 
     10 CA         24.7505   -0.5780   26.5180 C.3       3 GLC5        0.0000 
     11 CA         24.5010    0.7420   25.1640 C.3       9 GLL5        0.0000 
     12 CA         25.0000   -1.8980   27.8720 C.3       6 GLP5        0.0000 
     13 N          19.7075   -0.0670   28.2605 N.am      2 SEC2        0.0000 
     14 N          20.6310    1.0210   27.7090 N.am      8 SEL2        0.0000 
     15 N          18.7840   -1.1550   28.8120 N.am      5 SEP2        0.0000 
     16 O          17.0795    3.6765   28.7265 O.2       1 ALC1        0.0000 
     17 O          18.5970    3.1340   28.4410 O.2       7 ALL1        0.0000 
     18 O          15.5620    4.2190   29.0120 O.2       4 ALP1        0.0000 
     19 CA         19.2400    4.7590   24.0575 C.3       3 GLC5        0.0000 
     20 CA         20.2580    4.7350   25.6440 C.3       9 GLL5        0.0000 
     21 CA         18.2220    4.7830   22.4710 C.3       6 GLP5        0.0000 
     22 CA         20.9725    6.0285   26.6395 C.3       3 GLC5        0.0000 
     23 CA         21.6870    7.3220   27.6350 C.3       6 GLP5        0.0000 
     24 CA         10.9035   -5.6485   20.9885 C.3       3 GLC5        0.0000 
     25 CA         12.3230   -4.3280   21.8090 C.3       9 GLL5        0.0000 
     26 CA          9.4840   -6.9690   20.1680 C.3       6 GLP5        0.0000 
     27 CA         12.9955   -4.3105   23.8075 C.3       3 GLC5        0.0000 
     28 CA         13.6680   -4.2930   25.8060 C.3       6 GLP5        0.0000 
     29 CA         12.5375   -0.4750   22.3250 C.3       3 GLC5        0.0000 
     30 CA         11.2350   -0.8680   20.8400 C.3       9 GLL5        0.0000 
     31 CA         13.8400   -0.0820   23.8100 C.3       6 GLP5        0.0000 
     32 CA          9.6185   -0.3730   21.6555 C.3       3 GLC5        0.0000 
     33 CA          8.0020    0.1220   22.4710 C.3       6 GLP5        0.0000 
     34 CA         13.7595   -2.8760   18.3490 C.3       3 GLC5        0.0000 
     35 CA         14.2370   -1.2070   19.4610 C.3       9 GLL5        0.0000 
     36 CA         13.2820   -4.5450   17.2370 C.3       6 GLP5        0.0000 
     37 CA         15.2210   -0.5225   17.8970 C.3       3 GLC5        0.0000 
     38 CA         16.2050    0.1620   16.3330 C.3       6 GLP5        0.0000 
     39 CA         15.1880   -0.5125   20.8525 C.3       3 GLC5        0.0000 
     40 CA         16.1390    0.1820   22.2440 C.3       6 GLP5        0.0000 
     41 CA         15.4205   -7.6120   20.2725 C.3       3 GLC5        0.0000 
     42 CA         15.6340   -5.9710   21.4470 C.3       9 GLL5        0.0000 
     43 CA         15.2070   -9.2530   19.0980 C.3       6 GLP5        0.0000 
     44 CA         16.6165   -5.2895   19.6400 C.3       3 GLC5        0.0000 
     45 CA         17.5990   -4.6080   17.8330 C.3       6 GLP5        0.0000 
     46 CA         16.2630   -6.7710   24.1200 C.3       3 GLC5        0.0000 
     47 CA         16.6660   -5.6840   22.4960 C.3       9 GLL5        0.0000 
     48 CA         15.8600   -7.8580   25.7440 C.3       6 GLP5        0.0000 
     49 N          16.4450   -3.2870   22.8745 N.am      2 SEC2        0.0000 
     50 N          16.2130   -4.5860   23.3350 N.am      8 SEL2        0.0000 
     51 N          16.6770   -1.9880   22.4140 N.am      5 SEP2        0.0000 
     52 CA         17.8545   -5.1050   19.9660 C.3       3 GLC5        0.0000 
     53 CA         18.1100   -5.6020   22.0990 C.3       9 GLL5        0.0000 
     54 CA         17.8725   -3.4870   21.8700 C.3       3 GLC5        0.0000 
     55 CA         17.6350   -1.3720   21.6410 C.3       6 GLP5        0.0000 
     56 CA         17.7490   -7.9895   20.2930 C.3       3 GLC5        0.0000 
     57 CA         18.8310   -6.9180   21.8640 C.3       9 GLL5        0.0000 
     58 CA         16.6670   -9.0610   18.7220 C.3       6 GLP5        0.0000 
     59 CA         24.2165    2.1410   26.5335 C.3       3 GLC5        0.0000 
     60 CA         23.1530    1.4600   25.0320 C.3       9 GLL5        0.0000 
     61 CA         24.6060    3.1810   27.9690 C.3       6 GLP5        0.0000 
     62 CA         22.7040    2.8055   27.3283 C.3       3 GLC5        0.0000 
     63 CA         20.3880    2.2890   27.1810 C.3       9 GLL5        0.0000 
     64 CA         18.8509    1.9792   26.1775 C.3       3 GLC5        0.0000 
     65 CA         21.2160    2.5710   26.1940 C.3       9 GLL5        0.0000 
     66 CA         17.1310    1.2710   25.6030 C.3       6 GLP5        0.0000 
     67 CA         10.0510   -2.3564   20.1024 C.3       3 GLC5        0.0000 
     68 CA         12.1780   -2.0730   20.9030 C.3       9 GLL5        0.0000 
     69 CA          8.5430   -2.9760   19.1490 C.3       6 GLP5        0.0000 
@<TRIPOS>BOND
@<TRIPOS>SUBSTRUCTURE
     1 ALC1       16 GROUP        1 X    ALC  0     ROOT ALC X 1
     2 SEC2        1 GROUP        1 X    SEC  0     **** SEC X 2
     3 GLC5        4 GROUP        1 X    GLC  0     **** GLC X 6
     4 ALP1       18 GROUP        1 Y    ALP  0     ROOT ALP Y 8
     5 SEP2        3 GROUP        1 Y    SEP  0     **** SEP Y 9
     6 GLP5        6 GROUP        1 Y    GLP  0     **** GLP Y 13
     7 ALL1       17 GROUP        1 Z    ALL  0     ROOT ALL Z 15
     8 SEL2        2 GROUP        1 Z    SEL  0     **** SEL Z 16
     9 GLL5        5 GROUP        1 Z    GLL  0     **** GLL Z 20
@<TRIPOS>SET

