#    Name: 3gwn_FAD_2_ligand
#    Modification time : Tue Mar 25 13:10:39 2014

@<TRIPOS>MOLECULE
3gwn_FAD_2_ligand
   84    89     1     0     0
SMALL
NO_CHARGES


@<TRIPOS>ATOM
      1 PA         20.7900   -2.9030   22.9230 P.3       1 FAD335      0.0000 
      2 O1A        19.9330   -2.9090   24.1430 O.co2     1 FAD335      0.0000 
      3 O2A        20.6660   -3.4100   21.5230 O.co2     1 FAD335      0.0000 
      4 O5B        22.2070   -2.2240   22.8590 O.3       1 FAD335      0.0000 
      5 C5B        21.9060   -0.8330   22.9770 C.3       1 FAD335      0.0000 
      6 C4B        23.1750   -0.0620   23.2600 C.3       1 FAD335      0.0000 
      7 O4B        22.6170    1.1890   23.7310 O.3       1 FAD335      0.0000 
      8 C3B        24.1390   -0.4550   24.4050 C.3       1 FAD335      0.0000 
      9 O3B        25.1900   -1.0780   23.6590 O.3       1 FAD335      0.0000 
     10 C2B        24.5010    0.7420   25.1640 C.3       1 FAD335      0.0000 
     11 O2B        25.4500    1.6350   24.6630 O.3       1 FAD335      0.0000 
     12 C1B        23.1530    1.4600   25.0320 C.3       1 FAD335      0.0000 
     13 N9A        22.0920    1.5080   25.9840 N.pl3     1 FAD335      0.0000 
     14 C8A        21.6150    0.6110   26.9720 C.2       1 FAD335      0.0000 
     15 N7A        20.6310    1.0210   27.7090 N.2       1 FAD335      0.0000 
     16 C5A        20.3880    2.2890   27.1810 C.ar      1 FAD335      0.0000 
     17 C6A        19.4630    3.3190   27.4390 C.ar      1 FAD335      0.0000 
     18 N6A        18.5970    3.1340   28.4410 N.pl3     1 FAD335      0.0000 
     19 N1A        19.4120    4.4770   26.6790 N.ar      1 FAD335      0.0000 
     20 C2A        20.2580    4.7350   25.6440 C.ar      1 FAD335      0.0000 
     21 N3A        21.2150    3.7440   25.3770 N.ar      1 FAD335      0.0000 
     22 C4A        21.2160    2.5710   26.1940 C.ar      1 FAD335      0.0000 
     23 N1         14.2100   -8.1840   22.3920 N.2       1 FAD335      0.0000 
     24 C2         13.6550   -9.2870   23.0140 C.2       1 FAD335      0.0000 
     25 O2         14.2420  -10.3830   23.0350 O.2       1 FAD335      0.0000 
     26 N3         12.4000   -8.9770   23.5190 N.am      1 FAD335      0.0000 
     27 C4         11.7380   -7.7270   23.4330 C.2       1 FAD335      0.0000 
     28 O4         10.5640   -7.6790   23.9180 O.2       1 FAD335      0.0000 
     29 C4X        12.3600   -6.6830   22.7740 C.2       1 FAD335      0.0000 
     30 N5         11.7570   -5.4020   22.5430 N.2       1 FAD335      0.0000 
     31 C5X        12.3230   -4.3280   21.8090 C.ar      1 FAD335      0.0000 
     32 C6         11.5880   -3.1380   21.6400 C.ar      1 FAD335      0.0000 
     33 C7         12.1780   -2.0730   20.9030 C.ar      1 FAD335      0.0000 
     34 C7M        11.2350   -0.8680   20.8400 C.3       1 FAD335      0.0000 
     35 C8         13.4760   -2.2000   20.3200 C.ar      1 FAD335      0.0000 
     36 C8M        14.2370   -1.2070   19.4610 C.3       1 FAD335      0.0000 
     37 C9         14.1880   -3.3890   20.5220 C.ar      1 FAD335      0.0000 
     38 C9A        13.6890   -4.5000   21.2510 C.ar      1 FAD335      0.0000 
     39 N10        14.2260   -5.8290   21.6400 N.pl3     1 FAD335      0.0000 
     40 C10        13.6660   -6.9250   22.2500 C.2       1 FAD335      0.0000 
     41 C1'        15.6340   -5.9710   21.4470 C.3       1 FAD335      0.0000 
     42 C2'        16.6660   -5.6840   22.4960 C.3       1 FAD335      0.0000 
     43 O2'        16.2130   -4.5860   23.3350 O.3       1 FAD335      0.0000 
     44 C3'        18.1100   -5.6020   22.0990 C.3       1 FAD335      0.0000 
     45 O3'        18.2900   -4.6160   21.0910 O.3       1 FAD335      0.0000 
     46 C4'        18.8310   -6.9180   21.8640 C.3       1 FAD335      0.0000 
     47 O4'        18.5600   -7.9390   22.8740 O.3       1 FAD335      0.0000 
     48 C5'        20.2530   -6.8780   21.4860 C.3       1 FAD335      0.0000 
     49 O5'        20.9710   -6.6520   22.6980 O.3       1 FAD335      0.0000 
     50 P          22.1290   -5.6530   22.9980 P.3       1 FAD335      0.0000 
     51 O1P        22.6200   -6.2670   24.2280 O.co2     1 FAD335      0.0000 
     52 O2P        23.0450   -5.5210   21.8390 O.co2     1 FAD335      0.0000 
     53 O3P        21.7100   -4.1340   23.3220 O.3       1 FAD335      0.0000 
     54 H          21.2000   -0.6416   23.7947 H         1 FAD335      0.0000 
     55 H          21.4637   -0.4369   22.0544 H         1 FAD335      0.0000 
     56 H          23.7112    0.1352   22.3702 H         1 FAD335      0.0000 
     57 H          23.6095   -1.1716   24.9948 H         1 FAD335      0.0000 
     58 H          24.5851    0.5142   26.1970 H         1 FAD335      0.0000 
     59 H          23.4960    2.6105   24.8920 H         1 FAD335      0.0000 
     60 H          22.0643   -0.3010   27.0527 H         1 FAD335      0.0000 
     61 H          18.9315    2.6024   29.2191 H         1 FAD335      0.0000 
     62 H          17.6926    3.5438   28.3223 H         1 FAD335      0.0000 
     63 H          20.2168    5.5725   25.0955 H         1 FAD335      0.0000 
     64 H          11.8676   -9.7560   24.0286 H         1 FAD335      0.0000 
     65 H          10.6627   -3.0365   22.0305 H         1 FAD335      0.0000 
     66 H          15.1519   -3.4712   20.1115 H         1 FAD335      0.0000 
     67 H          15.9494   -5.3646   20.5037 H         1 FAD335      0.0000 
     68 H          15.8556   -7.0457   21.0560 H         1 FAD335      0.0000 
     69 H          16.6042   -6.6197   23.2082 H         1 FAD335      0.0000 
     70 H          18.6296   -5.1586   23.0554 H         1 FAD335      0.0000 
     71 H          18.2926   -7.3503   20.8939 H         1 FAD335      0.0000 
     72 H          20.4162   -6.0740   20.7740 H         1 FAD335      0.0000 
     73 H          20.5336   -7.8234   21.0307 H         1 FAD335      0.0000 
     74 H          11.0136   -0.5216   21.7516 H         1 FAD335      0.0000 
     75 H          11.6362   -0.1089   20.3274 H         1 FAD335      0.0000 
     76 H          10.3691   -1.0969   20.3952 H         1 FAD335      0.0000 
     77 H          15.1323   -1.5603   19.1897 H         1 FAD335      0.0000 
     78 H          13.7418   -0.9869   18.6206 H         1 FAD335      0.0000 
     79 H          14.3956   -0.3448   19.9421 H         1 FAD335      0.0000 
     80 H          26.0119   -0.5542   23.8831 H         1 FAD335      0.0000 
     81 H          26.3085    1.3751   25.1051 H         1 FAD335      0.0000 
     82 H          16.7909   -4.6278   24.1501 H         1 FAD335      0.0000 
     83 H          19.1767   -4.1996   21.2919 H         1 FAD335      0.0000 
     84 H          19.3991   -7.9968   23.4150 H         1 FAD335      0.0000 
@<TRIPOS>BOND
     1    2    1 ar   
     2    3    1 ar   
     3    4    1 1    
     4   53    1 1    
     5    5    4 1    
     6    6    5 1    
     7   54    5 1    
     8   55    5 1    
     9    7    6 1    
    10    8    6 1    
    11   56    6 1    
    12   12    7 1    
    13    9    8 1    
    14   10    8 1    
    15   57    8 1    
    16   80    9 1    
    17   11   10 1    
    18   12   10 1    
    19   58   10 1    
    20   81   11 1    
    21   13   12 1    
    22   59   12 1    
    23   14   13 1    
    24   22   13 1    
    25   15   14 2    
    26   60   14 1    
    27   16   15 1    
    28   17   16 ar   
    29   22   16 ar   
    30   18   17 1    
    31   19   17 ar   
    32   61   18 1    
    33   62   18 1    
    34   20   19 ar   
    35   21   20 ar   
    36   63   20 1    
    37   22   21 ar   
    38   24   23 1    
    39   40   23 2    
    40   25   24 2    
    41   26   24 am   
    42   27   26 am   
    43   64   26 1    
    44   28   27 2    
    45   29   27 1    
    46   30   29 2    
    47   40   29 1    
    48   31   30 1    
    49   32   31 ar   
    50   38   31 ar   
    51   33   32 ar   
    52   65   32 1    
    53   34   33 1    
    54   35   33 ar   
    55   74   34 1    
    56   75   34 1    
    57   76   34 1    
    58   36   35 1    
    59   37   35 ar   
    60   77   36 1    
    61   78   36 1    
    62   79   36 1    
    63   38   37 ar   
    64   66   37 1    
    65   39   38 1    
    66   40   39 1    
    67   41   39 1    
    68   42   41 1    
    69   67   41 1    
    70   68   41 1    
    71   43   42 1    
    72   44   42 1    
    73   69   42 1    
    74   82   43 1    
    75   45   44 1    
    76   46   44 1    
    77   70   44 1    
    78   83   45 1    
    79   47   46 1    
    80   48   46 1    
    81   71   46 1    
    82   84   47 1    
    83   49   48 1    
    84   72   48 1    
    85   73   48 1    
    86   50   49 1    
    87   51   50 ar   
    88   52   50 ar   
    89   53   50 1    
@<TRIPOS>SUBSTRUCTURE
     1 FAD335      1 GROUP   
@<TRIPOS>SET

