#    Name: 4F45_1_CAVITY_N1_6.mol2
#    Modification time : Mon Mar 10 18:40:58 2014

@<TRIPOS>MOLECULE
4F45_1_CAVITY_N1_6.mol2
   87     0     6     0     0
SMALL
NO_CHARGES


@<TRIPOS>ATOM
      1 OG       -403.5510 -935.4347    6.5572 O.2       1 SER1        0.0000 
      2 OG       -402.2475 -936.0707    6.1745 O.2       1 SER1        0.0000 
      3 OG       -402.9742 -937.0061    5.2542 O.2       1 SER1        0.0000 
      4 DU       -401.6707 -937.6421    4.8715 H         6 CUB7        0.0000 
      5 O        -400.3673 -938.2782    4.4888 O.2       2 ALA2        0.0000 
      6 O        -403.7008 -937.9415    4.3339 O.2       2 ALA2        0.0000 
      7 OG       -402.3974 -938.5775    3.9512 O.2       1 SER1        0.0000 
      8 CA       -401.9461 -932.5788    7.2770 C.3       5 GLY6        0.0000 
      9 DU       -400.6427 -933.2148    6.8942 H         6 CUB7        0.0000 
     10 OG       -402.6728 -933.5142    6.3566 O.2       1 SER1        0.0000 
     11 DU       -401.3693 -934.1502    5.9739 H         6 CUB7        0.0000 
     12 DU       -400.0659 -934.7862    5.5912 H         6 CUB7        0.0000 
     13 OG       -402.0960 -935.0856    5.0536 O.2       1 SER1        0.0000 
     14 DU       -400.7925 -935.7216    4.6709 H         6 CUB7        0.0000 
     15 CZ       -399.4890 -936.3576    4.2882 C.ar      4 PHE5        0.0000 
     16 OG       -402.8226 -936.0210    4.1333 O.2       1 SER1        0.0000 
     17 DU       -401.5191 -936.6570    3.7505 H         6 CUB7        0.0000 
     18 CZ       -400.2157 -937.2930    3.3678 C.ar      4 PHE5        0.0000 
     19 O        -403.5492 -936.9564    3.2129 O.2       2 ALA2        0.0000 
     20 OG       -402.2458 -937.5924    2.8302 O.2       1 SER1        0.0000 
     21 O        -400.9423 -938.2284    2.4475 O.2       2 ALA2        0.0000 
     22 CA       -395.7042 -930.6955    7.7689 C.3       5 GLY6        0.0000 
     23 O        -399.0378 -930.3588    7.6140 O.2       2 ALA2        0.0000 
     24 DU       -397.7343 -930.9949    7.2313 H         6 CUB7        0.0000 
     25 O        -399.7644 -931.2942    6.6936 O.2       2 ALA2        0.0000 
     26 DU       -398.4610 -931.9303    6.3109 H         6 CUB7        0.0000 
     27 DU       -397.1575 -932.5663    5.9282 H         6 CUB7        0.0000 
     28 CA       -401.7946 -931.5936    6.1560 C.3       5 GLY6        0.0000 
     29 CA       -400.4911 -932.2296    5.7733 C.3       5 GLY6        0.0000 
     30 DU       -399.1876 -932.8657    5.3906 H         6 CUB7        0.0000 
     31 DU       -397.8842 -933.5017    5.0079 H         6 CUB7        0.0000 
     32 CA       -396.5807 -934.1377    4.6252 C.3       5 GLY6        0.0000 
     33 CA       -402.5212 -932.5290    5.2357 C.3       5 GLY6        0.0000 
     34 DU       -401.2177 -933.1650    4.8530 H         6 CUB7        0.0000 
     35 CZ       -399.9143 -933.8011    4.4703 C.ar      4 PHE5        0.0000 
     36 CZ       -398.6108 -934.4371    4.0876 C.ar      4 PHE5        0.0000 
     37 OG       -403.2478 -933.4644    4.3153 O.2       1 SER1        0.0000 
     38 OG       -401.9444 -934.1004    3.9326 O.2       1 SER1        0.0000 
     39 CZ       -400.6409 -934.7365    3.5499 C.ar      4 PHE5        0.0000 
     40 CA       -402.6710 -935.0358    3.0123 C.3       5 GLY6        0.0000 
     41 CZ       -401.3676 -935.6719    2.6296 C.ar      4 PHE5        0.0000 
     42 CA       -403.3977 -935.9712    2.0920 C.3       5 GLY6        0.0000 
     43 N        -402.0942 -936.6073    1.7093 N.2       2 ALA2        0.0000 
     44 CZ       -400.7907 -937.2433    1.3266 C.ar      4 PHE5        0.0000 
     45 N        -402.8209 -937.5427    0.7889 N.2       2 ALA2        0.0000 
     46 O        -396.8561 -929.0743    7.0306 O.2       2 ALA2        0.0000 
     47 O        -397.5828 -930.0097    6.1103 O.2       2 ALA2        0.0000 
     48 O        -396.2793 -930.6457    5.7276 O.2       2 ALA2        0.0000 
     49 O        -398.3094 -930.9451    5.1900 O.2       2 ALA2        0.0000 
     50 NZ       -397.0059 -931.5811    4.8073 N.2       3 LYS4        0.0000 
     51 NZ       -395.7025 -932.2172    4.4246 N.2       3 LYS4        0.0000 
     52 CZ       -400.3395 -931.2445    4.6524 C.ar      4 PHE5        0.0000 
     53 DU       -399.0361 -931.8805    4.2696 H         6 CUB7        0.0000 
     54 CZ       -397.7326 -932.5165    3.8869 C.ar      4 PHE5        0.0000 
     55 CA       -402.3696 -931.5439    4.1147 C.3       5 GLY6        0.0000 
     56 CZ       -401.0662 -932.1799    3.7320 C.ar      4 PHE5        0.0000 
     57 CZ       -399.7627 -932.8159    3.3493 C.ar      4 PHE5        0.0000 
     58 OG       -403.0963 -932.4793    3.1944 O.2       1 SER1        0.0000 
     59 DU       -401.7928 -933.1153    2.8117 H         6 CUB7        0.0000 
     60 CZ       -400.4893 -933.7513    2.4290 C.ar      4 PHE5        0.0000 
     61 CA       -403.8229 -933.4147    2.2741 C.3       5 GLY6        0.0000 
     62 CA       -402.5194 -934.0507    1.8914 C.3       5 GLY6        0.0000 
     63 CZ       -401.2160 -934.6867    1.5086 C.ar      4 PHE5        0.0000 
     64 CA       -403.2461 -934.9861    0.9710 C.3       5 GLY6        0.0000 
     65 N        -401.9426 -935.6221    0.5883 N.2       2 ALA2        0.0000 
     66 DU       -403.1258 -937.9913    6.3751 H         6 CUB7        0.0000 
     67 CZ       -398.1578 -929.9600    4.0690 C.ar      4 PHE5        0.0000 
     68 NZ       -396.8544 -930.5960    3.6863 N.2       3 LYS4        0.0000 
     69 CZ       -400.1879 -930.2594    3.5314 C.ar      4 PHE5        0.0000 
     70 CZ       -398.8845 -930.8954    3.1487 C.ar      4 PHE5        0.0000 
     71 NZ       -397.5810 -931.5314    2.7660 N.2       3 LYS4        0.0000 
     72 CZ       -400.9146 -931.1948    2.6111 C.ar      4 PHE5        0.0000 
     73 NZ       -399.6111 -931.8308    2.2284 N.2       3 LYS4        0.0000 
     74 OG       -402.9447 -931.4941    2.0734 O.2       1 SER1        0.0000 
     75 NZ       -401.6412 -932.1302    1.6907 N.2       3 LYS4        0.0000 
     76 CZ       -400.3378 -932.7662    1.3080 C.ar      4 PHE5        0.0000 
     77 OG       -403.6713 -932.4295    1.1531 O.2       1 SER1        0.0000 
     78 OG       -402.3679 -933.0656    0.7704 O.2       1 SER1        0.0000 
     79 CZ       -401.0644 -933.7016    0.3877 C.ar      4 PHE5        0.0000 
     80 N        -403.0945 -934.0010   -0.1499 N.2       2 ALA2        0.0000 
     81 N        -401.7911 -934.6370   -0.5326 N.2       2 ALA2        0.0000 
     82 CA       -402.2163 -932.0804   -0.3505 C.3       5 GLY6        0.0000 
     83 NZ       -400.9128 -932.7164   -0.7332 N.2       3 LYS4        0.0000 
     84 O        -402.9429 -933.0158   -1.2709 O.2       2 ALA2        0.0000 
     85 O        -401.6395 -933.6519   -1.6536 O.2       2 ALA2        0.0000 
     86 CA       -402.7914 -932.0307   -2.3918 C.3       5 GLY6        0.0000 
     87 O        -401.4879 -932.6667   -2.7745 O.2       2 ALA2        0.0000 
@<TRIPOS>BOND
@<TRIPOS>SUBSTRUCTURE
     1 SER1        1 GROUP   
     2 ALA2        5 GROUP   
     3 LYS4       50 GROUP   
     4 PHE5       15 GROUP   
     5 GLY6        8 GROUP   
     6 CUB7        4 GROUP   
@<TRIPOS>SET

