#    Name: 4f45_DN4_1_INTS_M
#    Modification time : Mon Mar 24 18:57:18 2014

@<TRIPOS>MOLECULE
4f45_DN4_1_INTS_M
   55     0     9     0     0
SMALL
NO_CHARGES


@<TRIPOS>ATOM
      1 CA       -399.3450 -936.0720    2.7785 C.3       3 GLC5        0.0000 
      2 CA       -400.3050 -935.9020    4.6080 C.3       9 GLL5        0.0000 
      3 CA       -398.3850 -936.2420    0.9490 C.3       6 GLP5        0.0000 
      4 O        -408.0245 -938.4030    7.4665 O.2       1 ALC1        0.0000 
      5 O        -407.8590 -937.1960    8.3190 O.2       7 ALL1        0.0000 
      6 O        -408.1900 -939.6100    6.6140 O.2       4 ALP1        0.0000 
      7 CA       -405.7255 -934.3710   11.5770 C.3       3 GLC5        0.0000 
      8 CA       -406.1400 -934.3880    9.6360 C.3       9 GLL5        0.0000 
      9 CA       -405.3110 -934.3540   13.5180 C.3       6 GLP5        0.0000 
     10 CA       -406.2945 -932.4770   10.1595 C.3       3 GLC5        0.0000 
     11 CA       -406.4490 -930.5660   10.6830 C.3       6 GLP5        0.0000 
     12 N        -400.1915 -938.9345    2.2555 N.am      2 SEC2        0.0000 
     13 N        -401.2930 -937.9730    3.1230 N.am      8 SEL2        0.0000 
     14 N        -399.0900 -939.8960    1.3880 N.am      5 SEP2        0.0000 
     15 N        -404.8200 -937.1125    3.9640 N.am      2 SEC2        0.0000 
     16 N        -403.3540 -936.7660    4.0580 N.am      8 SEL2        0.0000 
     17 N        -406.2860 -937.4590    3.8700 N.am      5 SEP2        0.0000 
     18 N        -404.4345 -935.7605    4.3475 N.am      2 SEC2        0.0000 
     19 N        -405.5150 -934.7550    4.6370 N.am      5 SEP2        0.0000 
     20 N        -403.1170 -939.3835    1.5505 N.am      2 SEC2        0.0000 
     21 N        -403.6190 -938.1190    1.8910 N.am      8 SEL2        0.0000 
     22 N        -402.6150 -940.6480    1.2100 N.am      5 SEP2        0.0000 
     23 N        -404.9990 -937.6970    1.4945 N.am      2 SEC2        0.0000 
     24 N        -406.3790 -937.2750    1.0980 N.am      5 SEP2        0.0000 
     25 CA       -400.3540 -934.8385    1.4080 C.3       3 GLC5        0.0000 
     26 CA       -402.4560 -934.8310    1.7110 C.3       9 GLL5        0.0000 
     27 CA       -398.2520 -934.8460    1.1050 C.3       6 GLP5        0.0000 
     28 N        -404.6305 -932.0675    0.7550 N.am      2 SEC2        0.0000 
     29 N        -403.5730 -933.1680    0.6120 N.am      8 SEL2        0.0000 
     30 N        -405.6880 -930.9670    0.8980 N.am      5 SEP2        0.0000 
     31 CA       -400.2970 -934.3880   -1.0130 C.3       3 GLC5        0.0000 
     32 CA       -402.0430 -934.2520   -0.7960 C.3       9 GLL5        0.0000 
     33 CA       -398.5510 -934.5240   -1.2300 C.3       6 GLP5        0.0000 
     34 N        -402.0570 -935.5945   -3.1430 N.am      2 SEC2        0.0000 
     35 N        -402.6560 -934.3530   -2.1300 N.am      8 SEL2        0.0000 
     36 N        -401.4580 -936.8360   -4.1560 N.am      5 SEP2        0.0000 
     37 N        -404.2205 -934.6785   -2.3095 N.am      2 SEC2        0.0000 
     38 N        -405.7850 -935.0040   -2.4890 N.am      5 SEP2        0.0000 
     39 O        -400.5770 -931.1330   -1.1650 O.2       1 ALC1        0.0000 
     40 O        -401.5970 -931.9820   -1.6150 O.2       7 ALL1        0.0000 
     41 O        -399.5570 -930.2840   -0.7150 O.2       4 ALP1        0.0000 
     42 CA       -402.3110 -930.3575    1.6690 C.3       3 GLC5        0.0000 
     43 CA       -402.3880 -932.2790    0.6650 C.3       9 GLL5        0.0000 
     44 CA       -402.2340 -928.4360    2.6730 C.3       6 GLP5        0.0000 
     45 CA       -404.1175 -933.7395    3.2490 C.3       3 GLC5        0.0000 
     46 CA       -402.3650 -932.4260    3.2100 C.3       9 GLL5        0.0000 
     47 CA       -405.8700 -935.0530    3.2880 C.3       6 GLP5        0.0000 
     48 CA       -404.3138 -934.8557    2.1557 C.3       3 GLC5        0.0000 
     49 CA       -400.1340 -933.2615    0.0540 C.3       3 GLC5        0.0000 
     50 CA       -398.3290 -933.9660    0.0130 C.3       6 GLP5        0.0000 
     51 CA       -402.5920 -930.8500   -0.4195 C.3       3 GLC5        0.0000 
     52 CA       -401.4900 -932.8350   -0.4750 C.3       9 GLL5        0.0000 
     53 CA       -403.2450 -929.1430   -0.9340 C.3       6 GLP5        0.0000 
     54 CA       -403.1997 -930.9253    4.4407 C.3       3 GLC5        0.0000 
     55 CA       -404.3660 -929.5290    5.0650 C.3       6 GLP5        0.0000 
@<TRIPOS>BOND
@<TRIPOS>SUBSTRUCTURE
     1 ALC1        4 GROUP        1 X    ALC  0     ROOT ALC X 1
     2 SEC2       12 GROUP        1 X    SEC  0     **** SEC X 2
     3 GLC5        1 GROUP        1 X    GLC  0     **** GLC X 6
     4 ALP1        6 GROUP        1 Y    ALP  0     ROOT ALP Y 8
     5 SEP2       14 GROUP        1 Y    SEP  0     **** SEP Y 9
     6 GLP5        3 GROUP        1 Y    GLP  0     **** GLP Y 13
     7 ALL1        5 GROUP        1 Z    ALL  0     ROOT ALL Z 15
     8 SEL2       13 GROUP        1 Z    SEL  0     **** SEL Z 16
     9 GLL5        2 GROUP        1 Z    GLL  0     **** GLL Z 20
@<TRIPOS>SET

