#    Name: 4f45_DN4_1_ligand
#    Modification time : Mon Mar 24 18:57:18 2014

@<TRIPOS>MOLECULE
4f45_DN4_1_ligand
   71    75     1     0     0
SMALL
NO_CHARGES


@<TRIPOS>ATOM
      1 PA       -400.9180 -938.5740    4.5770 P.3       1 DN4401      0.0000 
      2 O1A      -399.8180 -939.6010    4.6260 O.co2     1 DN4401      0.0000 
      3 O2A      -401.5830 -938.0530    5.7860 O.co2     1 DN4401      0.0000 
      4 O5B      -399.8770 -937.2990    4.7400 O.3       1 DN4401      0.0000 
      5 C5B      -400.3050 -935.9020    4.6080 C.3       1 DN4401      0.0000 
      6 C4B      -400.4600 -935.0680    5.9470 C.3       1 DN4401      0.0000 
      7 O4B      -401.8750 -934.6290    6.1640 O.3       1 DN4401      0.0000 
      8 C3B      -399.9970 -935.7170    7.2640 C.3       1 DN4401      0.0000 
      9 O3B      -399.3180 -934.7350    8.0370 O.3       1 DN4401      0.0000 
     10 C2B      -401.3050 -936.1100    7.9500 C.3       1 DN4401      0.0000 
     11 O2B      -401.2140 -936.0680    9.3860 O.3       1 DN4401      0.0000 
     12 C1B      -402.3180 -935.0720    7.4730 C.3       1 DN4401      0.0000 
     13 N9A      -403.6170 -935.8120    7.4720 N.pl3     1 DN4401      0.0000 
     14 C8A      -403.9070 -936.9240    6.7850 C.2       1 DN4401      0.0000 
     15 N7A      -405.1560 -937.3100    7.0560 N.2       1 DN4401      0.0000 
     16 C5A      -405.6630 -936.4380    7.9260 C.ar      1 DN4401      0.0000 
     17 C6A      -406.8950 -936.3130    8.5540 C.ar      1 DN4401      0.0000 
     18 N6A      -407.8590 -937.1960    8.3190 N.pl3     1 DN4401      0.0000 
     19 N1A      -407.1010 -935.2800    9.3930 N.ar      1 DN4401      0.0000 
     20 C2A      -406.1400 -934.3880    9.6360 C.ar      1 DN4401      0.0000 
     21 N3A      -404.9490 -934.4770    9.0570 N.ar      1 DN4401      0.0000 
     22 C4A      -404.6870 -935.4860    8.1960 C.ar      1 DN4401      0.0000 
     23 O3       -401.2930 -937.9730    3.1230 O.3       1 DN4401      0.0000 
     24 PN       -402.7610 -937.2830    2.7900 P.3       1 DN4401      0.0000 
     25 O1N      -403.3540 -936.7660    4.0580 O.co2     1 DN4401      0.0000 
     26 O2N      -403.6190 -938.1190    1.8910 O.co2     1 DN4401      0.0000 
     27 O5D      -402.0220 -936.1490    1.8360 O.3       1 DN4401      0.0000 
     28 C5D      -402.4560 -934.8310    1.7110 C.3       1 DN4401      0.0000 
     29 C4D      -403.0590 -934.4860    0.3360 C.3       1 DN4401      0.0000 
     30 O4D      -403.5730 -933.1680    0.6120 O.3       1 DN4401      0.0000 
     31 C3D      -402.0430 -934.2520   -0.7960 C.3       1 DN4401      0.0000 
     32 O3D      -402.6560 -934.3530   -2.1300 O.3       1 DN4401      0.0000 
     33 C2D      -401.4900 -932.8350   -0.4750 C.3       1 DN4401      0.0000 
     34 O2D      -401.5970 -931.9820   -1.6150 O.3       1 DN4401      0.0000 
     35 C1D      -402.3880 -932.2790    0.6650 C.3       1 DN4401      0.0000 
     36 N1N      -401.7130 -932.0770    2.0160 N.pl3     1 DN4401      0.0000 
     37 C2N      -400.4190 -931.4810    2.1210 C.ar      1 DN4401      0.0000 
     38 C3N      -399.7610 -931.2720    3.3420 C.ar      1 DN4401      0.0000 
     39 C7N      -398.3370 -930.6480    3.3760 C.2       1 DN4401      0.0000 
     40 O7N      -397.7730 -930.5520    2.2710 O.co2     1 DN4401      0.0000 
     41 C4N      -400.4200 -931.6510    4.5060 C.ar      1 DN4401      0.0000 
     42 C5N      -401.7020 -932.2170    4.4230 C.ar      1 DN4401      0.0000 
     43 C6N      -402.3650 -932.4260    3.2100 C.ar      1 DN4401      0.0000 
     44 P2B      -400.8880 -937.4130   10.2290 P.3       1 DN4401      0.0000 
     45 O1X      -401.4690 -938.6460    9.6520 O.co2     1 DN4401      0.0000 
     46 O2X      -399.2680 -937.4000   10.2790 O.co2     1 DN4401      0.0000 
     47 O3X      -401.4150 -937.1370   11.7320 O.co2     1 DN4401      0.0000 
     48 O8N      -397.8030 -930.2600    4.4570 O.co2     1 DN4401      0.0000 
     49 H        -401.2891 -935.8359    4.0829 H         1 DN4401      0.0000 
     50 H        -399.5956 -935.3284    3.9629 H         1 DN4401      0.0000 
     51 H        -399.8604 -934.1363    5.8187 H         1 DN4401      0.0000 
     52 H        -399.4442 -936.5677    7.0464 H         1 DN4401      0.0000 
     53 H        -401.6116 -937.0595    7.5788 H         1 DN4401      0.0000 
     54 H        -402.3347 -934.2936    8.1878 H         1 DN4401      0.0000 
     55 H        -403.2935 -937.3836    6.1757 H         1 DN4401      0.0000 
     56 H        -408.7312 -937.0279    8.7783 H         1 DN4401      0.0000 
     57 H        -407.6255 -937.9492    7.7040 H         1 DN4401      0.0000 
     58 H        -406.3340 -933.5921   10.3061 H         1 DN4401      0.0000 
     59 H        -401.6302 -934.0958    1.8864 H         1 DN4401      0.0000 
     60 H        -403.2346 -934.5687    2.4714 H         1 DN4401      0.0000 
     61 H        -403.8019 -935.1336    0.0759 H         1 DN4401      0.0000 
     62 H        -401.2397 -934.9457   -0.6547 H         1 DN4401      0.0000 
     63 H        -400.5088 -932.9332   -0.1036 H         1 DN4401      0.0000 
     64 H        -402.7284 -931.2785    0.2786 H         1 DN4401      0.0000 
     65 H        -399.9467 -931.1891    1.2360 H         1 DN4401      0.0000 
     66 H        -399.9789 -931.5209    5.4198 H         1 DN4401      0.0000 
     67 H        -402.1811 -932.4943    5.3107 H         1 DN4401      0.0000 
     68 H        -403.2999 -932.8223    3.1896 H         1 DN4401      0.0000 
     69 H        -399.5434 -934.9522    8.9867 H         1 DN4401      0.0000 
     70 H        -402.4948 -933.4631   -2.5568 H         1 DN4401      0.0000 
     71 H        -400.9254 -931.2575   -1.4599 H         1 DN4401      0.0000 
@<TRIPOS>BOND
     1    2    1 ar   
     2    3    1 ar   
     3    4    1 1    
     4   23    1 1    
     5    5    4 1    
     6    6    5 1    
     7   49    5 1    
     8   50    5 1    
     9    7    6 1    
    10    8    6 1    
    11   51    6 1    
    12   12    7 1    
    13    9    8 1    
    14   10    8 1    
    15   52    8 1    
    16   69    9 1    
    17   11   10 1    
    18   12   10 1    
    19   53   10 1    
    20   44   11 1    
    21   13   12 1    
    22   54   12 1    
    23   14   13 1    
    24   22   13 1    
    25   15   14 2    
    26   55   14 1    
    27   16   15 1    
    28   17   16 ar   
    29   22   16 ar   
    30   18   17 1    
    31   19   17 ar   
    32   56   18 1    
    33   57   18 1    
    34   20   19 ar   
    35   21   20 ar   
    36   58   20 1    
    37   22   21 ar   
    38   24   23 1    
    39   25   24 ar   
    40   26   24 ar   
    41   27   24 1    
    42   28   27 1    
    43   29   28 1    
    44   59   28 1    
    45   60   28 1    
    46   30   29 1    
    47   31   29 1    
    48   61   29 1    
    49   35   30 1    
    50   32   31 1    
    51   33   31 1    
    52   62   31 1    
    53   70   32 1    
    54   34   33 1    
    55   35   33 1    
    56   63   33 1    
    57   71   34 1    
    58   36   35 1    
    59   64   35 1    
    60   37   36 ar   
    61   43   36 ar   
    62   38   37 ar   
    63   65   37 1    
    64   39   38 1    
    65   41   38 ar   
    66   40   39 ar   
    67   48   39 ar   
    68   42   41 ar   
    69   66   41 1    
    70   43   42 ar   
    71   67   42 1    
    72   68   43 1    
    73   45   44 ar   
    74   46   44 ar   
    75   47   44 ar   
@<TRIPOS>SUBSTRUCTURE
     1 DN4401      1 GROUP   
@<TRIPOS>SET

