#    Name: 4l6z_1DC_1_INTS_M
#    Modification time : Tue Mar 25 09:50:45 2014

@<TRIPOS>MOLECULE
4l6z_1DC_1_INTS_M
   52     0     9     0     0
SMALL
NO_CHARGES


@<TRIPOS>ATOM
      1 N          25.3330    0.7380   11.9355 N.am      2 SEC2        0.0000 
      2 N          24.8770   -0.3920   12.3150 N.am      8 SEL2        0.0000 
      3 N          25.7890    1.8680   11.5560 N.am      5 SEP2        0.0000 
      4 CA         25.5840   -4.8830   16.5275 C.3       3 GLC5        0.0000 
      5 CA         24.4080   -3.9430   15.7120 C.3       9 GLL5        0.0000 
      6 CA         26.7600   -5.8230   17.3430 C.3       6 GLP5        0.0000 
      7 CA         19.0695   -6.4915   14.5100 C.3       3 GLC5        0.0000 
      8 CA         20.2910   -5.1060   13.5310 C.3       9 GLL5        0.0000 
      9 CA         17.8480   -7.8770   15.4890 C.3       6 GLP5        0.0000 
     10 CA         17.6395   -5.2310   14.3800 C.3       3 GLC5        0.0000 
     11 CA         18.9130   -4.6130   13.0330 C.3       9 GLL5        0.0000 
     12 CA         16.3660   -5.8490   15.7270 C.3       6 GLP5        0.0000 
     13 CA         15.3210   -7.4970    8.4185 C.3       3 GLC5        0.0000 
     14 CA         15.5270   -8.1860   10.3950 C.3       9 GLL5        0.0000 
     15 CA         15.1150   -6.8080    6.4420 C.3       6 GLP5        0.0000 
     16 CA         14.1780   -9.7805   11.0155 C.3       3 GLC5        0.0000 
     17 CA         12.8290  -11.3750   11.6360 C.3       6 GLP5        0.0000 
     18 CA         13.8110   -7.5715   11.6815 C.3       3 GLC5        0.0000 
     19 CA         12.0950   -6.9570   12.9680 C.3       6 GLP5        0.0000 
     20 N          14.2725   -4.3455   11.5360 N.am      2 SEC2        0.0000 
     21 N          14.7930   -5.6030   11.1390 N.am      8 SEL2        0.0000 
     22 N          13.7520   -3.0880   11.9330 N.am      5 SEP2        0.0000 
     23 N          13.5100   -5.9385   10.8985 N.am      2 SEC2        0.0000 
     24 N          12.2270   -6.2740   10.6580 N.am      5 SEP2        0.0000 
     25 O          16.4445   -4.0625   12.7040 O.2       1 ALC1        0.0000 
     26 O          16.8080   -5.1940   12.0350 O.2       7 ALL1        0.0000 
     27 O          16.0810   -2.9310   13.3730 O.2       4 ALP1        0.0000 
     28 CA         24.0640   -1.0897   16.2572 C.3       3 GLC5        0.0000 
     29 CA         23.8200   -0.8750   14.4610 C.3       9 GLL5        0.0000 
     30 CA         24.3300   -0.6170   18.2030 C.3       6 GLP5        0.0000 
     31 CA         23.1943    1.1835   15.1113 C.3       3 GLC5        0.0000 
     32 CA         22.2930    2.7730   16.2100 C.3       6 GLP5        0.0000 
     33 CA         26.5192   -2.7700   12.7843 C.3       3 GLC5        0.0000 
     34 CA         24.2980   -2.6920   12.9430 C.3       9 GLL5        0.0000 
     35 CA         28.4720   -3.3010   13.0920 C.3       6 GLP5        0.0000 
     36 CA         26.0084   -1.2955   14.3206 C.3       3 GLC5        0.0000 
     37 CA         23.7760   -2.2500   14.1620 C.3       9 GLL5        0.0000 
     38 CA         28.0810   -1.2630   14.5540 C.3       6 GLP5        0.0000 
     39 CA         24.0760   -2.0853   16.8060 C.3       3 GLC5        0.0000 
     40 CA         18.5505   -8.0000    9.6850 C.3       3 GLC5        0.0000 
     41 CA         17.6660   -7.6680   11.3760 C.3       9 GLL5        0.0000 
     42 CA         19.2190   -7.6940    8.1390 C.3       6 GLP5        0.0000 
     43 CA         17.9250   -8.6783    9.1913 C.3       3 GLC5        0.0000 
     44 CA         17.2670   -9.8560   10.4240 C.3       9 GLL5        0.0000 
     45 CA         15.7860  -11.0938   11.3247 C.3       3 GLC5        0.0000 
     46 CA         14.9410  -12.5250   12.4060 C.3       6 GLP5        0.0000 
     47 CA         16.5825  -11.5023    9.4317 C.3       3 GLC5        0.0000 
     48 CA         15.9950   -9.4690   10.0630 C.3       9 GLL5        0.0000 
     49 CA         16.5340  -13.3420    8.6200 C.3       6 GLP5        0.0000 
     50 CA         13.8200   -8.9518    9.5175 C.3       3 GLC5        0.0000 
     51 CA         11.8790   -9.0760    8.8060 C.3       6 GLP5        0.0000 
     52 CA         17.5795   -7.7177    9.4322 C.3       3 GLC5        0.0000 
@<TRIPOS>BOND
@<TRIPOS>SUBSTRUCTURE
     1 ALC1       25 GROUP        1 X    ALC  0     ROOT ALC X 1
     2 SEC2        1 GROUP        1 X    SEC  0     **** SEC X 2
     3 GLC5        4 GROUP        1 X    GLC  0     **** GLC X 6
     4 ALP1       27 GROUP        1 Y    ALP  0     ROOT ALP Y 8
     5 SEP2        3 GROUP        1 Y    SEP  0     **** SEP Y 9
     6 GLP5        6 GROUP        1 Y    GLP  0     **** GLP Y 13
     7 ALL1       26 GROUP        1 Z    ALL  0     ROOT ALL Z 15
     8 SEL2        2 GROUP        1 Z    SEL  0     **** SEL Z 16
     9 GLL5        5 GROUP        1 Z    GLL  0     **** GLL Z 20
@<TRIPOS>SET

