#    Name: 4l6z_1DC_1_ligand
#    Modification time : Tue Mar 25 09:50:45 2014

@<TRIPOS>MOLECULE
4l6z_1DC_1_ligand
   42    44     1     0     0
SMALL
NO_CHARGES


@<TRIPOS>ATOM
      1 CAH        23.8200   -0.8750   14.4610 C.ar      1 1DC601      0.0000 
      2 CAF        24.3710    0.0630   13.5640 C.ar      1 1DC601      0.0000 
      3 NAN        24.8770   -0.3920   12.3150 N.ar      1 1DC601      0.0000 
      4 CAG        24.8350   -1.7860   12.0100 C.ar      1 1DC601      0.0000 
      5 CAI        24.2980   -2.6920   12.9430 C.ar      1 1DC601      0.0000 
      6 CAS        23.7760   -2.2500   14.1620 C.ar      1 1DC601      0.0000 
      7 CAX        23.2360   -3.1640   15.1060 C.3       1 1DC601      0.0000 
      8 CAA        24.4080   -3.9430   15.7120 C.3       1 1DC601      0.0000 
      9 NAP        22.2960   -4.1620   14.5430 N.am      1 1DC601      0.0000 
     10 CAR        21.0520   -3.8860   14.0830 C.2       1 1DC601      0.0000 
     11 OAB        20.5820   -2.7490   14.0060 O.2       1 1DC601      0.0000 
     12 CAL        20.2910   -5.1060   13.5310 C.3       1 1DC601      0.0000 
     13 CAM        18.9130   -4.6130   13.0330 C.3       1 1DC601      0.0000 
     14 CAT        18.1030   -5.5900   12.3760 C.2       1 1DC601      0.0000 
     15 NAO        18.5020   -6.8270   12.0280 N.2       1 1DC601      0.0000 
     16 CAV        17.6660   -7.6680   11.3760 C.ar      1 1DC601      0.0000 
     17 CAJ        18.0980   -8.9440   11.0860 C.ar      1 1DC601      0.0000 
     18 CAD        17.2670   -9.8560   10.4240 C.ar      1 1DC601      0.0000 
     19 CAE        15.9950   -9.4690   10.0630 C.ar      1 1DC601      0.0000 
     20 CAK        15.5270   -8.1860   10.3950 C.ar      1 1DC601      0.0000 
     21 CAW        16.3530   -7.2970   11.0560 C.ar      1 1DC601      0.0000 
     22 CAU        15.9260   -6.0170   11.3790 C.2       1 1DC601      0.0000 
     23 OAC        14.7930   -5.6030   11.1390 O.2       1 1DC601      0.0000 
     24 NAQ        16.8080   -5.1940   12.0350 N.am      1 1DC601      0.0000 
     25 H          23.4377   -0.5427   15.3635 H         1 1DC601      0.0000 
     26 H          24.4085    1.0470   13.8002 H         1 1DC601      0.0000 
     27 H          25.1955   -2.1151   11.1160 H         1 1DC601      0.0000 
     28 H          24.2912   -3.7000   12.7196 H         1 1DC601      0.0000 
     29 H          22.7605   -2.6478   15.9340 H         1 1DC601      0.0000 
     30 H          22.6712   -5.1498   14.5202 H         1 1DC601      0.0000 
     31 H          20.1485   -5.8240   14.3144 H         1 1DC601      0.0000 
     32 H          20.8355   -5.5259   12.7084 H         1 1DC601      0.0000 
     33 H          19.1081   -3.7335   12.3670 H         1 1DC601      0.0000 
     34 H          18.3861   -4.1807   13.9222 H         1 1DC601      0.0000 
     35 H          19.0524   -9.2430   11.3584 H         1 1DC601      0.0000 
     36 H          17.6103  -10.7976   10.2152 H         1 1DC601      0.0000 
     37 H          15.3769  -10.1114    9.5492 H         1 1DC601      0.0000 
     38 H          14.5675   -7.9187   10.1412 H         1 1DC601      0.0000 
     39 H          16.5048   -4.2229   12.2958 H         1 1DC601      0.0000 
     40 H          24.9195   -4.4460   15.0153 H         1 1DC601      0.0000 
     41 H          25.0574   -3.3380   16.1727 H         1 1DC601      0.0000 
     42 H          24.0993   -4.6114   16.3887 H         1 1DC601      0.0000 
@<TRIPOS>BOND
     1    2    1 ar   
     2    6    1 ar   
     3   25    1 1    
     4    3    2 ar   
     5   26    2 1    
     6    4    3 ar   
     7    5    4 ar   
     8   27    4 1    
     9    6    5 ar   
    10   28    5 1    
    11    7    6 1    
    12    8    7 1    
    13    9    7 1    
    14   29    7 1    
    15   40    8 1    
    16   41    8 1    
    17   42    8 1    
    18   10    9 am   
    19   30    9 1    
    20   11   10 2    
    21   12   10 1    
    22   13   12 1    
    23   31   12 1    
    24   32   12 1    
    25   14   13 1    
    26   33   13 1    
    27   34   13 1    
    28   15   14 2    
    29   24   14 1    
    30   16   15 1    
    31   17   16 ar   
    32   21   16 ar   
    33   18   17 ar   
    34   35   17 1    
    35   19   18 ar   
    36   36   18 1    
    37   20   19 ar   
    38   37   19 1    
    39   21   20 ar   
    40   38   20 1    
    41   22   21 1    
    42   23   22 2    
    43   24   22 am   
    44   39   24 1    
@<TRIPOS>SUBSTRUCTURE
     1 1DC601      1 GROUP   
@<TRIPOS>SET

