#    Name: 3crl_ANP_1_INTS_M
#    Modification time : Mon Mar 24 22:14:22 2014

@<TRIPOS>MOLECULE
3crl_ANP_1_INTS_M
   48     0    12     0     0
SMALL
NO_CHARGES


@<TRIPOS>ATOM
      1 N          56.4790  114.3905   55.8310 N.am      2 SEC2        0.0000 
      2 N          55.3030  115.5730   56.0190 N.am     10 SEL2        0.0000 
      3 N          57.6550  113.2080   55.6430 N.am      6 SEP2        0.0000 
      4 N          51.7985  116.4590   55.5465 N.am      2 SEC2        0.0000 
      5 N          52.7970  115.3930   55.6050 N.am     10 SEL2        0.0000 
      6 N          50.8000  117.5250   55.4880 N.am      6 SEP2        0.0000 
      7 Zn         54.5330  115.0275   52.9125 Zn        3 ZIC7        0.0000 
      8 Zn         54.4670  114.7700   53.8180 Zn       11 ZIL7        0.0000 
      9 Zn         54.5990  115.2850   52.0070 Zn        7 ZIP7        0.0000 
     10 Zn         54.7220  116.3485   51.9385 Zn        3 ZIC7        0.0000 
     11 Zn         54.8450  117.4120   51.8700 Zn       11 ZIL7        0.0000 
     12 N          58.9665  114.2665   53.2715 N.am      2 SEC2        0.0000 
     13 N          58.7520  115.6940   53.3300 N.am     10 SEL2        0.0000 
     14 N          59.1810  112.8390   53.2130 N.am      6 SEP2        0.0000 
     15 Zn         55.6545  115.2660   51.8795 Zn        3 ZIC7        0.0000 
     16 Zn         56.7100  115.2470   51.7520 Zn       11 ZIL7        0.0000 
     17 N          56.7825  115.0045   50.3845 N.am      2 SEC2        0.0000 
     18 N          56.7100  115.2470   51.7520 N.am     10 SEL2        0.0000 
     19 N          56.8550  114.7620   49.0170 N.am      6 SEP2        0.0000 
     20 CA         59.7000  116.9760   51.0350 C.3       4 GLC5        0.0000 
     21 CA         58.8470  118.4410   52.1580 C.3      12 GLL5        0.0000 
     22 CA         60.5530  115.5110   49.9120 C.3       8 GLP5        0.0000 
     23 CA         60.6305  120.0650   50.6610 C.3       4 GLC5        0.0000 
     24 CA         58.8060  119.6360   51.2190 C.3      12 GLL5        0.0000 
     25 CA         62.4550  120.4940   50.1030 C.3       8 GLP5        0.0000 
     26 N          55.3555  121.6670   51.2830 N.am      2 SEC2        0.0000 
     27 N          56.7580  120.8460   51.7250 N.am     10 SEL2        0.0000 
     28 N          53.9530  122.4880   50.8410 N.am      6 SEP2        0.0000 
     29 CA         60.6235  119.4035   48.5390 C.3       4 GLC5        0.0000 
     30 CA         58.8370  119.9340   48.8850 C.3      12 GLL5        0.0000 
     31 CA         62.4100  118.8730   48.1930 C.3       8 GLP5        0.0000 
     32 CA         55.7625  119.2745   44.1860 C.3       4 GLC5        0.0000 
     33 CA         57.3660  117.9690   44.5550 C.3      12 GLL5        0.0000 
     34 CA         54.1590  120.5800   43.8170 C.3       8 GLP5        0.0000 
     35 CA         58.5815  117.7030   42.7385 C.3       4 GLC5        0.0000 
     36 CA         59.7970  117.4370   40.9220 C.3       8 GLP5        0.0000 
     37 O          56.7710  116.5750   42.3030 O.2       1 ALC1        0.0000 
     38 O          57.0590  116.8270   43.8920 O.2       9 ALL1        0.0000 
     39 O          56.4830  116.3230   40.7140 O.2       5 ALP1        0.0000 
     40 CA         55.8725  120.4555   44.2060 C.3       4 GLC5        0.0000 
     41 CA         57.5860  120.3310   44.5950 C.3      12 GLL5        0.0000 
     42 CA         59.3015  120.9270   44.7410 C.3       4 GLC5        0.0000 
     43 CA         61.0170  121.5230   44.8870 C.3       8 GLP5        0.0000 
     44 CA         59.5560  120.3720   45.7465 C.3       4 GLC5        0.0000 
     45 CA         58.0950  119.2210   46.6060 C.3      12 GLL5        0.0000 
     46 CA         56.4375  116.7980   46.3275 C.3       4 GLC5        0.0000 
     47 CA         57.7900  117.9310   45.9670 C.3      12 GLL5        0.0000 
     48 CA         55.2970  115.6460   47.3940 C.3       8 GLP5        0.0000 
@<TRIPOS>BOND
@<TRIPOS>SUBSTRUCTURE
     1 ALC1       37 GROUP        1 X    ALC  0     ROOT ALC X 1
     2 SEC2        1 GROUP        1 X    SEC  0     **** SEC X 2
     3 ZIC7        7 GROUP        1 X    ZIC  0     **** ZIC X 5
     4 GLC5       20 GROUP        1 X    GLC  0     **** GLC X 6
     5 ALP1       39 GROUP        1 Y    ALP  0     ROOT ALP Y 8
     6 SEP2        3 GROUP        1 Y    SEP  0     **** SEP Y 9
     7 ZIP7        9 GROUP        1 Y    ZIP  0     **** ZIP Y 12
     8 GLP5       22 GROUP        1 Y    GLP  0     **** GLP Y 13
     9 ALL1       38 GROUP        1 Z    ALL  0     ROOT ALL Z 15
    10 SEL2        2 GROUP        1 Z    SEL  0     **** SEL Z 16
    11 ZIL7        8 GROUP        1 Z    ZIL  0     **** ZIL Z 19
    12 GLL5       21 GROUP        1 Z    GLL  0     **** GLL Z 20
@<TRIPOS>SET

