#    Name: 3crl_ANP_1_ligand
#    Modification time : Mon Mar 24 22:14:22 2014

@<TRIPOS>MOLECULE
3crl_ANP_1_ligand
   43    45     1     0     0
SMALL
NO_CHARGES


@<TRIPOS>ATOM
      1 PG         54.1700  115.6240   55.0250 P.3       1 ANP1000     0.0000 
      2 O1G        55.3030  115.5730   56.0190 O.co2     1 ANP1000     0.0000 
      3 O2G        52.7970  115.3930   55.6050 O.co2     1 ANP1000     0.0000 
      4 O3G        54.4670  114.7700   53.8180 O.co2     1 ANP1000     0.0000 
      5 PB         55.2880  117.7870   53.2650 P.3       1 ANP1000     0.0000 
      6 O1B        54.8450  117.4120   51.8700 O.co2     1 ANP1000     0.0000 
      7 O2B        55.6230  119.2340   53.5360 O.co2     1 ANP1000     0.0000 
      8 N3B        54.0820  117.2580   54.4070 N.4       1 ANP1000     0.0000 
      9 PA         57.5450  116.2020   52.5630 P.3       1 ANP1000     0.0000 
     10 O1A        58.7520  115.6940   53.3300 O.co2     1 ANP1000     0.0000 
     11 O2A        56.7100  115.2470   51.7520 O.co2     1 ANP1000     0.0000 
     12 O3A        56.6060  116.9470   53.6420 O.3       1 ANP1000     0.0000 
     13 O5'        58.0030  117.4200   51.6260 O.3       1 ANP1000     0.0000 
     14 C5'        58.8470  118.4410   52.1580 C.3       1 ANP1000     0.0000 
     15 C4'        58.8060  119.6360   51.2190 C.3       1 ANP1000     0.0000 
     16 O4'        59.4740  119.3050   50.0060 O.3       1 ANP1000     0.0000 
     17 C3'        57.3970  119.9830   50.7800 C.3       1 ANP1000     0.0000 
     18 O3'        56.7580  120.8460   51.7250 O.3       1 ANP1000     0.0000 
     19 C2'        57.5850  120.6030   49.4080 C.3       1 ANP1000     0.0000 
     20 O2'        57.8490  122.0100   49.4690 O.3       1 ANP1000     0.0000 
     21 C1'        58.8370  119.9340   48.8850 C.3       1 ANP1000     0.0000 
     22 N9         58.4470  118.9320   47.8630 N.pl3     1 ANP1000     0.0000 
     23 C8         58.3810  117.5970   48.0350 C.2       1 ANP1000     0.0000 
     24 N7         57.9860  116.9800   46.8930 N.2       1 ANP1000     0.0000 
     25 C5         57.7900  117.9310   45.9670 C.ar      1 ANP1000     0.0000 
     26 C6         57.3660  117.9690   44.5550 C.ar      1 ANP1000     0.0000 
     27 N6         57.0590  116.8270   43.8920 N.pl3     1 ANP1000     0.0000 
     28 N1         57.2940  119.1830   43.9540 N.ar      1 ANP1000     0.0000 
     29 C2         57.5860  120.3310   44.5950 C.ar      1 ANP1000     0.0000 
     30 N3         57.9730  120.3680   45.8830 N.ar      1 ANP1000     0.0000 
     31 C4         58.0950  119.2210   46.6060 C.ar      1 ANP1000     0.0000 
     32 H          59.8838  118.1093   52.2384 H         1 ANP1000     0.0000 
     33 H          58.5116  118.7726   53.1424 H         1 ANP1000     0.0000 
     34 H          59.2449  120.4842   51.6802 H         1 ANP1000     0.0000 
     35 H          56.8687  119.0487   50.6473 H         1 ANP1000     0.0000 
     36 H          56.7823  120.3449   48.7860 H         1 ANP1000     0.0000 
     37 H          59.4602  120.6832   48.4507 H         1 ANP1000     0.0000 
     38 H          58.5895  117.1293   48.8715 H         1 ANP1000     0.0000 
     39 H          57.0828  115.9852   44.4312 H         1 ANP1000     0.0000 
     40 H          56.8359  116.9275   42.9224 H         1 ANP1000     0.0000 
     41 H          57.5072  121.2454   44.0606 H         1 ANP1000     0.0000 
     42 H          56.3193  120.2317   52.3809 H         1 ANP1000     0.0000 
     43 H          57.7469  122.3334   48.5283 H         1 ANP1000     0.0000 
@<TRIPOS>BOND
     1    2    1 ar   
     2    3    1 ar   
     3    4    1 ar   
     4    8    1 1    
     5    6    5 ar   
     6    7    5 ar   
     7    8    5 1    
     8   12    5 1    
     9   10    9 ar   
    10   11    9 ar   
    11   12    9 1    
    12   13    9 1    
    13   14   13 1    
    14   15   14 1    
    15   32   14 1    
    16   33   14 1    
    17   16   15 1    
    18   17   15 1    
    19   34   15 1    
    20   21   16 1    
    21   18   17 1    
    22   19   17 1    
    23   35   17 1    
    24   42   18 1    
    25   20   19 1    
    26   21   19 1    
    27   36   19 1    
    28   43   20 1    
    29   22   21 1    
    30   37   21 1    
    31   23   22 1    
    32   31   22 1    
    33   24   23 2    
    34   38   23 1    
    35   25   24 1    
    36   26   25 ar   
    37   31   25 ar   
    38   27   26 1    
    39   28   26 ar   
    40   39   27 1    
    41   40   27 1    
    42   29   28 ar   
    43   30   29 ar   
    44   41   29 1    
    45   31   30 ar   
@<TRIPOS>SUBSTRUCTURE
     1 ANP1000     1 GROUP   
@<TRIPOS>SET

