#    Name: 3ocv_AMP_1_INTS_M
#    Modification time : Tue Mar 25 03:40:44 2014

@<TRIPOS>MOLECULE
3ocv_AMP_1_INTS_M
   50     0    15     0     0
SMALL
NO_CHARGES


@<TRIPOS>ATOM
      1 N          40.2850  -15.0645   -6.3995 N.am      2 SEC2        0.0000 
      2 N          40.4530  -15.4040   -7.7590 N.am     12 SEL2        0.0000 
      3 N          40.1170  -14.7250   -5.0400 N.am      7 SEP2        0.0000 
      4 N          40.1470  -16.6220   -8.0515 N.am      2 SEC2        0.0000 
      5 N          39.8410  -17.8400   -8.3440 N.am      7 SEP2        0.0000 
      6 Zn         40.9900  -12.1915   -7.4310 Zn        4 ZIC7        0.0000 
      7 Zn         41.3880  -13.0220   -7.8740 Zn       14 ZIL7        0.0000 
      8 Zn         40.5920  -11.3610   -6.9880 Zn        9 ZIP7        0.0000 
      9 NZ         39.4810  -13.7995  -10.5115 N.4       3 LYC4        0.0000 
     10 NZ         40.7600  -14.2170   -9.9330 N.4      13 LYL4        0.0000 
     11 NZ         38.2020  -13.3820  -11.0900 N.4       8 LYP4        0.0000 
     12 N          40.7295  -15.5495  -10.4395 N.am      2 SEC2        0.0000 
     13 N          40.7600  -14.2170   -9.9330 N.am     12 SEL2        0.0000 
     14 N          40.6990  -16.8820  -10.9460 N.am      7 SEP2        0.0000 
     15 N          39.4810  -13.7995  -10.5115 N.am      2 SEC2        0.0000 
     16 N          38.2020  -13.3820  -11.0900 N.am      7 SEP2        0.0000 
     17 N          42.9920  -15.6630   -7.5620 N.am      2 SEC2        0.0000 
     18 N          42.7150  -14.9270   -8.7280 N.am     12 SEL2        0.0000 
     19 N          43.2690  -16.3990   -6.3960 N.am      7 SEP2        0.0000 
     20 CA         43.1910  -14.2530   -7.0325 C.3       5 GLC5        0.0000 
     21 CA         43.8140  -14.0560   -8.9100 C.3      15 GLL5        0.0000 
     22 CA         42.5680  -14.4500   -5.1550 C.3      10 GLP5        0.0000 
     23 CA         44.8495  -12.3110   -7.9590 C.3       5 GLC5        0.0000 
     24 CA         45.8850  -10.5660   -7.0080 C.3      10 GLP5        0.0000 
     25 O          44.5285  -17.6630   -9.8895 O.2       1 ALC1        0.0000 
     26 O          45.0140  -17.0770   -8.5750 O.2      11 ALL1        0.0000 
     27 O          44.0430  -18.2490  -11.2040 O.2       6 ALP1        0.0000 
     28 O          46.8905  -18.0260  -10.3980 O.2       1 ALC1        0.0000 
     29 O          47.1680  -16.6920  -10.2410 O.2      11 ALL1        0.0000 
     30 O          46.6130  -19.3600  -10.5550 O.2       6 ALP1        0.0000 
     31 CA         52.0910  -11.6245   -7.9465 C.3       5 GLC5        0.0000 
     32 CA         50.2930  -11.0070   -7.5810 C.3      15 GLL5        0.0000 
     33 CA         53.8890  -12.2420   -8.3120 C.3      10 GLP5        0.0000 
     34 N          49.9975   -9.2325   -9.4550 N.am      2 SEC2        0.0000 
     35 N          50.6010  -10.5260   -8.8030 N.am     12 SEL2        0.0000 
     36 N          49.3940   -7.9390  -10.1070 N.am      7 SEP2        0.0000 
     37 CA         51.9875  -11.6435   -9.1210 C.3       5 GLC5        0.0000 
     38 CA         50.0860  -11.0450   -9.9300 C.3      15 GLL5        0.0000 
     39 CA         43.4735  -15.2620  -10.7820 C.3       5 GLC5        0.0000 
     40 CA         45.0020  -14.7860   -9.4800 C.3      15 GLL5        0.0000 
     41 CA         42.5390  -16.1030  -12.3690 C.3      10 GLP5        0.0000 
     42 CA         46.8950  -16.7080   -7.3338 C.3       5 GLC5        0.0000 
     43 CA         45.6610  -15.8130   -8.5630 C.3      15 GLL5        0.0000 
     44 CA         47.4150  -17.5770   -5.8430 C.3      10 GLP5        0.0000 
     45 CA         49.1080  -15.2087   -9.2782 C.3       5 GLC5        0.0000 
     46 CA         47.0890  -15.8650   -9.0860 C.3      15 GLL5        0.0000 
     47 CA         51.0170  -15.2760   -9.2550 C.3      10 GLP5        0.0000 
     48 CA         49.2785   -9.8167   -7.1120 C.3       5 GLC5        0.0000 
     49 CA         49.3390  -12.1320   -7.5010 C.3      15 GLL5        0.0000 
     50 CA         48.7410   -8.0640   -6.6830 C.3      10 GLP5        0.0000 
@<TRIPOS>BOND
@<TRIPOS>SUBSTRUCTURE
     1 ALC1       25 GROUP        1 X    ALC  0     ROOT ALC X 1
     2 SEC2        1 GROUP        1 X    SEC  0     **** SEC X 2
     3 LYC4        9 GROUP        1 X    LYC  0     **** LYC X 4
     4 ZIC7        6 GROUP        1 X    ZIC  0     **** ZIC X 5
     5 GLC5       20 GROUP        1 X    GLC  0     **** GLC X 6
     6 ALP1       27 GROUP        1 Y    ALP  0     ROOT ALP Y 8
     7 SEP2        3 GROUP        1 Y    SEP  0     **** SEP Y 9
     8 LYP4       11 GROUP        1 Y    LYP  0     **** LYP Y 11
     9 ZIP7        8 GROUP        1 Y    ZIP  0     **** ZIP Y 12
    10 GLP5       22 GROUP        1 Y    GLP  0     **** GLP Y 13
    11 ALL1       26 GROUP        1 Z    ALL  0     ROOT ALL Z 15
    12 SEL2        2 GROUP        1 Z    SEL  0     **** SEL Z 16
    13 LYL4       10 GROUP        1 Z    LYL  0     **** LYL Z 18
    14 ZIL7        7 GROUP        1 Z    ZIL  0     **** ZIL Z 19
    15 GLL5       21 GROUP        1 Z    GLL  0     **** GLL Z 20
@<TRIPOS>SET

