#    Name: 3ocv_AMP_1_ligand
#    Modification time : Tue Mar 25 03:40:44 2014

@<TRIPOS>MOLECULE
3ocv_AMP_1_ligand
   35    37     1     0     0
SMALL
NO_CHARGES


@<TRIPOS>ATOM
      1 P          41.2480  -14.3570   -8.5120 P.3       1 AMP263      0.0000 
      2 O1P        40.4530  -15.4040   -7.7590 O.co2     1 AMP263      0.0000 
      3 O2P        41.3880  -13.0220   -7.8740 O.co2     1 AMP263      0.0000 
      4 O3P        40.7600  -14.2170   -9.9330 O.co2     1 AMP263      0.0000 
      5 O5'        42.7150  -14.9270   -8.7280 O.3       1 AMP263      0.0000 
      6 C5'        43.8140  -14.0560   -8.9100 C.3       1 AMP263      0.0000 
      7 C4'        45.0020  -14.7860   -9.4800 C.3       1 AMP263      0.0000 
      8 O4'        46.0510  -13.8330   -9.7500 O.3       1 AMP263      0.0000 
      9 C3'        45.6610  -15.8130   -8.5630 C.3       1 AMP263      0.0000 
     10 O3'        45.0140  -17.0770   -8.5750 O.3       1 AMP263      0.0000 
     11 C2'        47.0890  -15.8650   -9.0860 C.3       1 AMP263      0.0000 
     12 O2'        47.1680  -16.6920  -10.2410 O.3       1 AMP263      0.0000 
     13 C1'        47.3090  -14.4180   -9.5170 C.3       1 AMP263      0.0000 
     14 N9         48.0100  -13.6340   -8.4850 N.pl3     1 AMP263      0.0000 
     15 C8         47.9760  -13.7930   -7.1450 C.2       1 AMP263      0.0000 
     16 N7         48.7860  -12.8850   -6.5280 N.2       1 AMP263      0.0000 
     17 C5         49.3390  -12.1320   -7.5010 C.ar      1 AMP263      0.0000 
     18 C6         50.2930  -11.0070   -7.5810 C.ar      1 AMP263      0.0000 
     19 N6         50.8290  -10.4730   -6.4670 N.pl3     1 AMP263      0.0000 
     20 N1         50.6010  -10.5260   -8.8030 N.ar      1 AMP263      0.0000 
     21 C2         50.0860  -11.0450   -9.9300 C.ar      1 AMP263      0.0000 
     22 N3         49.2240  -12.0750   -9.9390 N.ar      1 AMP263      0.0000 
     23 C4         48.8300  -12.6380   -8.7790 C.ar      1 AMP263      0.0000 
     24 H          44.1269  -13.5908   -7.9561 H         1 AMP263      0.0000 
     25 H          43.5650  -13.2246   -9.5963 H         1 AMP263      0.0000 
     26 H          44.7310  -15.2790  -10.4003 H         1 AMP263      0.0000 
     27 H          45.7051  -15.3662   -7.5760 H         1 AMP263      0.0000 
     28 H          47.7390  -16.0967   -8.3206 H         1 AMP263      0.0000 
     29 H          47.8984  -14.4301  -10.4252 H         1 AMP263      0.0000 
     30 H          47.4453  -14.4655   -6.6727 H         1 AMP263      0.0000 
     31 H          51.4972   -9.7422   -6.6069 H         1 AMP263      0.0000 
     32 H          50.5111  -10.8548   -5.5991 H         1 AMP263      0.0000 
     33 H          50.3758  -10.6183  -10.8630 H         1 AMP263      0.0000 
     34 H          44.8247  -17.2616   -9.5394 H         1 AMP263      0.0000 
     35 H          46.9633  -17.6143   -9.9133 H         1 AMP263      0.0000 
@<TRIPOS>BOND
     1    2    1 ar   
     2    3    1 ar   
     3    4    1 ar   
     4    5    1 1    
     5    6    5 1    
     6    7    6 1    
     7   24    6 1    
     8   25    6 1    
     9    8    7 1    
    10    9    7 1    
    11   26    7 1    
    12   13    8 1    
    13   10    9 1    
    14   11    9 1    
    15   27    9 1    
    16   34   10 1    
    17   12   11 1    
    18   13   11 1    
    19   28   11 1    
    20   35   12 1    
    21   14   13 1    
    22   29   13 1    
    23   15   14 1    
    24   23   14 1    
    25   16   15 2    
    26   30   15 1    
    27   17   16 1    
    28   18   17 ar   
    29   23   17 ar   
    30   19   18 1    
    31   20   18 ar   
    32   31   19 1    
    33   32   19 1    
    34   21   20 ar   
    35   22   21 ar   
    36   33   21 1    
    37   23   22 ar   
@<TRIPOS>SUBSTRUCTURE
     1 AMP263      1 GROUP   
@<TRIPOS>SET

