#    Name: 2PO3_2_CAVITY_N1_6.mol2
#    Modification time : Tue Mar 11 05:41:37 2014

@<TRIPOS>MOLECULE
2PO3_2_CAVITY_N1_6.mol2
   69     0     7     0     0
SMALL
NO_CHARGES


@<TRIPOS>ATOM
      1 OG         32.9839  -18.7612  -16.6020 O.2       1 SER1        0.0000 
      2 CZ         34.1544  -18.9880  -17.5123 C.ar      5 PHE5        0.0000 
      3 OG         34.0277  -16.9773  -18.1763 O.2       1 SER1        0.0000 
      4 CZ         35.1981  -17.2041  -19.0865 C.ar      5 PHE5        0.0000 
      5 CA         32.2603  -18.0534  -17.7090 C.3       6 GLY6        0.0000 
      6 DU         33.4307  -18.2802  -18.6192 H         7 CUB7        0.0000 
      7 CZ         34.6012  -18.5070  -19.5294 C.ar      5 PHE5        0.0000 
      8 OG         32.8338  -19.5831  -19.0621 O.2       1 SER1        0.0000 
      9 OG         34.0043  -19.8099  -19.9724 O.2       1 SER1        0.0000 
     10 CZ         35.1748  -20.0367  -20.8826 C.ar      5 PHE5        0.0000 
     11 OG         32.2369  -20.8859  -19.5050 O.2       1 SER1        0.0000 
     12 OG         33.4074  -21.1128  -20.4153 O.2       1 SER1        0.0000 
     13 OG         34.5779  -21.3396  -21.3255 O.2       1 SER1        0.0000 
     14 OG         32.8105  -22.4156  -20.8582 O.2       1 SER1        0.0000 
     15 OD1        33.3040  -16.2694  -19.2832 O.3       3 ASP3        0.0000 
     16 CZ         34.4745  -16.4963  -20.1934 C.ar      5 PHE5        0.0000 
     17 CA         32.7071  -17.5723  -19.7261 C.3       6 GLY6        0.0000 
     18 CZ         33.8776  -17.7991  -20.6364 C.ar      5 PHE5        0.0000 
     19 OG         32.1102  -18.8752  -20.1691 O.2       1 SER1        0.0000 
     20 CZ         33.2807  -19.1020  -21.0793 C.ar      5 PHE5        0.0000 
     21 OG         31.5133  -20.1781  -20.6120 O.2       1 SER1        0.0000 
     22 DU         32.6838  -20.4049  -21.5222 H         7 CUB7        0.0000 
     23 CZ         33.8542  -20.6317  -22.4324 C.ar      5 PHE5        0.0000 
     24 O          32.0869  -21.7078  -21.9651 O.2       2 ALA2        0.0000 
     25 O          33.2573  -21.9346  -22.8754 O.2       2 ALA2        0.0000 
     26 OD1        33.1773  -14.2587  -19.9472 O.3       3 ASP3        0.0000 
     27 OD1        32.5804  -15.5616  -20.3901 O.3       3 ASP3        0.0000 
     28 CA         31.9835  -16.8645  -20.8331 C.3       6 GLY6        0.0000 
     29 CZ         33.1539  -17.0913  -21.7433 C.ar      5 PHE5        0.0000 
     30 O          30.2161  -17.9406  -20.3658 O.2       2 ALA2        0.0000 
     31 O          31.3865  -18.1674  -21.2760 O.2       2 ALA2        0.0000 
     32 CZ         32.5570  -18.3942  -22.1862 C.ar      5 PHE5        0.0000 
     33 O          30.7896  -19.4703  -21.7189 O.2       2 ALA2        0.0000 
     34 O          31.9601  -19.6971  -22.6291 O.2       2 ALA2        0.0000 
     35 CZ         33.1306  -19.9239  -23.5394 C.ar      5 PHE5        0.0000 
     36 O          32.5337  -21.2268  -23.9823 O.2       2 ALA2        0.0000 
     37 CA         33.0505  -12.2480  -20.6112 C.3       6 GLY6        0.0000 
     38 CZ         34.2210  -12.4748  -21.5215 C.ar      5 PHE5        0.0000 
     39 OD1        31.2832  -13.3241  -20.1439 O.3       3 ASP3        0.0000 
     40 OD1        32.4536  -13.5509  -21.0542 O.3       3 ASP3        0.0000 
     41 CZ         33.6241  -13.7777  -21.9644 C.ar      5 PHE5        0.0000 
     42 OG         30.6862  -14.6269  -20.5868 O.2       1 SER1        0.0000 
     43 OD1        31.8567  -14.8538  -21.4971 O.3       3 ASP3        0.0000 
     44 CZ         33.0272  -15.0806  -22.4073 C.ar      5 PHE5        0.0000 
     45 OG         30.0893  -15.9298  -21.0298 O.2       1 SER1        0.0000 
     46 DU         31.2598  -16.1566  -21.9400 H         7 CUB7        0.0000 
     47 CZ         32.4303  -16.3835  -22.8502 C.ar      5 PHE5        0.0000 
     48 CA         30.6629  -17.4595  -22.3829 C.3       6 GLY6        0.0000 
     49 CZ         31.8334  -17.6863  -23.2932 C.ar      5 PHE5        0.0000 
     50 CZ         31.2365  -18.9892  -23.7361 C.ar      5 PHE5        0.0000 
     51 NZ         32.9238  -10.2373  -21.2752 N.2       4 LYS4        0.0000 
     52 CA         31.1564  -11.3133  -20.8079 C.3       6 GLY6        0.0000 
     53 CA         32.3269  -11.5401  -21.7182 C.3       6 GLY6        0.0000 
     54 CA         33.4974  -11.7670  -22.6284 C.3       6 GLY6        0.0000 
     55 CA         30.5595  -12.6162  -21.2509 C.3       6 GLY6        0.0000 
     56 CA         31.7300  -12.8430  -22.1611 C.3       6 GLY6        0.0000 
     57 CA         32.9005  -13.0698  -23.0713 C.3       6 GLY6        0.0000 
     58 OG         31.1331  -14.1459  -22.6040 O.2       1 SER1        0.0000 
     59 CZ         32.3036  -14.3727  -23.5142 C.ar      5 PHE5        0.0000 
     60 OG         30.5362  -15.4488  -23.0469 O.2       1 SER1        0.0000 
     61 CZ         31.7066  -15.6756  -23.9572 C.ar      5 PHE5        0.0000 
     62 CA         29.9393  -16.7517  -23.4899 C.3       6 GLY6        0.0000 
     63 CZ         31.1097  -16.9785  -24.4001 C.ar      5 PHE5        0.0000 
     64 CA         31.6033  -10.8323  -22.8251 C.3       6 GLY6        0.0000 
     65 CA         31.0063  -12.1352  -23.2680 C.3       6 GLY6        0.0000 
     66 OG         29.2389  -13.2113  -22.8007 O.2       1 SER1        0.0000 
     67 OG         30.4094  -13.4381  -23.7109 O.2       1 SER1        0.0000 
     68 OG         28.6420  -14.5141  -23.2436 O.2       1 SER1        0.0000 
     69 O          29.8125  -14.7410  -24.1539 O.2       2 ALA2        0.0000 
@<TRIPOS>BOND
@<TRIPOS>SUBSTRUCTURE
     1 SER1        1 GROUP   
     2 ALA2       24 GROUP   
     3 ASP3       15 GROUP   
     4 LYS4       51 GROUP   
     5 PHE5        2 GROUP   
     6 GLY6        5 GROUP   
     7 CUB7        6 GROUP   
@<TRIPOS>SET

