#    Name: 2po3_T4K_2_INTS_M
#    Modification time : Mon Mar 24 19:16:13 2014

@<TRIPOS>MOLECULE
2po3_T4K_2_INTS_M
   92     0     9     0     0
SMALL
NO_CHARGES


@<TRIPOS>ATOM
      1 CA         36.4390  -10.4130  -17.6855 C.3       3 GLC5        0.0000 
      2 CA         35.4820  -11.8520  -18.7660 C.3       9 GLL5        0.0000 
      3 CA         37.3960   -8.9740  -16.6050 C.3       6 GLP5        0.0000 
      4 CA         34.3555  -12.5695  -17.1910 C.3       3 GLC5        0.0000 
      5 CA         33.2290  -13.2870  -15.6160 C.3       6 GLP5        0.0000 
      6 CA         33.5975  -13.4165  -17.7435 C.3       3 GLC5        0.0000 
      7 CA         33.9660  -13.5460  -19.8710 C.3       9 GLL5        0.0000 
      8 N          34.4020  -14.0020  -17.4685 N.am      2 SEC2        0.0000 
      9 N          34.2900  -14.4630  -18.8990 N.am      8 SEL2        0.0000 
     10 N          34.5140  -13.5410  -16.0380 N.am      5 SEP2        0.0000 
     11 N          32.6925  -14.3970  -18.2870 N.am      2 SEC2        0.0000 
     12 N          31.0950  -14.3310  -17.6750 N.am      5 SEP2        0.0000 
     13 CA         32.2640  -14.6770  -24.6675 C.3       3 GLC5        0.0000 
     14 CA         31.7980  -13.1990  -23.0700 C.3       9 GLL5        0.0000 
     15 CA         32.7300  -16.1550  -26.2650 C.3       6 GLP5        0.0000 
     16 CA         30.3545  -11.8380  -22.8955 C.3       3 GLC5        0.0000 
     17 CA         28.9110  -10.4770  -22.7210 C.3       6 GLP5        0.0000 
     18 CA         33.7370  -14.2655  -22.7745 C.3       3 GLC5        0.0000 
     19 CA         35.6760  -15.3320  -22.4790 C.3       6 GLP5        0.0000 
     20 N          27.7880  -12.5630  -23.9075 N.am      2 SEC2        0.0000 
     21 N          28.0590  -13.8420  -23.2050 N.am      8 SEL2        0.0000 
     22 N          27.5170  -11.2840  -24.6100 N.am      5 SEP2        0.0000 
     23 N          28.0530  -13.8305  -21.8830 N.am      2 SEC2        0.0000 
     24 N          28.0470  -13.8190  -20.5610 N.am      5 SEP2        0.0000 
     25 N          29.3265  -14.6200  -25.9755 N.am      2 SEC2        0.0000 
     26 N          29.7790  -13.5180  -25.1930 N.am      8 SEL2        0.0000 
     27 N          28.8740  -15.7220  -26.7580 N.am      5 SEP2        0.0000 
     28 N          29.8775  -12.1295  -25.5155 N.am      2 SEC2        0.0000 
     29 N          29.9760  -10.7410  -25.8380 N.am      5 SEP2        0.0000 
     30 N          30.8290  -13.0660  -25.8655 N.am      2 SEC2        0.0000 
     31 N          31.8790  -12.6140  -26.5380 N.am      5 SEP2        0.0000 
     32 N          30.7440  -21.3120  -23.2920 N.am      2 SEC2        0.0000 
     33 N          31.2470  -19.8710  -22.5400 N.am      8 SEL2        0.0000 
     34 N          30.2410  -22.7530  -24.0440 N.am      5 SEP2        0.0000 
     35 CA         33.4415  -17.0325  -22.3260 C.3       3 GLC5        0.0000 
     36 CA         31.7890  -17.8220  -21.2920 C.3       9 GLL5        0.0000 
     37 CA         35.0940  -16.2430  -23.3600 C.3       6 GLP5        0.0000 
     38 CA         35.0515  -18.1050  -21.0440 C.3       3 GLC5        0.0000 
     39 CA         33.5790  -18.2530  -19.6680 C.3       9 GLL5        0.0000 
     40 CA         36.5240  -17.9570  -22.4200 C.3       6 GLP5        0.0000 
     41 CA         35.7625  -17.3410  -20.0395 C.3       3 GLC5        0.0000 
     42 CA         34.4260  -17.6470  -18.5380 C.3       9 GLL5        0.0000 
     43 CA         37.0990  -17.0350  -21.5410 C.3       6 GLP5        0.0000 
     44 CA         35.7030  -19.0660  -18.0695 C.3       3 GLC5        0.0000 
     45 CA         36.9800  -20.4850  -17.6010 C.3       6 GLP5        0.0000 
     46 CA         36.2265  -17.1470  -18.2175 C.3       3 GLC5        0.0000 
     47 CA         38.0270  -16.6470  -17.8970 C.3       6 GLP5        0.0000 
     48 N          34.9345  -22.4235  -19.2175 N.am      2 SEC2        0.0000 
     49 N          34.7480  -22.8440  -20.6580 N.am      8 SEL2        0.0000 
     50 N          35.1210  -22.0030  -17.7770 N.am      5 SEP2        0.0000 
     51 N          30.8885  -23.9595  -23.3400 N.am      2 SEC2        0.0000 
     52 N          31.5360  -25.1660  -22.6360 N.am      8 SEL2        0.0000 
     53 CA         31.0000  -24.6375  -16.4530 C.3       3 GLC5        0.0000 
     54 CA         32.1990  -25.3630  -18.1330 C.3       9 GLL5        0.0000 
     55 CA         29.8010  -23.9120  -14.7730 C.3       6 GLP5        0.0000 
     56 O          32.1140  -26.6075  -15.9240 O.2       1 ALC1        0.0000 
     57 O          32.6590  -27.4260  -16.8400 O.2       7 ALL1        0.0000 
     58 O          31.5690  -25.7890  -15.0080 O.2       4 ALP1        0.0000 
     59 CA         29.8900  -25.0565  -16.4200 C.3       3 GLC5        0.0000 
     60 CA         29.9790  -26.2010  -18.0670 C.3       9 GLL5        0.0000 
     61 CA         29.3510  -24.2115  -18.3655 C.3       3 GLC5        0.0000 
     62 CA         28.7230  -22.2220  -18.6640 C.3       6 GLP5        0.0000 
     63 CA         26.1005  -24.1535  -23.6260 C.3       3 GLC5        0.0000 
     64 CA         27.6160  -24.4060  -22.0370 C.3       9 GLL5        0.0000 
     65 CA         24.5850  -23.9010  -25.2150 C.3       6 GLP5        0.0000 
     66 CA         28.3285  -24.3545  -23.7630 C.3       3 GLC5        0.0000 
     67 CA         29.0410  -24.3030  -25.4890 C.3       6 GLP5        0.0000 
     68 CA         26.0440  -23.0840  -21.1855 C.3       3 GLC5        0.0000 
     69 CA         24.4720  -21.7620  -20.3340 C.3       6 GLP5        0.0000 
     70 O          25.0925  -27.2195  -19.0120 O.2       1 ALC1        0.0000 
     71 O          26.4420  -26.4830  -19.1300 O.2       7 ALL1        0.0000 
     72 O          23.7430  -27.9560  -18.8940 O.2       4 ALP1        0.0000 
     73 N          24.0930  -25.9830  -21.4550 N.am      2 SEC2        0.0000 
     74 N          25.3830  -25.6580  -20.8820 N.am      8 SEL2        0.0000 
     75 N          22.8030  -26.3080  -22.0280 N.am      5 SEP2        0.0000 
     76 CA         36.1312  -13.3700  -19.9725 C.3       3 GLC5        0.0000 
     77 CA         34.5110  -12.2560  -19.8580 C.3       9 GLL5        0.0000 
     78 CA         37.2660  -14.6860  -20.6330 C.3       6 GLP5        0.0000 
     79 CA         33.3457  -11.5255  -18.8345 C.3       3 GLC5        0.0000 
     80 CA         31.6950  -10.9970  -18.3570 C.3       6 GLP5        0.0000 
     81 CA         35.3880  -14.2020  -20.5117 C.3       3 GLC5        0.0000 
     82 CA         32.6025  -12.3575  -19.3737 C.3       3 GLC5        0.0000 
     83 CA         32.3665  -11.6352  -20.0920 C.3       3 GLC5        0.0000 
     84 CA         32.7410  -12.9000  -21.8900 C.3       9 GLL5        0.0000 
     85 CA         33.7890  -12.9056  -23.7252 C.3       3 GLC5        0.0000 
     86 CA         35.1600  -13.0750  -25.0020 C.3       6 GLP5        0.0000 
     87 CA         29.6078  -18.6340  -21.4460 C.3       3 GLC5        0.0000 
     88 CA         27.5790  -18.6830  -21.6340 C.3       6 GLP5        0.0000 
     89 CA         31.1893  -16.5783  -19.1740 C.3       3 GLC5        0.0000 
     90 CA         30.2930  -15.5650  -17.7290 C.3       6 GLP5        0.0000 
     91 CA         28.3107  -23.5280  -19.9387 C.3       3 GLC5        0.0000 
     92 CA         28.7500  -25.3370  -20.0320 C.3       9 GLL5        0.0000 
@<TRIPOS>BOND
@<TRIPOS>SUBSTRUCTURE
     1 ALC1       56 GROUP        1 X    ALC  0     ROOT ALC X 1
     2 SEC2        8 GROUP        1 X    SEC  0     **** SEC X 2
     3 GLC5        1 GROUP        1 X    GLC  0     **** GLC X 6
     4 ALP1       58 GROUP        1 Y    ALP  0     ROOT ALP Y 8
     5 SEP2       10 GROUP        1 Y    SEP  0     **** SEP Y 9
     6 GLP5        3 GROUP        1 Y    GLP  0     **** GLP Y 13
     7 ALL1       57 GROUP        1 Z    ALL  0     ROOT ALL Z 15
     8 SEL2        9 GROUP        1 Z    SEL  0     **** SEL Z 16
     9 GLL5        2 GROUP        1 Z    GLL  0     **** GLL Z 20
@<TRIPOS>SET

