#    Name: 2po3_T4K_2_ligand
#    Modification time : Mon Mar 24 19:16:13 2014

@<TRIPOS>MOLECULE
2po3_T4K_2_ligand
   81    84     1     0     0
SMALL
NO_CHARGES


@<TRIPOS>ATOM
      1 N1L        34.1910  -11.3810  -20.7910 N.ar      1 T4K2500     0.0000 
      2 C2L        34.5110  -12.2560  -19.8580 C.ar      1 T4K2500     0.0000 
      3 C2A        35.4820  -11.8520  -18.7660 C.3       1 T4K2500     0.0000 
      4 C3L        33.9660  -13.5460  -19.8710 C.ar      1 T4K2500     0.0000 
      5 O3L        34.2900  -14.4630  -18.8990 O.3       1 T4K2500     0.0000 
      6 C4L        33.0540  -13.8900  -20.9100 C.ar      1 T4K2500     0.0000 
      7 C4A        32.5000  -15.1860  -20.9460 C.2       1 T4K2500     0.0000 
      8 C5L        32.7410  -12.9000  -21.8900 C.ar      1 T4K2500     0.0000 
      9 C6L        33.3350  -11.6470  -21.7640 C.ar      1 T4K2500     0.0000 
     10 C5B        31.7980  -13.1990  -23.0700 C.3       1 T4K2500     0.0000 
     11 OP4        30.4950  -13.4270  -22.5790 O.3       1 T4K2500     0.0000 
     12 PL         29.5630  -14.1250  -23.7000 P.3       1 T4K2500     0.0000 
     13 OP1        29.8010  -15.6990  -23.7270 O.co2     1 T4K2500     0.0000 
     14 OP2        28.0590  -13.8420  -23.2050 O.co2     1 T4K2500     0.0000 
     15 OP3        29.7790  -13.5180  -25.1930 O.co2     1 T4K2500     0.0000 
     16 C1G        32.5960  -20.1800  -20.5100 C.3       1 T4K2500     0.0000 
     17 C2G        31.4840  -19.3480  -21.2240 C.3       1 T4K2500     0.0000 
     18 O2G        31.2470  -19.8710  -22.5400 O.3       1 T4K2500     0.0000 
     19 C3G        31.7890  -17.8220  -21.2920 C.3       1 T4K2500     0.0000 
     20 O3G        30.5670  -17.1220  -21.5650 O.3       1 T4K2500     0.0000 
     21 C4G        32.3820  -17.3610  -19.9460 C.3       1 T4K2500     0.0000 
     22 N4A        32.8510  -16.0510  -19.9930 N.2       1 T4K2500     0.0000 
     23 C5G        33.5790  -18.2530  -19.6680 C.3       1 T4K2500     0.0000 
     24 C6G        34.4260  -17.6470  -18.5380 C.3       1 T4K2500     0.0000 
     25 O5G        33.1060  -19.5520  -19.3220 O.3       1 T4K2500     0.0000 
     26 P2         34.0540  -22.0530  -21.8880 P.3       1 T4K2500     0.0000 
     27 O3P        35.0890  -22.0100  -23.1430 O.co2     1 T4K2500     0.0000 
     28 O4P        34.7480  -22.8440  -20.6580 O.co2     1 T4K2500     0.0000 
     29 OPP        32.6780  -22.7970  -22.3700 O.3       1 T4K2500     0.0000 
     30 P          32.5610  -24.2930  -21.7360 P.3       1 T4K2500     0.0000 
     31 O1P        31.5360  -25.1660  -22.6360 O.co2     1 T4K2500     0.0000 
     32 O2P        34.0080  -25.0210  -21.7230 O.co2     1 T4K2500     0.0000 
     33 O5         31.9740  -24.1990  -20.2330 O.3       1 T4K2500     0.0000 
     34 C5         32.9260  -24.7900  -19.3480 C.3       1 T4K2500     0.0000 
     35 C4         32.1990  -25.3630  -18.1330 C.3       1 T4K2500     0.0000 
     36 O4         30.7780  -25.0030  -18.1570 O.3       1 T4K2500     0.0000 
     37 C3         32.2830  -26.9170  -18.1410 C.3       1 T4K2500     0.0000 
     38 O3         32.6590  -27.4260  -16.8400 O.3       1 T4K2500     0.0000 
     39 C2         30.8560  -27.3480  -18.5680 C.3       1 T4K2500     0.0000 
     40 C1         29.9790  -26.2010  -18.0670 C.3       1 T4K2500     0.0000 
     41 N11        28.7340  -26.0610  -18.8640 N.am      1 T4K2500     0.0000 
     42 C61        28.7500  -25.3370  -20.0320 C.2       1 T4K2500     0.0000 
     43 C51        27.6120  -25.1870  -20.7480 C.2       1 T4K2500     0.0000 
     44 C5A        27.6160  -24.4060  -22.0370 C.3       1 T4K2500     0.0000 
     45 C21        27.5750  -26.6190  -18.4280 C.2       1 T4K2500     0.0000 
     46 O21        27.5430  -27.2580  -17.3900 O.2       1 T4K2500     0.0000 
     47 N31        26.4420  -26.4830  -19.1300 N.am      1 T4K2500     0.0000 
     48 C41        26.4210  -25.7790  -20.2720 C.2       1 T4K2500     0.0000 
     49 O41        25.3830  -25.6580  -20.8820 O.2       1 T4K2500     0.0000 
     50 O1G        33.6680  -20.5480  -21.4080 O.3       1 T4K2500     0.0000 
     51 H          31.8483  -15.4227  -21.6989 H         1 T4K2500     0.0000 
     52 H          33.0777  -10.9161  -22.4733 H         1 T4K2500     0.0000 
     53 H          32.2041  -14.0689  -23.5975 H         1 T4K2500     0.0000 
     54 H          31.8447  -12.3403  -23.7484 H         1 T4K2500     0.0000 
     55 H          32.0774  -21.1371  -20.1985 H         1 T4K2500     0.0000 
     56 H          30.5685  -19.4617  -20.6155 H         1 T4K2500     0.0000 
     57 H          32.5185  -17.6696  -22.0581 H         1 T4K2500     0.0000 
     58 H          31.6612  -17.5323  -19.1817 H         1 T4K2500     0.0000 
     59 H          34.1860  -18.2815  -20.5624 H         1 T4K2500     0.0000 
     60 H          33.6552  -24.0580  -18.9871 H         1 T4K2500     0.0000 
     61 H          33.4736  -25.6078  -19.8267 H         1 T4K2500     0.0000 
     62 H          32.6648  -25.0153  -17.2377 H         1 T4K2500     0.0000 
     63 H          32.9536  -27.1924  -18.9192 H         1 T4K2500     0.0000 
     64 H          30.6003  -28.2447  -18.0732 H         1 T4K2500     0.0000 
     65 H          30.8107  -27.4079  -19.6209 H         1 T4K2500     0.0000 
     66 H          29.7363  -26.4035  -17.0332 H         1 T4K2500     0.0000 
     67 H          29.6375  -24.9103  -20.3557 H         1 T4K2500     0.0000 
     68 H          25.5585  -26.9329  -18.7827 H         1 T4K2500     0.0000 
     69 H          36.3712  -11.5871  -19.1390 H         1 T4K2500     0.0000 
     70 H          35.1428  -11.0745  -18.2365 H         1 T4K2500     0.0000 
     71 H          35.6456  -12.5976  -18.1200 H         1 T4K2500     0.0000 
     72 H          35.2228  -18.2130  -18.3267 H         1 T4K2500     0.0000 
     73 H          34.7673  -16.7377  -18.7763 H         1 T4K2500     0.0000 
     74 H          33.9020  -17.5509  -17.6917 H         1 T4K2500     0.0000 
     75 H          27.9002  -23.4577  -21.8958 H         1 T4K2500     0.0000 
     76 H          28.2411  -24.8023  -22.7094 H         1 T4K2500     0.0000 
     77 H          26.7096  -24.3806  -22.4587 H         1 T4K2500     0.0000 
     78 H          34.0998  -15.3543  -19.3105 H         1 T4K2500     0.0000 
     79 H          31.4705  -20.8435  -22.4760 H         1 T4K2500     0.0000 
     80 H          30.6884  -16.7368  -22.4798 H         1 T4K2500     0.0000 
     81 H          32.2320  -26.8026  -16.1850 H         1 T4K2500     0.0000 
@<TRIPOS>BOND
     1    2    1 ar   
     2    9    1 ar   
     3    3    2 1    
     4    4    2 ar   
     5   69    3 1    
     6   70    3 1    
     7   71    3 1    
     8    5    4 1    
     9    6    4 ar   
    10   78    5 1    
    11    7    6 1    
    12    8    6 ar   
    13   22    7 2    
    14   51    7 1    
    15    9    8 ar   
    16   10    8 1    
    17   52    9 1    
    18   11   10 1    
    19   53   10 1    
    20   54   10 1    
    21   12   11 1    
    22   13   12 ar   
    23   14   12 ar   
    24   15   12 ar   
    25   17   16 1    
    26   25   16 1    
    27   50   16 1    
    28   55   16 1    
    29   18   17 1    
    30   19   17 1    
    31   56   17 1    
    32   79   18 1    
    33   20   19 1    
    34   21   19 1    
    35   57   19 1    
    36   80   20 1    
    37   22   21 1    
    38   23   21 1    
    39   58   21 1    
    40   24   23 1    
    41   25   23 1    
    42   59   23 1    
    43   72   24 1    
    44   73   24 1    
    45   74   24 1    
    46   27   26 ar   
    47   28   26 ar   
    48   29   26 1    
    49   50   26 1    
    50   30   29 1    
    51   31   30 ar   
    52   32   30 ar   
    53   33   30 1    
    54   34   33 1    
    55   35   34 1    
    56   60   34 1    
    57   61   34 1    
    58   36   35 1    
    59   37   35 1    
    60   62   35 1    
    61   40   36 1    
    62   38   37 1    
    63   39   37 1    
    64   63   37 1    
    65   81   38 1    
    66   40   39 1    
    67   64   39 1    
    68   65   39 1    
    69   41   40 1    
    70   66   40 1    
    71   42   41 1    
    72   45   41 1    
    73   43   42 2    
    74   67   42 1    
    75   44   43 1    
    76   48   43 1    
    77   75   44 1    
    78   76   44 1    
    79   77   44 1    
    80   46   45 2    
    81   47   45 1    
    82   48   47 1    
    83   68   47 1    
    84   49   48 2    
@<TRIPOS>SUBSTRUCTURE
     1 T4K2500     1 GROUP   
@<TRIPOS>SET

