#    Name: 2v4y_GTP_1_INTS_M
#    Modification time : Tue Mar 25 00:58:47 2014

@<TRIPOS>MOLECULE
2v4y_GTP_1_INTS_M
   59     0    12     0     0
SMALL
NO_CHARGES


@<TRIPOS>ATOM
      1 NZ         -0.4160   -2.2295   35.4010 N.4       3 LYC4        0.0000 
      2 NZ         -0.9220   -1.5730   36.7500 N.4      11 LYL4        0.0000 
      3 NZ          0.9830   -2.0750   33.5020 N.4       7 LYP4        0.0000 
      4 N          -0.4160   -2.2295   35.4010 N.am      2 SEC2        0.0000 
      5 N          -0.9220   -1.5730   36.7500 N.am     10 SEL2        0.0000 
      6 N           0.0900   -2.8860   34.0520 N.am      6 SEP2        0.0000 
      7 N          -4.2900   -2.3125   37.5615 N.am      2 SEC2        0.0000 
      8 N          -3.3310   -2.0640   36.6790 N.am     10 SEL2        0.0000 
      9 N          -5.2490   -2.5610   38.4440 N.am      6 SEP2        0.0000 
     10 N          -3.4650   -3.6415   36.7810 N.am      2 SEC2        0.0000 
     11 N          -3.5990   -5.2190   36.8830 N.am      6 SEP2        0.0000 
     12 N          -1.0135   -1.9650   38.8700 N.am      2 SEC2        0.0000 
     13 N          -2.3240   -1.0900   38.7470 N.am     10 SEL2        0.0000 
     14 N           0.2970   -2.8400   38.9930 N.am      6 SEP2        0.0000 
     15 N          -0.2390    0.3845   34.2220 N.am      2 SEC2        0.0000 
     16 N          -1.2810    1.5560   34.7340 N.am     10 SEL2        0.0000 
     17 N           0.8030   -0.7870   33.7100 N.am      6 SEP2        0.0000 
     18 N          -1.6990    3.0605   34.5135 N.am      2 SEC2        0.0000 
     19 N          -2.1170    4.5650   34.2930 N.am      6 SEP2        0.0000 
     20 NZ         -0.7520   -0.7480   34.0055 N.4       3 LYC4        0.0000 
     21 NZ         -2.3070   -0.7090   34.3010 N.4      11 LYL4        0.0000 
     22 N          -1.1085   -1.7975   34.1765 N.am      2 SEC2        0.0000 
     23 N          -2.3070   -0.7090   34.3010 N.am     10 SEL2        0.0000 
     24 N          -0.7520   -0.7480   34.0055 N.am      2 SEC2        0.0000 
     25 CA         -7.0970    2.7900   36.3000 C.3       4 GLC5        0.0000 
     26 CA         -5.0180    2.6030   37.1240 C.3      12 GLL5        0.0000 
     27 CA         -9.1760    2.9770   35.4760 C.3       8 GLP5        0.0000 
     28 CA         -4.1520    3.9610   35.8375 C.3       4 GLC5        0.0000 
     29 CA         -3.2860    5.3190   34.5510 C.3       8 GLP5        0.0000 
     30 CA         -5.2805    4.7595   39.1170 C.3       4 GLC5        0.0000 
     31 CA         -5.4060    2.8530   38.5790 C.3      12 GLL5        0.0000 
     32 CA         -5.1550    6.6660   39.6550 C.3       8 GLP5        0.0000 
     33 CA         -5.0005   -0.4090   39.6630 C.3       4 GLC5        0.0000 
     34 CA         -5.0180    1.7390   39.5320 C.3      12 GLL5        0.0000 
     35 CA         -4.9830   -2.5570   39.7940 C.3       8 GLP5        0.0000 
     36 N          -2.7545    2.6770   39.6240 N.am      2 SEC2        0.0000 
     37 N          -3.7220    1.9120   40.0530 N.am     10 SEL2        0.0000 
     38 N          -1.7870    3.4420   39.1950 N.am      6 SEP2        0.0000 
     39 N          -3.1760    3.2355   40.5435 N.am      2 SEC2        0.0000 
     40 N          -2.6300    4.5590   41.0340 N.am      6 SEP2        0.0000 
     41 CA         -9.1405    3.0325   40.0220 C.3       4 GLC5        0.0000 
     42 CA         -7.3040    2.3160   39.8520 C.3      12 GLL5        0.0000 
     43 CA        -10.9770    3.7490   40.1920 C.3       8 GLP5        0.0000 
     44 CA         -7.7385    4.3990   40.0400 C.3       4 GLC5        0.0000 
     45 CA         -8.1730    6.4820   40.2280 C.3       8 GLP5        0.0000 
     46 CA        -11.5935   -0.7465   39.7625 C.3       4 GLC5        0.0000 
     47 CA         -9.4430   -0.6540   39.5490 C.3      12 GLL5        0.0000 
     48 CA        -13.7440   -0.8390   39.9760 C.3       8 GLP5        0.0000 
     49 N         -10.8195   -2.7905   37.9980 N.am      2 SEC2        0.0000 
     50 N         -10.8190   -2.4990   39.5160 N.am     10 SEL2        0.0000 
     51 N         -10.8200   -3.0820   36.4800 N.am      6 SEP2        0.0000 
     52 O         -11.0095   -2.2250   42.4485 O.2       1 ALC1        0.0000 
     53 O         -10.4290   -1.5860   41.5300 O.2       9 ALL1        0.0000 
     54 O         -11.5900   -2.8640   43.3670 O.2       5 ALP1        0.0000 
     55 O         -10.7885   -1.7150   43.4830 O.2       1 ALC1        0.0000 
     56 O          -9.9870   -0.5660   43.5990 O.2       9 ALL1        0.0000 
     57 CA         -7.6135   -1.5967   40.1773 C.3       4 GLC5        0.0000 
     58 CA         -8.8390    0.3330   40.3200 C.3      12 GLL5        0.0000 
     59 CA         -6.0860   -3.0330   40.4200 C.3       8 GLP5        0.0000 
@<TRIPOS>BOND
@<TRIPOS>SUBSTRUCTURE
     1 ALC1       52 GROUP        1 X    ALC  0     ROOT ALC X 1
     2 SEC2        4 GROUP        1 X    SEC  0     **** SEC X 2
     3 LYC4        1 GROUP        1 X    LYC  0     **** LYC X 4
     4 GLC5       25 GROUP        1 X    GLC  0     **** GLC X 6
     5 ALP1       54 GROUP        1 Y    ALP  0     ROOT ALP Y 8
     6 SEP2        6 GROUP        1 Y    SEP  0     **** SEP Y 9
     7 LYP4        3 GROUP        1 Y    LYP  0     **** LYP Y 11
     8 GLP5       27 GROUP        1 Y    GLP  0     **** GLP Y 13
     9 ALL1       53 GROUP        1 Z    ALL  0     ROOT ALL Z 15
    10 SEL2        5 GROUP        1 Z    SEL  0     **** SEL Z 16
    11 LYL4        2 GROUP        1 Z    LYL  0     **** LYL Z 18
    12 GLL5       26 GROUP        1 Z    GLL  0     **** GLL Z 20
@<TRIPOS>SET

