#    Name: 2v4y_GTP_1_ligand
#    Modification time : Tue Mar 25 00:58:47 2014

@<TRIPOS>MOLECULE
2v4y_GTP_1_ligand
   44    46     1     0     0
SMALL
NO_CHARGES


@<TRIPOS>ATOM
      1 PG         -2.2830   -1.1190   37.2290 P.3       1 GTP1242     0.0000 
      2 O1G        -0.9220   -1.5730   36.7500 O.co2     1 GTP1242     0.0000 
      3 O2G        -3.3310   -2.0640   36.6790 O.co2     1 GTP1242     0.0000 
      4 O3G        -2.3240   -1.0900   38.7470 O.co2     1 GTP1242     0.0000 
      5 O3B        -2.5170    0.3630   36.6350 O.3       1 GTP1242     0.0000 
      6 PB         -2.4310    0.6160   35.0410 P.3       1 GTP1242     0.0000 
      7 O1B        -1.2810    1.5560   34.7340 O.co2     1 GTP1242     0.0000 
      8 O2B        -2.3070   -0.7090   34.3010 O.co2     1 GTP1242     0.0000 
      9 O3A        -3.8260    1.3260   34.6490 O.3       1 GTP1242     0.0000 
     10 PA         -5.2230    0.7770   35.2180 P.3       1 GTP1242     0.0000 
     11 O1A        -5.2310   -0.7300   35.1340 O.co2     1 GTP1242     0.0000 
     12 O2A        -6.3720    1.3660   34.4290 O.co2     1 GTP1242     0.0000 
     13 O5'        -5.2950    1.2750   36.7500 O.3       1 GTP1242     0.0000 
     14 C5'        -5.0180    2.6030   37.1240 C.3       1 GTP1242     0.0000 
     15 C4'        -5.4060    2.8530   38.5790 C.3       1 GTP1242     0.0000 
     16 O4'        -6.8100    2.9480   38.6860 O.3       1 GTP1242     0.0000 
     17 C3'        -5.0180    1.7390   39.5320 C.3       1 GTP1242     0.0000 
     18 O3'        -3.7220    1.9120   40.0530 O.3       1 GTP1242     0.0000 
     19 C2'        -6.0760    1.8540   40.6100 C.3       1 GTP1242     0.0000 
     20 O2'        -5.7210    2.8400   41.5560 O.3       1 GTP1242     0.0000 
     21 C1'        -7.3040    2.3160   39.8520 C.3       1 GTP1242     0.0000 
     22 N9         -8.1100    1.1310   39.4790 N.pl3     1 GTP1242     0.0000 
     23 C8         -8.2880    0.6450   38.2100 C.2       1 GTP1242     0.0000 
     24 N7         -9.0810   -0.4420   38.2650 N.2       1 GTP1242     0.0000 
     25 C5         -9.4430   -0.6540   39.5490 C.2       1 GTP1242     0.0000 
     26 C6        -10.2540   -1.6190   40.1620 C.2       1 GTP1242     0.0000 
     27 O6        -10.8190   -2.4990   39.5160 O.2       1 GTP1242     0.0000 
     28 N1        -10.4290   -1.5860   41.5300 N.am      1 GTP1242     0.0000 
     29 C2         -9.8110   -0.5990   42.2780 C.2       1 GTP1242     0.0000 
     30 N2         -9.9870   -0.5660   43.5990 N.pl3     1 GTP1242     0.0000 
     31 N3         -9.0260    0.3550   41.6570 N.2       1 GTP1242     0.0000 
     32 C4         -8.8390    0.3330   40.3200 C.2       1 GTP1242     0.0000 
     33 H          -5.5707    3.3325   36.5065 H         1 GTP1242     0.0000 
     34 H          -3.9463    2.8482   37.0229 H         1 GTP1242     0.0000 
     35 H          -4.9420    3.7662   38.9188 H         1 GTP1242     0.0000 
     36 H          -5.1679    0.8107   39.0270 H         1 GTP1242     0.0000 
     37 H          -6.2639    0.9054   41.0153 H         1 GTP1242     0.0000 
     38 H          -7.8546    2.9740   40.4648 H         1 GTP1242     0.0000 
     39 H          -7.9011    1.0300   37.4134 H         1 GTP1242     0.0000 
     40 H         -11.0167   -2.2920   41.9947 H         1 GTP1242     0.0000 
     41 H         -10.5778   -1.2761   43.9821 H         1 GTP1242     0.0000 
     42 H          -9.5124    0.1659   44.0880 H         1 GTP1242     0.0000 
     43 H          -3.5760    1.1235   40.6505 H         1 GTP1242     0.0000 
     44 H          -4.7507    3.0182   41.3922 H         1 GTP1242     0.0000 
@<TRIPOS>BOND
     1    2    1 ar   
     2    3    1 ar   
     3    4    1 ar   
     4    5    1 1    
     5    6    5 1    
     6    7    6 ar   
     7    8    6 ar   
     8    9    6 1    
     9   10    9 1    
    10   11   10 ar   
    11   12   10 ar   
    12   13   10 1    
    13   14   13 1    
    14   15   14 1    
    15   33   14 1    
    16   34   14 1    
    17   16   15 1    
    18   17   15 1    
    19   35   15 1    
    20   21   16 1    
    21   18   17 1    
    22   19   17 1    
    23   36   17 1    
    24   43   18 1    
    25   20   19 1    
    26   21   19 1    
    27   37   19 1    
    28   44   20 1    
    29   22   21 1    
    30   38   21 1    
    31   23   22 1    
    32   32   22 1    
    33   24   23 2    
    34   39   23 1    
    35   25   24 1    
    36   26   25 1    
    37   32   25 2    
    38   27   26 2    
    39   28   26 am   
    40   29   28 1    
    41   40   28 1    
    42   30   29 1    
    43   31   29 2    
    44   41   30 1    
    45   42   30 1    
    46   32   31 1    
@<TRIPOS>SUBSTRUCTURE
     1 GTP1242     1 GROUP   
@<TRIPOS>SET

