#    Name: 1khb_GCP_1_INTS_M
#    Modification time : Mon Apr  7 13:34:42 2014

@<TRIPOS>MOLECULE
1khb_GCP_1_INTS_M
   58     0    12     0     0
SMALL
NO_CHARGES


@<TRIPOS>ATOM
      1 NZ         40.7435   29.7460   32.0705 N.4       2 LYC4        0.0000 
      2 NZ         41.1640   29.2880   33.3020 N.4      10 LYL4        0.0000 
      3 NZ         40.3230   30.2040   30.8390 N.4       6 LYP4        0.0000 
      4 Zn         41.3165   28.0700   32.9865 Zn        3 ZIC7        0.0000 
      5 Zn         41.1640   29.2880   33.3020 Zn       11 ZIL7        0.0000 
      6 Zn         41.4690   26.8520   32.6710 Zn        7 ZIP7        0.0000 
      7 N          40.7435   29.7460   32.0705 N.am      1 SEC2        0.0000 
      8 N          41.1640   29.2880   33.3020 N.am      9 SEL2        0.0000 
      9 N          40.3230   30.2040   30.8390 N.am      5 SEP2        0.0000 
     10 NZ         43.1105   29.2015   36.5670 N.4       2 LYC4        0.0000 
     11 NZ         42.3870   29.5370   35.3190 N.4      10 LYL4        0.0000 
     12 NZ         42.8310   28.5460   38.6510 N.4       6 LYP4        0.0000 
     13 N          41.9730   28.9575   36.7490 N.am      1 SEC2        0.0000 
     14 N          42.3870   29.5370   35.3190 N.am      9 SEL2        0.0000 
     15 N          41.5590   28.3780   38.1790 N.am      5 SEP2        0.0000 
     16 N          43.1105   29.2015   36.5670 N.am      1 SEC2        0.0000 
     17 N          43.8340   28.8660   37.8150 N.am      5 SEP2        0.0000 
     18 Zn         39.0330   29.9090   35.5185 Zn        3 ZIC7        0.0000 
     19 Zn         39.9960   29.6400   35.5380 Zn       11 ZIL7        0.0000 
     20 Zn         38.0700   30.1780   35.4990 Zn        7 ZIP7        0.0000 
     21 N          40.7775   29.0090   36.8585 N.am      1 SEC2        0.0000 
     22 N          39.9960   29.6400   35.5380 N.am      9 SEL2        0.0000 
     23 CA         42.7985   31.8510   33.2875 C.3       4 GLC5        0.0000 
     24 CA         41.0390   31.7780   34.5540 C.3      12 GLL5        0.0000 
     25 CA         44.5580   31.9240   32.0210 C.3       8 GLP5        0.0000 
     26 CA         41.5860   31.8815   36.4575 C.3       4 GLC5        0.0000 
     27 CA         42.1330   31.9850   38.3610 C.3       8 GLP5        0.0000 
     28 NZ         40.0445   31.3375   31.5600 N.4       2 LYC4        0.0000 
     29 NZ         39.7660   32.4710   32.2810 N.4      10 LYL4        0.0000 
     30 N          39.6285   34.1575   32.0190 N.am      1 SEC2        0.0000 
     31 N          39.7660   32.4710   32.2810 N.am      9 SEL2        0.0000 
     32 N          39.4910   35.8440   31.7570 N.am      5 SEP2        0.0000 
     33 N          38.5745   33.1405   31.8795 N.am      1 SEC2        0.0000 
     34 N          37.3830   33.8100   31.4780 N.am      5 SEP2        0.0000 
     35 N          40.0445   31.3375   31.5600 N.am      1 SEC2        0.0000 
     36 Zn         38.2350   31.0675   34.8975 Zn        3 ZIC7        0.0000 
     37 Zn         38.4000   31.9570   34.2960 Zn       11 ZIL7        0.0000 
     38 N          37.0175   32.3200   33.8750 N.am      1 SEC2        0.0000 
     39 N          38.4000   31.9570   34.2960 N.am      9 SEL2        0.0000 
     40 N          35.6350   32.6830   33.4540 N.am      5 SEP2        0.0000 
     41 N          39.5445   34.9560   32.9655 N.am      1 SEC2        0.0000 
     42 N          39.5980   34.0680   34.1740 N.am      9 SEL2        0.0000 
     43 N          35.7815   34.9050   34.7630 N.am      1 SEC2        0.0000 
     44 N          37.2590   34.9060   35.1400 N.am      9 SEL2        0.0000 
     45 N          34.3040   34.9040   34.3860 N.am      5 SEP2        0.0000 
     46 N          36.7365   36.0540   35.4470 N.am      1 SEC2        0.0000 
     47 N          36.2140   37.2020   35.7540 N.am      5 SEP2        0.0000 
     48 CA         42.2070   35.9810   34.6415 C.3       4 GLC5        0.0000 
     49 CA         40.6510   36.6550   35.6880 C.3      12 GLL5        0.0000 
     50 CA         43.7630   35.3070   33.5950 C.3       8 GLP5        0.0000 
     51 N          34.5220   42.6700   31.3920 N.am      1 SEC2        0.0000 
     52 N          35.7980   42.0990   30.9210 N.am      9 SEL2        0.0000 
     53 N          33.2460   43.2410   31.8630 N.am      5 SEP2        0.0000 
     54 N          34.7025   41.7520   30.0035 N.am      1 SEC2        0.0000 
     55 N          33.6070   41.4050   29.0860 N.am      5 SEP2        0.0000 
     56 CA         37.5390   40.9068   35.5950 C.3       4 GLC5        0.0000 
     57 CA         39.6450   40.0210   35.0680 C.3      12 GLL5        0.0000 
     58 CA         35.7980   42.0410   35.4900 C.3       8 GLP5        0.0000 
@<TRIPOS>BOND
@<TRIPOS>SUBSTRUCTURE
     1 SEC2        7 GROUP        1 X    SEC  0     ROOT SEC X 2
     2 LYC4        1 GROUP        1 X    LYC  0     **** LYC X 4
     3 ZIC7        4 GROUP        1 X    ZIC  0     **** ZIC X 5
     4 GLC5       23 GROUP        1 X    GLC  0     **** GLC X 6
     5 SEP2        9 GROUP        1 Y    SEP  0     ROOT SEP Y 9
     6 LYP4        3 GROUP        1 Y    LYP  0     **** LYP Y 11
     7 ZIP7        6 GROUP        1 Y    ZIP  0     **** ZIP Y 12
     8 GLP5       25 GROUP        1 Y    GLP  0     **** GLP Y 13
     9 SEL2        8 GROUP        1 Z    SEL  0     ROOT SEL Z 16
    10 LYL4        2 GROUP        1 Z    LYL  0     **** LYL Z 18
    11 ZIL7        5 GROUP        1 Z    ZIL  0     **** ZIL Z 19
    12 GLL5       24 GROUP        1 Z    GLL  0     **** GLL Z 20
@<TRIPOS>SET

