#    Name: 1khb_GCP_1_ligand
#    Modification time : Mon Apr  7 13:34:42 2014

@<TRIPOS>MOLECULE
1khb_GCP_1_ligand
   46    48     1     0     0
SMALL
NO_CHARGES


@<TRIPOS>ATOM
      1 PG         41.1920   30.0380   34.6130 P.3       1 GCP704      0.0000 
      2 O1G        41.1640   29.2880   33.3020 O.co2     1 GCP704      0.0000 
      3 O2G        42.3870   29.5370   35.3190 O.co2     1 GCP704      0.0000 
      4 O3G        39.9960   29.6400   35.5380 O.co2     1 GCP704      0.0000 
      5 C3B        41.0390   31.7780   34.5540 C.3       1 GCP704      0.0000 
      6 PB         39.6770   32.4640   33.7530 P.3       1 GCP704      0.0000 
      7 O1B        39.7660   32.4710   32.2810 O.co2     1 GCP704      0.0000 
      8 O2B        38.4000   31.9570   34.2960 O.co2     1 GCP704      0.0000 
      9 O3A        39.5980   34.0680   34.1740 O.3       1 GCP704      0.0000 
     10 PA         38.7280   34.7690   35.4270 P.3       1 GCP704      0.0000 
     11 O1A        37.2590   34.9060   35.1400 O.co2     1 GCP704      0.0000 
     12 O2A        39.1540   34.0480   36.6400 O.co2     1 GCP704      0.0000 
     13 O5'        39.2920   36.3070   35.4160 O.3       1 GCP704      0.0000 
     14 C5'        40.6510   36.6550   35.6880 C.3       1 GCP704      0.0000 
     15 C4'        40.8300   38.1530   35.7740 C.3       1 GCP704      0.0000 
     16 O4'        40.3740   38.8520   34.6030 O.3       1 GCP704      0.0000 
     17 C3'        40.0060   38.6200   36.9690 C.3       1 GCP704      0.0000 
     18 O3'        40.8200   39.4360   37.8230 O.3       1 GCP704      0.0000 
     19 C2'        38.9150   39.5240   36.3320 C.3       1 GCP704      0.0000 
     20 O2'        38.4810   40.6150   37.1910 O.3       1 GCP704      0.0000 
     21 C1'        39.6450   40.0210   35.0680 C.3       1 GCP704      0.0000 
     22 N9         38.5950   40.2680   34.0680 N.pl3     1 GCP704      0.0000 
     23 C8         37.6480   39.3770   33.6920 C.2       1 GCP704      0.0000 
     24 N7         36.8510   39.7970   32.7750 N.2       1 GCP704      0.0000 
     25 C5         37.2530   41.1150   32.5530 C.2       1 GCP704      0.0000 
     26 C6         36.7470   42.1080   31.7370 C.2       1 GCP704      0.0000 
     27 O6         35.7980   42.0990   30.9210 O.2       1 GCP704      0.0000 
     28 N1         37.4860   43.2780   31.8560 N.am      1 GCP704      0.0000 
     29 C2         38.5560   43.5210   32.6500 C.2       1 GCP704      0.0000 
     30 N2         39.1310   44.7430   32.5740 N.pl3     1 GCP704      0.0000 
     31 N3         39.0150   42.5750   33.4330 N.2       1 GCP704      0.0000 
     32 C4         38.3460   41.4050   33.3290 C.2       1 GCP704      0.0000 
     33 H          41.9279   32.1488   34.0598 H         1 GCP704      0.0000 
     34 H          41.0191   32.1204   35.5807 H         1 GCP704      0.0000 
     35 H          41.3273   36.2751   34.9017 H         1 GCP704      0.0000 
     36 H          40.9946   36.2150   36.6411 H         1 GCP704      0.0000 
     37 H          41.8607   38.3685   35.9946 H         1 GCP704      0.0000 
     38 H          39.5528   37.8172   37.4305 H         1 GCP704      0.0000 
     39 H          38.1250   38.8855   36.0099 H         1 GCP704      0.0000 
     40 H          40.2211   40.8170   35.2713 H         1 GCP704      0.0000 
     41 H          37.6000   38.4564   34.1223 H         1 GCP704      0.0000 
     42 H          37.1503   44.1032   31.2207 H         1 GCP704      0.0000 
     43 H          38.7029   45.3924   31.9455 H         1 GCP704      0.0000 
     44 H          39.9332   44.8886   33.1530 H         1 GCP704      0.0000 
     45 H          40.2496   40.2266   38.0458 H         1 GCP704      0.0000 
     46 H          38.5718   41.4378   36.6300 H         1 GCP704      0.0000 
@<TRIPOS>BOND
     1    2    1 ar   
     2    3    1 ar   
     3    4    1 ar   
     4    5    1 1    
     5    6    5 1    
     6   33    5 1    
     7   34    5 1    
     8    7    6 ar   
     9    8    6 ar   
    10    9    6 1    
    11   10    9 1    
    12   11   10 ar   
    13   12   10 ar   
    14   13   10 1    
    15   14   13 1    
    16   15   14 1    
    17   35   14 1    
    18   36   14 1    
    19   16   15 1    
    20   17   15 1    
    21   37   15 1    
    22   21   16 1    
    23   18   17 1    
    24   19   17 1    
    25   38   17 1    
    26   45   18 1    
    27   20   19 1    
    28   21   19 1    
    29   39   19 1    
    30   46   20 1    
    31   22   21 1    
    32   40   21 1    
    33   23   22 1    
    34   32   22 1    
    35   24   23 2    
    36   41   23 1    
    37   25   24 1    
    38   26   25 1    
    39   32   25 2    
    40   27   26 2    
    41   28   26 am   
    42   29   28 1    
    43   42   28 1    
    44   30   29 1    
    45   31   29 2    
    46   43   30 1    
    47   44   30 1    
    48   32   31 1    
@<TRIPOS>SUBSTRUCTURE
     1 GCP704      1 GROUP   
@<TRIPOS>SET

