#    Name: 2BH2_2_CAVITY_N1_ALL.mol2
#    Modification time : Tue Mar 11 04:02:38 2014

@<TRIPOS>MOLECULE
2BH2_2_CAVITY_N1_ALL.mol2
   70     0     5     0     0
SMALL
NO_CHARGES


@<TRIPOS>ATOM
      1 CA         38.0502  -12.5963   23.9608 C.3       4 GLY6        0.0000 
      2 CA         37.9484  -11.5937   22.8498 C.3       4 GLY6        0.0000 
      3 CA         36.6920  -11.0459   23.4593 C.3       4 GLY6        0.0000 
      4 CZ         37.8465  -10.5912   21.7387 C.ar      3 PHE5        0.0000 
      5 CZ         36.5901  -10.0434   22.3482 C.ar      3 PHE5        0.0000 
      6 NZ         35.3338   -9.4956   22.9577 N.2       2 LYS4        0.0000 
      7 CZ         36.4882   -9.0408   21.2371 C.ar      3 PHE5        0.0000 
      8 NZ         35.2319   -8.4930   21.8466 N.2       2 LYS4        0.0000 
      9 CA         37.2371  -13.5683   23.1583 C.3       4 GLY6        0.0000 
     10 CZ         37.1352  -12.5657   22.0472 C.ar      3 PHE5        0.0000 
     11 CA         35.8789  -12.0179   22.6568 C.3       4 GLY6        0.0000 
     12 CZ         35.7770  -11.0154   21.5457 C.ar      3 PHE5        0.0000 
     13 CA         34.5206  -10.4676   22.1552 C.3       4 GLY6        0.0000 
     14 O          34.4187   -9.4650   21.0441 O.2       1 ALA2        0.0000 
     15 O          37.6803  -15.0881   21.7463 O.2       1 ALA2        0.0000 
     16 O          36.4240  -14.5403   22.3558 O.2       1 ALA2        0.0000 
     17 CZ         37.5784  -14.0855   20.6352 C.ar      3 PHE5        0.0000 
     18 CZ         36.3221  -13.5377   21.2447 C.ar      3 PHE5        0.0000 
     19 CA         35.0657  -12.9899   21.8543 C.3       4 GLY6        0.0000 
     20 CZ         36.2202  -12.5352   20.1337 C.ar      3 PHE5        0.0000 
     21 CA         34.9638  -11.9874   20.7432 C.3       4 GLY6        0.0000 
     22 CA         33.7075  -11.4396   21.3527 C.3       4 GLY6        0.0000 
     23 N          34.8619  -10.9848   19.6321 N.2       1 ALA2        0.0000 
     24 N          33.6056  -10.4370   20.2416 N.2       1 ALA2        0.0000 
     25 O          38.1235  -16.6079   20.3343 O.2       1 ALA2        0.0000 
     26 O          36.8672  -16.0601   20.9438 O.2       1 ALA2        0.0000 
     27 O          35.6108  -15.5123   21.5533 O.2       1 ALA2        0.0000 
     28 DU         36.7653  -15.0575   19.8327 H         5 CUB7        0.0000 
     29 CZ         35.5089  -14.5097   20.4422 C.ar      3 PHE5        0.0000 
     30 CZ         34.2526  -13.9619   21.0518 C.ar      3 PHE5        0.0000 
     31 CZ         35.4070  -13.5072   19.3312 C.ar      3 PHE5        0.0000 
     32 CZ         34.1507  -12.9594   19.9407 C.ar      3 PHE5        0.0000 
     33 NZ         32.8943  -12.4116   20.5502 N.2       2 LYS4        0.0000 
     34 N          34.0488  -11.9568   18.8296 N.2       1 ALA2        0.0000 
     35 CA         41.6441   -9.2255   24.6478 C.3       4 GLY6        0.0000 
     36 CA         40.3878   -8.6777   25.2573 C.3       4 GLY6        0.0000 
     37 NZ         41.5422   -8.2230   23.5367 N.2       2 LYS4        0.0000 
     38 DU         40.2859   -7.6752   24.1462 H         5 CUB7        0.0000 
     39 N          39.0295   -7.1274   24.7557 N.2       1 ALA2        0.0000 
     40 CA         42.6967   -7.7682   21.8161 C.3       4 GLY6        0.0000 
     41 NZ         41.4404   -7.2204   22.4256 N.2       2 LYS4        0.0000 
     42 N          40.1840   -6.6726   23.0351 N.2       1 ALA2        0.0000 
     43 CA         41.3385   -6.2178   21.3145 C.3       4 GLY6        0.0000 
     44 N          40.0821   -5.6700   21.9240 N.2       1 ALA2        0.0000 
     45 CA         40.8310  -10.1975   23.8453 C.3       4 GLY6        0.0000 
     46 CA         39.5746   -9.6497   24.4548 C.3       4 GLY6        0.0000 
     47 CA         41.9855   -9.7428   22.1247 C.3       4 GLY6        0.0000 
     48 CZ         40.7291   -9.1950   22.7342 C.ar      3 PHE5        0.0000 
     49 DU         39.4728   -8.6472   23.3437 H         5 CUB7        0.0000 
     50 N          38.2164   -8.0994   23.9532 N.2       1 ALA2        0.0000 
     51 CZ         40.6272   -8.1924   21.6231 C.ar      3 PHE5        0.0000 
     52 CZ         39.3709   -7.6446   22.2326 C.ar      3 PHE5        0.0000 
     53 N          38.1145   -7.0968   22.8421 N.2       1 ALA2        0.0000 
     54 CZ         39.2690   -6.6420   21.1215 C.ar      3 PHE5        0.0000 
     55 N          38.0126   -6.0942   21.7310 N.2       1 ALA2        0.0000 
     56 CZ         39.1671   -5.6395   20.0105 C.ar      3 PHE5        0.0000 
     57 NZ         37.9107   -5.0917   20.6200 N.2       2 LYS4        0.0000 
     58 CA         40.0178  -11.1695   23.0427 C.3       4 GLY6        0.0000 
     59 CA         38.7615  -10.6217   23.6523 C.3       4 GLY6        0.0000 
     60 CA         41.1723  -10.7148   21.3222 C.3       4 GLY6        0.0000 
     61 CZ         39.9160  -10.1670   21.9317 C.ar      3 PHE5        0.0000 
     62 CZ         38.6596   -9.6192   22.5412 C.ar      3 PHE5        0.0000 
     63 N          37.4033   -9.0714   23.1507 N.2       1 ALA2        0.0000 
     64 N          36.1469   -8.5236   23.7602 N.2       1 ALA2        0.0000 
     65 CZ         38.5577   -8.6166   21.4301 C.ar      3 PHE5        0.0000 
     66 NZ         37.3014   -8.0688   22.0396 N.2       2 LYS4        0.0000 
     67 NZ         37.1995   -7.0662   20.9285 N.2       2 LYS4        0.0000 
     68 NZ         43.6117   -7.7987   23.7297 N.2       2 LYS4        0.0000 
     69 NZ         42.3554   -7.2510   24.3392 N.2       2 LYS4        0.0000 
     70 NZ         41.0990   -6.7032   24.9487 N.2       2 LYS4        0.0000 
@<TRIPOS>BOND
@<TRIPOS>SUBSTRUCTURE
     1 ALA2       14 GROUP   
     2 LYS4        6 GROUP   
     3 PHE5        4 GROUP   
     4 GLY6        1 GROUP   
     5 CUB7       28 GROUP   
@<TRIPOS>SET

