#    Name: 2bh2_SAH_2_INTS_M
#    Modification time : Mon Mar 24 20:58:17 2014

@<TRIPOS>MOLECULE
2bh2_SAH_2_INTS_M
   64     0    12     0     0
SMALL
NO_CHARGES


@<TRIPOS>ATOM
      1 OD1        35.9995   -4.8850   21.5665 O.co2     3 ASC3        0.0000 
      2 OD1        37.1880   -3.8600   21.3430 O.co2    11 ASL3        0.0000 
      3 OD1        34.8110   -5.9100   21.7900 O.co2     7 ASP3        0.0000 
      4 O          37.9615   -3.8285   22.5900 O.2       1 ALC1        0.0000 
      5 O          37.1880   -3.8600   21.3430 O.2       9 ALL1        0.0000 
      6 O          38.7350   -3.7970   23.8370 O.2       5 ALP1        0.0000 
      7 O          35.9995   -4.8850   21.5665 O.2       1 ALC1        0.0000 
      8 O          34.8110   -5.9100   21.7900 O.2       5 ALP1        0.0000 
      9 O          37.3135   -2.4795   20.8860 O.2       1 ALC1        0.0000 
     10 O          37.4390   -1.0990   20.4290 O.2       5 ALP1        0.0000 
     11 CA         38.1520   -6.5145   19.5415 C.3       4 GLC5        0.0000 
     12 CA         38.1570   -4.5010   20.4420 C.3      12 GLL5        0.0000 
     13 CA         38.1470   -8.5280   18.6410 C.3       8 GLP5        0.0000 
     14 CA         38.9805   -2.9525   21.6095 C.3       4 GLC5        0.0000 
     15 CA         39.8040   -1.4040   22.7770 C.3       8 GLP5        0.0000 
     16 CA         37.5495   -3.5260   18.5110 C.3       4 GLC5        0.0000 
     17 CA         36.9420   -2.5510   16.5800 C.3       8 GLP5        0.0000 
     18 CA         39.1610   -7.1435   19.8780 C.3       4 GLC5        0.0000 
     19 CA         38.8410   -5.7410   21.0500 C.3      12 GLL5        0.0000 
     20 CA         39.4810   -8.5460   18.7060 C.3       8 GLP5        0.0000 
     21 CA         38.0510   -7.6545   20.1680 C.3       4 GLC5        0.0000 
     22 CA         37.9550   -6.7810   21.6950 C.3      12 GLL5        0.0000 
     23 CA         39.1925   -8.3985   20.4080 C.3       4 GLC5        0.0000 
     24 CA         38.9040   -8.2510   22.1100 C.3      12 GLL5        0.0000 
     25 N          35.5410   -5.9855   19.0135 N.am      2 SEC2        0.0000 
     26 N          36.3730   -4.7860   18.9410 N.am     10 SEL2        0.0000 
     27 N          34.7090   -7.1850   19.0860 N.am      6 SEP2        0.0000 
     28 N          35.6060   -4.2540   17.7865 N.am      2 SEC2        0.0000 
     29 N          34.8390   -3.7220   16.6320 N.am      6 SEP2        0.0000 
     30 CA         38.4355   -9.3540   25.2290 C.3       4 GLC5        0.0000 
     31 CA         39.1770   -7.8470   23.8400 C.3      12 GLL5        0.0000 
     32 CA         37.6940  -10.8610   26.6180 C.3       8 GLP5        0.0000 
     33 O          42.6580   -5.6730   23.2020 O.2       1 ALC1        0.0000 
     34 O          42.3400   -6.8480   22.7120 O.2       9 ALL1        0.0000 
     35 O          42.9760   -4.4980   23.6920 O.2       5 ALP1        0.0000 
     36 O          44.4505   -6.6420   24.2335 O.2       1 ALC1        0.0000 
     37 O          43.9780   -7.8680   24.4890 O.2       9 ALL1        0.0000 
     38 O          44.9230   -5.4160   23.9780 O.2       5 ALP1        0.0000 
     39 CA         40.8520   -6.3030   27.1980 C.3       4 GLC5        0.0000 
     40 CA         42.0680   -7.0720   25.8160 C.3      12 GLL5        0.0000 
     41 CA         39.6360   -5.5340   28.5800 C.3       8 GLP5        0.0000 
     42 CA         42.8435   -5.2805   31.3750 C.3       4 GLC5        0.0000 
     43 CA         43.6440   -7.0820   30.4070 C.3      12 GLL5        0.0000 
     44 CA         42.0430   -3.4790   32.3430 C.3       8 GLP5        0.0000 
     45 O          44.8405   -7.2020   32.5295 O.2       1 ALC1        0.0000 
     46 O          43.7340   -7.7720   31.5410 O.2       9 ALL1        0.0000 
     47 O          45.9470   -6.6320   33.5180 O.2       5 ALP1        0.0000 
     48 N          44.3020   -4.9955   31.5330 N.am      2 SEC2        0.0000 
     49 N          44.2080   -5.8660   30.3280 N.am     10 SEL2        0.0000 
     50 N          44.3960   -4.1250   32.7380 N.am      6 SEP2        0.0000 
     51 CA         45.4365   -4.8770   28.1815 C.3       4 GLC5        0.0000 
     52 CA         44.1680   -5.1110   29.2020 C.3      12 GLL5        0.0000 
     53 CA         46.7050   -4.6430   27.1610 C.3       8 GLP5        0.0000 
     54 CA         45.4765   -4.6645   30.7195 C.3       4 GLC5        0.0000 
     55 CA         46.7850   -4.2180   32.2370 C.3       8 GLP5        0.0000 
     56 CA         43.2305   -3.7320   30.2750 C.3       4 GLC5        0.0000 
     57 CA         42.2930   -2.3530   31.3480 C.3       8 GLP5        0.0000 
     58 CA         44.8505   -5.7125   27.6490 C.3       4 GLC5        0.0000 
     59 CA         42.9960   -6.7820   28.1370 C.3      12 GLL5        0.0000 
     60 CA         40.3220   -4.3355   20.7225 C.3       4 GLC5        0.0000 
     61 CA         42.1450   -3.5500   20.6990 C.3       8 GLP5        0.0000 
     62 CA         39.2707   -5.9723   25.2548 C.3       4 GLC5        0.0000 
     63 CA         40.4760   -7.1300   24.1450 C.3      12 GLL5        0.0000 
     64 CA         38.7150   -4.4560   26.5170 C.3       8 GLP5        0.0000 
@<TRIPOS>BOND
@<TRIPOS>SUBSTRUCTURE
     1 ALC1        4 GROUP        1 X    ALC  0     ROOT ALC X 1
     2 SEC2       25 GROUP        1 X    SEC  0     **** SEC X 2
     3 ASC3        1 GROUP        1 X    ASC  0     **** ASC X 3
     4 GLC5       11 GROUP        1 X    GLC  0     **** GLC X 6
     5 ALP1        6 GROUP        1 Y    ALP  0     ROOT ALP Y 8
     6 SEP2       27 GROUP        1 Y    SEP  0     **** SEP Y 9
     7 ASP3        3 GROUP        1 Y    ASP  0     **** ASP Y 10
     8 GLP5       13 GROUP        1 Y    GLP  0     **** GLP Y 13
     9 ALL1        5 GROUP        1 Z    ALL  0     ROOT ALL Z 15
    10 SEL2       26 GROUP        1 Z    SEL  0     **** SEL Z 16
    11 ASL3        2 GROUP        1 Z    ASL  0     **** ASL Z 17
    12 GLL5       12 GROUP        1 Z    GLL  0     **** GLL Z 20
@<TRIPOS>SET

