#    Name: 2bh2_SAH_2_ligand
#    Modification time : Mon Mar 24 20:58:18 2014

@<TRIPOS>MOLECULE
2bh2_SAH_2_ligand
   46    48     1     0     0
SMALL
NO_CHARGES


@<TRIPOS>ATOM
      1 N          37.1880   -3.8600   21.3430 N.4       1 SAH500      0.0000 
      2 CA         38.1570   -4.5010   20.4420 C.3       1 SAH500      0.0000 
      3 CB         38.8410   -5.7410   21.0500 C.3       1 SAH500      0.0000 
      4 CG         37.9550   -6.7810   21.6950 C.3       1 SAH500      0.0000 
      5 SD         38.9040   -8.2510   22.1100 S.3       1 SAH500      0.0000 
      6 C          37.5870   -4.8750   19.0800 C.2       1 SAH500      0.0000 
      7 O          36.3730   -4.7860   18.9410 O.co2     1 SAH500      0.0000 
      8 OXT        38.3520   -5.1940   18.1330 O.co2     1 SAH500      0.0000 
      9 C5'        39.1770   -7.8470   23.8400 C.3       1 SAH500      0.0000 
     10 C4'        40.4760   -7.1300   24.1450 C.3       1 SAH500      0.0000 
     11 O4'        40.6970   -7.0880   25.5850 O.3       1 SAH500      0.0000 
     12 C3'        41.7130   -7.7980   23.5550 C.3       1 SAH500      0.0000 
     13 O3'        42.3400   -6.8480   22.7120 O.3       1 SAH500      0.0000 
     14 C2'        42.5870   -8.0670   24.7720 C.3       1 SAH500      0.0000 
     15 O2'        43.9780   -7.8680   24.4890 O.3       1 SAH500      0.0000 
     16 C1'        42.0680   -7.0720   25.8160 C.3       1 SAH500      0.0000 
     17 N9         42.3470   -7.4910   27.1750 N.pl3     1 SAH500      0.0000 
     18 C8         41.9900   -8.6680   27.7610 C.2       1 SAH500      0.0000 
     19 N7         42.4780   -8.6730   29.0310 N.2       1 SAH500      0.0000 
     20 C5         43.0530   -7.5460   29.2840 C.ar      1 SAH500      0.0000 
     21 C6         43.6440   -7.0820   30.4070 C.ar      1 SAH500      0.0000 
     22 N6         43.7340   -7.7720   31.5410 N.pl3     1 SAH500      0.0000 
     23 N1         44.2080   -5.8660   30.3280 N.ar      1 SAH500      0.0000 
     24 C2         44.1680   -5.1110   29.2020 C.ar      1 SAH500      0.0000 
     25 N3         43.5640   -5.5840   28.0920 N.ar      1 SAH500      0.0000 
     26 C4         42.9960   -6.7820   28.1370 C.ar      1 SAH500      0.0000 
     27 H          38.9903   -3.7763   20.2362 H         1 SAH500      0.0000 
     28 H          39.5926   -5.3861   21.7991 H         1 SAH500      0.0000 
     29 H          39.4488   -6.2269   20.2460 H         1 SAH500      0.0000 
     30 H          37.2010   -7.1678   21.0464 H         1 SAH500      0.0000 
     31 H          37.5609   -6.4852   22.6415 H         1 SAH500      0.0000 
     32 H          39.0994   -8.8201   24.3213 H         1 SAH500      0.0000 
     33 H          38.2938   -7.2597   24.0840 H         1 SAH500      0.0000 
     34 H          40.4282   -6.1171   23.7659 H         1 SAH500      0.0000 
     35 H          41.4446   -8.6847   23.1016 H         1 SAH500      0.0000 
     36 H          42.3637   -9.0516   25.1259 H         1 SAH500      0.0000 
     37 H          42.4894   -6.1210   25.5899 H         1 SAH500      0.0000 
     38 H          41.4830   -9.3700   27.3491 H         1 SAH500      0.0000 
     39 H          44.2191   -7.3235   32.2916 H         1 SAH500      0.0000 
     40 H          43.3084   -8.6769   31.5404 H         1 SAH500      0.0000 
     41 H          44.6048   -4.1657   29.1973 H         1 SAH500      0.0000 
     42 H          36.4500   -4.4842   21.5994 H         1 SAH500      0.0000 
     43 H          37.6179   -3.5504   22.1911 H         1 SAH500      0.0000 
     44 H          36.7619   -3.0597   20.9213 H         1 SAH500      0.0000 
     45 H          42.4545   -6.0334   23.2806 H         1 SAH500      0.0000 
     46 H          44.0645   -6.8917   24.2907 H         1 SAH500      0.0000 
@<TRIPOS>BOND
     1    2    1 1    
     2   42    1 1    
     3   43    1 1    
     4   44    1 1    
     5    3    2 1    
     6    6    2 1    
     7   27    2 1    
     8    4    3 1    
     9   28    3 1    
    10   29    3 1    
    11    5    4 1    
    12   30    4 1    
    13   31    4 1    
    14    9    5 1    
    15    7    6 ar   
    16    8    6 ar   
    17   10    9 1    
    18   32    9 1    
    19   33    9 1    
    20   11   10 1    
    21   12   10 1    
    22   34   10 1    
    23   16   11 1    
    24   13   12 1    
    25   14   12 1    
    26   35   12 1    
    27   45   13 1    
    28   15   14 1    
    29   16   14 1    
    30   36   14 1    
    31   46   15 1    
    32   17   16 1    
    33   37   16 1    
    34   18   17 1    
    35   26   17 1    
    36   19   18 2    
    37   38   18 1    
    38   20   19 1    
    39   21   20 ar   
    40   26   20 ar   
    41   22   21 1    
    42   23   21 ar   
    43   39   22 1    
    44   40   22 1    
    45   24   23 ar   
    46   25   24 ar   
    47   41   24 1    
    48   26   25 ar   
@<TRIPOS>SUBSTRUCTURE
     1 SAH500      1 GROUP   
@<TRIPOS>SET

