#    Name: 1ek1_CIU_2_INTS_M
#    Modification time : Tue Mar 25 00:02:06 2014

@<TRIPOS>MOLECULE
1ek1_CIU_2_INTS_M
   42     0     6     0     0
SMALL
NO_CHARGES


@<TRIPOS>ATOM
      1 CA        -48.2565  -62.3040  -54.9610 C.3       2 GLC5        0.0000 
      2 CA        -48.7950  -60.7000  -53.7840 C.3       6 GLL5        0.0000 
      3 CA        -47.7180  -63.9080  -56.1380 C.3       4 GLP5        0.0000 
      4 N         -42.9555  -59.3120  -54.4530 N.am      1 SEC2        0.0000 
      5 N         -43.0690  -60.6230  -53.5930 N.am      5 SEL2        0.0000 
      6 N         -42.8420  -58.0010  -55.3130 N.am      3 SEP2        0.0000 
      7 N         -42.9115  -60.8045  -52.2265 N.am      1 SEC2        0.0000 
      8 N         -42.7540  -60.9860  -50.8600 N.am      3 SEP2        0.0000 
      9 CA        -38.5785  -61.8670  -53.1590 C.3       2 GLC5        0.0000 
     10 CA        -38.8140  -61.0880  -54.7210 C.3       6 GLL5        0.0000 
     11 CA        -38.3430  -62.6460  -51.5970 C.3       4 GLP5        0.0000 
     12 CA        -38.5935  -64.5995  -57.7715 C.3       2 GLC5        0.0000 
     13 CA        -38.9030  -63.1870  -56.0600 C.3       6 GLL5        0.0000 
     14 CA        -38.2840  -66.0120  -59.4830 C.3       4 GLP5        0.0000 
     15 CA        -39.8225  -62.8130  -58.0685 C.3       2 GLC5        0.0000 
     16 CA        -40.7420  -62.4390  -60.0770 C.3       4 GLP5        0.0000 
     17 CA        -41.4810  -65.1425  -56.0500 C.3       2 GLC5        0.0000 
     18 CA        -40.3040  -63.2430  -55.8620 C.3       6 GLL5        0.0000 
     19 CA        -42.6580  -67.0420  -56.2380 C.3       4 GLP5        0.0000 
     20 CA        -40.0615  -64.8755  -54.8025 C.3       2 GLC5        0.0000 
     21 CA        -39.8190  -66.5080  -53.7430 C.3       4 GLP5        0.0000 
     22 CA        -47.8193  -62.8873  -51.3265 C.3       2 GLC5        0.0000 
     23 CA        -46.6180  -61.9250  -52.9090 C.3       6 GLL5        0.0000 
     24 CA        -48.3710  -64.2270  -49.9380 C.3       4 GLP5        0.0000 
     25 CA        -46.9555  -62.7160  -54.7957 C.3       2 GLC5        0.0000 
     26 CA        -46.4075  -59.2858  -56.6225 C.3       2 GLC5        0.0000 
     27 CA        -46.6290  -60.8180  -55.3220 C.3       6 GLL5        0.0000 
     28 CA        -45.5190  -58.1550  -58.0900 C.3       4 GLP5        0.0000 
     29 CA        -47.5070  -62.1623  -55.6465 C.3       2 GLC5        0.0000 
     30 CA        -40.4980  -62.5973  -53.1972 C.3       2 GLC5        0.0000 
     31 CA        -40.9580  -62.2210  -55.0920 C.3       6 GLL5        0.0000 
     32 CA        -40.4140  -63.5010  -51.5800 C.3       4 GLP5        0.0000 
     33 CA        -41.7175  -62.7395  -57.0670 C.3       2 GLC5        0.0000 
     34 CA        -42.8040  -62.7470  -58.6570 C.3       4 GLP5        0.0000 
     35 CA        -40.0975  -60.4655  -52.7415 C.3       2 GLC5        0.0000 
     36 CA        -40.2060  -61.1660  -54.5370 C.3       6 GLL5        0.0000 
     37 CA        -40.6850  -59.8040  -50.8540 C.3       4 GLP5        0.0000 
     38 CA        -38.3905  -63.3132  -53.9205 C.3       2 GLC5        0.0000 
     39 CA        -38.1190  -62.0880  -55.4820 C.3       6 GLL5        0.0000 
     40 CA        -38.2700  -63.9890  -52.0700 C.3       4 GLP5        0.0000 
     41 CA        -38.0613  -64.3231  -56.0553 C.3       2 GLC5        0.0000 
     42 CA        -36.7150  -65.7060  -56.2940 C.3       4 GLP5        0.0000 
@<TRIPOS>BOND
@<TRIPOS>SUBSTRUCTURE
     1 SEC2        4 GROUP        1 X    SEC  0     ROOT SEC X 2
     2 GLC5        1 GROUP        1 X    GLC  0     **** GLC X 6
     3 SEP2        6 GROUP        1 Y    SEP  0     ROOT SEP Y 9
     4 GLP5        3 GROUP        1 Y    GLP  0     **** GLP Y 13
     5 SEL2        5 GROUP        1 Z    SEL  0     ROOT SEL Z 16
     6 GLL5        2 GROUP        1 Z    GLL  0     **** GLL Z 20
@<TRIPOS>SET

