#    Name: 1ek1_CIU_2_ligand
#    Modification time : Tue Mar 25 00:02:06 2014

@<TRIPOS>MOLECULE
1ek1_CIU_2_ligand
   34    35     1     0     0
SMALL
NO_CHARGES


@<TRIPOS>ATOM
      1 C1        -47.9170  -61.1700  -52.5210 C.ar      1 CIU1200     0.0000 
      2 C2        -46.6180  -61.9250  -52.9090 C.ar      1 CIU1200     0.0000 
      3 C3        -45.7680  -61.1230  -53.9980 C.ar      1 CIU1200     0.0000 
      4 C4        -46.6290  -60.8180  -55.3220 C.ar      1 CIU1200     0.0000 
      5 C5        -47.9630  -60.0150  -54.9880 C.ar      1 CIU1200     0.0000 
      6 C6        -48.7950  -60.7000  -53.7840 C.ar      1 CIU1200     0.0000 
      7 N1        -44.5540  -61.9440  -54.3160 N.am      1 CIU1200     0.0000 
      8 C7        -43.3000  -61.6090  -54.2680 C.2       1 CIU1200     0.0000 
      9 O2        -43.0690  -60.6230  -53.5930 O.2       1 CIU1200     0.0000 
     10 N2        -42.3750  -62.3110  -54.9100 N.am      1 CIU1200     0.0000 
     11 C8        -40.9580  -62.2210  -55.0920 C.3       1 CIU1200     0.0000 
     12 C9        -40.2060  -61.1660  -54.5370 C.3       1 CIU1200     0.0000 
     13 C10       -38.8140  -61.0880  -54.7210 C.3       1 CIU1200     0.0000 
     14 C11       -38.1190  -62.0880  -55.4820 C.3       1 CIU1200     0.0000 
     15 C12       -38.9030  -63.1870  -56.0600 C.3       1 CIU1200     0.0000 
     16 C13       -40.3040  -63.2430  -55.8620 C.3       1 CIU1200     0.0000 
     17 H         -48.1832  -60.9947  -51.6617 H         1 CIU1200     0.0000 
     18 H         -46.3541  -62.7215  -52.5734 H         1 CIU1200     0.0000 
     19 H         -46.3817  -61.0719  -56.1423 H         1 CIU1200     0.0000 
     20 H         -48.2298  -59.2735  -55.4090 H         1 CIU1200     0.0000 
     21 H         -49.7044  -60.8114  -53.8216 H         1 CIU1200     0.0000 
     22 H         -44.8391  -62.9555  -54.6245 H         1 CIU1200     0.0000 
     23 H         -42.7827  -63.2263  -55.4693 H         1 CIU1200     0.0000 
     24 H         -41.1635  -61.4553  -56.3013 H         1 CIU1200     0.0000 
     25 H         -40.4318  -61.1131  -53.3994 H         1 CIU1200     0.0000 
     26 H         -40.6799  -60.1609  -54.8732 H         1 CIU1200     0.0000 
     27 H         -38.3002  -61.0044  -53.6892 H         1 CIU1200     0.0000 
     28 H         -38.5484  -60.0543  -55.1643 H         1 CIU1200     0.0000 
     29 H         -37.2904  -62.5392  -54.8467 H         1 CIU1200     0.0000 
     30 H         -37.5365  -61.5880  -56.3213 H         1 CIU1200     0.0000 
     31 H         -38.4263  -64.1725  -55.7108 H         1 CIU1200     0.0000 
     32 H         -38.6727  -63.2212  -57.1853 H         1 CIU1200     0.0000 
     33 H         -40.8256  -63.3127  -56.8852 H         1 CIU1200     0.0000 
     34 H         -40.5793  -64.2653  -55.4115 H         1 CIU1200     0.0000 
@<TRIPOS>BOND
     1    2    1 ar   
     2    6    1 ar   
     3   17    1 1    
     4    3    2 ar   
     5   18    2 1    
     6    4    3 ar   
     7    7    3 1    
     8    5    4 ar   
     9   19    4 1    
    10    6    5 ar   
    11   20    5 1    
    12   21    6 1    
    13    8    7 am   
    14   22    7 1    
    15    9    8 2    
    16   10    8 am   
    17   11   10 1    
    18   23   10 1    
    19   12   11 1    
    20   16   11 1    
    21   24   11 1    
    22   13   12 1    
    23   25   12 1    
    24   26   12 1    
    25   14   13 1    
    26   27   13 1    
    27   28   13 1    
    28   15   14 1    
    29   29   14 1    
    30   30   14 1    
    31   16   15 1    
    32   31   15 1    
    33   32   15 1    
    34   33   16 1    
    35   34   16 1    
@<TRIPOS>SUBSTRUCTURE
     1 CIU1200     1 GROUP   
@<TRIPOS>SET

