#    Name: 1Q3S_6_CAVITY_N1_ALL.mol2
#    Modification time : Tue Mar 11 02:51:43 2014

@<TRIPOS>MOLECULE
1Q3S_6_CAVITY_N1_ALL.mol2
   83     0     6     0     0
SMALL
NO_CHARGES


@<TRIPOS>ATOM
      1 OD1        52.3962   79.7887   75.4007 O.3       3 ASP3        0.0000 
      2 NZ         50.3276   79.5356   75.7965 N.2       4 LYS4        0.0000 
      3 OD1        51.4192   81.0586   76.7909 O.3       3 ASP3        0.0000 
      4 O          52.6243   80.1666   76.8343 O.2       2 ALA2        0.0000 
      5 NZ         49.3505   80.8055   77.1867 N.2       4 LYS4        0.0000 
      6 NZ         50.5556   79.9135   77.2301 N.2       4 LYS4        0.0000 
      7 NZ         51.7608   79.0214   77.2735 N.2       4 LYS4        0.0000 
      8 NZ         50.8973   77.8762   77.7127 N.2       4 LYS4        0.0000 
      9 CA         49.0576   83.2090   82.8777 C.3       5 GLY6        0.0000 
     10 CA         50.2628   82.3170   82.9211 C.3       5 GLY6        0.0000 
     11 CA         46.9890   82.9559   83.2735 C.3       5 GLY6        0.0000 
     12 DU         48.1941   82.0638   83.3169 H         6 CUB7        0.0000 
     13 CA         49.3993   81.1718   83.3603 C.3       5 GLY6        0.0000 
     14 O          50.6044   80.2797   83.4037 O.2       2 ALA2        0.0000 
     15 CA         46.1255   81.8107   83.7127 C.3       5 GLY6        0.0000 
     16 NZ         47.3306   80.9187   83.7561 N.2       4 LYS4        0.0000 
     17 DU         48.5357   80.0266   83.7995 H         6 CUB7        0.0000 
     18 OG         49.7409   79.1345   83.8429 O.2       1 SER1        0.0000 
     19 CA         50.9460   78.2425   83.8864 C.3       5 GLY6        0.0000 
     20 NZ         47.6722   78.8814   84.2388 N.2       4 LYS4        0.0000 
     21 OG         48.8774   77.9893   84.2822 O.2       1 SER1        0.0000 
     22 N          51.8753   81.8144   79.6581 N.2       2 ALA2        0.0000 
     23 N          53.0804   80.9223   79.7015 N.2       2 ALA2        0.0000 
     24 N          48.6015   82.4533   80.0105 N.2       2 ALA2        0.0000 
     25 CA         49.8066   81.5612   80.0539 C.3       5 GLY6        0.0000 
     26 O          51.0118   80.6692   80.0973 O.2       2 ALA2        0.0000 
     27 O          52.2169   79.7771   80.1407 O.2       2 ALA2        0.0000 
     28 NZ         47.7380   81.3081   80.4497 N.2       4 LYS4        0.0000 
     29 NZ         48.9431   80.4161   80.4931 N.2       4 LYS4        0.0000 
     30 DU         50.1483   79.5240   80.5365 H         6 CUB7        0.0000 
     31 CA         51.3534   78.6319   80.5799 C.3       5 GLY6        0.0000 
     32 CA         45.6694   81.0550   80.8455 C.3       5 GLY6        0.0000 
     33 NZ         46.8745   80.1629   80.8889 N.2       4 LYS4        0.0000 
     34 NZ         48.0796   79.2709   80.9323 N.2       4 LYS4        0.0000 
     35 OG         49.2847   78.3788   80.9757 O.2       1 SER1        0.0000 
     36 OG         50.4899   77.4867   81.0192 O.2       1 SER1        0.0000 
     37 NZ         46.0110   79.0178   81.3281 N.2       4 LYS4        0.0000 
     38 NZ         47.2161   78.1257   81.3716 N.2       4 LYS4        0.0000 
     39 OG         48.4212   77.2336   81.4150 O.2       1 SER1        0.0000 
     40 NZ         45.1475   77.8726   81.7674 N.2       4 LYS4        0.0000 
     41 CA         46.3526   76.9805   81.8108 C.3       5 GLY6        0.0000 
     42 CA         47.5577   76.0885   81.8542 C.3       5 GLY6        0.0000 
     43 NZ         51.5327   78.6435   75.8399 N.2       4 LYS4        0.0000 
     44 CA         47.2171   83.3338   84.7071 C.3       5 GLY6        0.0000 
     45 CA         48.4222   82.4417   84.7505 C.3       5 GLY6        0.0000 
     46 CA         50.8325   80.6576   84.8373 C.3       5 GLY6        0.0000 
     47 CA         46.3536   82.1886   85.1463 C.3       5 GLY6        0.0000 
     48 O          47.5587   81.2965   85.1897 O.2       2 ALA2        0.0000 
     49 CA         48.7638   80.4045   85.2331 C.3       5 GLY6        0.0000 
     50 CA         49.9689   79.5124   85.2765 C.3       5 GLY6        0.0000 
     51 O          46.6952   80.1513   85.6289 O.2       2 ALA2        0.0000 
     52 O          47.9003   79.2593   85.6724 O.2       2 ALA2        0.0000 
     53 CA         49.1054   78.3672   85.7158 C.3       5 GLY6        0.0000 
     54 CA         48.6503   82.8196   86.1841 C.3       5 GLY6        0.0000 
     55 O          47.7867   81.6744   86.6233 O.2       2 ALA2        0.0000 
     56 CA         48.9919   80.7823   86.6667 C.3       5 GLY6        0.0000 
     57 O          48.1284   79.6371   87.1060 O.2       2 ALA2        0.0000 
     58 N          48.8296   82.8312   81.4441 N.2       2 ALA2        0.0000 
     59 CA         50.0347   81.9391   81.4875 C.3       5 GLY6        0.0000 
     60 O          51.2398   81.0470   81.5309 O.2       2 ALA2        0.0000 
     61 N          46.7609   82.5781   81.8399 N.2       2 ALA2        0.0000 
     62 N          47.9661   81.6860   81.8833 N.2       2 ALA2        0.0000 
     63 DU         49.1712   80.7939   81.9267 H         6 CUB7        0.0000 
     64 O          50.3763   79.9019   81.9701 O.2       2 ALA2        0.0000 
     65 CA         51.5815   79.0098   82.0135 C.3       5 GLY6        0.0000 
     66 CA         45.8974   81.4329   82.2791 C.3       5 GLY6        0.0000 
     67 NZ         47.1026   80.5408   82.3225 N.2       4 LYS4        0.0000 
     68 DU         48.3077   79.6487   82.3659 H         6 CUB7        0.0000 
     69 OG         49.5128   78.7567   82.4093 O.2       1 SER1        0.0000 
     70 NZ         47.4442   78.5036   82.8052 N.2       4 LYS4        0.0000 
     71 OG         48.6493   77.6115   82.8486 O.2       1 SER1        0.0000 
     72 OD1        47.7858   76.4663   83.2878 O.3       3 ASP3        0.0000 
     73 N          50.4421   82.3286   78.1811 N.2       2 ALA2        0.0000 
     74 N          51.6472   81.4365   78.2245 N.2       2 ALA2        0.0000 
     75 O          52.8523   80.5444   78.2679 O.2       2 ALA2        0.0000 
     76 NZ         49.5786   81.1834   78.6203 N.2       4 LYS4        0.0000 
     77 NZ         50.7837   80.2913   78.6637 N.2       4 LYS4        0.0000 
     78 OG         51.9888   79.3993   78.7071 O.2       1 SER1        0.0000 
     79 NZ         48.7151   80.0382   79.0595 N.2       4 LYS4        0.0000 
     80 NZ         49.9202   79.1461   79.1029 N.2       4 LYS4        0.0000 
     81 CA         51.1253   78.2541   79.1463 C.3       5 GLY6        0.0000 
     82 O          49.0567   78.0010   79.5421 O.2       2 ALA2        0.0000 
     83 NZ         46.9880   77.7478   79.9380 N.2       4 LYS4        0.0000 
@<TRIPOS>BOND
@<TRIPOS>SUBSTRUCTURE
     1 SER1       18 GROUP   
     2 ALA2        4 GROUP   
     3 ASP3        1 GROUP   
     4 LYS4        2 GROUP   
     5 GLY6        9 GROUP   
     6 CUB7       12 GROUP   
@<TRIPOS>SET

