#    Name: 1q3s_ADP_6_INTS_M
#    Modification time : Mon Mar 24 23:01:10 2014

@<TRIPOS>MOLECULE
1q3s_ADP_6_INTS_M
   64     0     9     0     0
SMALL
NO_CHARGES


@<TRIPOS>ATOM
      1 N          51.9595   75.6005   80.6370 N.am      2 SEC2        0.0000 
      2 N          51.0010   76.7540   80.3220 N.am      8 SEL2        0.0000 
      3 N          52.9180   74.4470   80.9520 N.am      5 SEP2        0.0000 
      4 N          50.9040   76.1355   81.4900 N.am      2 SEC2        0.0000 
      5 N          50.8070   75.5170   82.6580 N.am      5 SEP2        0.0000 
      6 N          52.6625   76.0380   78.1825 N.am      2 SEC2        0.0000 
      7 N          51.9430   77.1670   78.1100 N.am      8 SEL2        0.0000 
      8 N          53.3820   74.9090   78.2550 N.am      5 SEP2        0.0000 
      9 N          53.4540   77.2860   78.3010 N.am      2 SEC2        0.0000 
     10 N          54.9650   77.4050   78.4920 N.am      5 SEP2        0.0000 
     11 N          49.1215   77.2765   78.2310 N.am      2 SEC2        0.0000 
     12 N          49.8680   78.5710   78.7960 N.am      8 SEL2        0.0000 
     13 N          48.3750   75.9820   77.6660 N.am      5 SEP2        0.0000 
     14 N          53.3300   81.4170   81.5805 N.am      2 SEC2        0.0000 
     15 N          53.2250   81.2730   80.0210 N.am      8 SEL2        0.0000 
     16 N          53.4350   81.5610   83.1400 N.am      5 SEP2        0.0000 
     17 N          54.2755   81.8180   78.8335 N.am      2 SEC2        0.0000 
     18 N          55.3260   82.3630   77.6460 N.am      5 SEP2        0.0000 
     19 N          52.3465   81.0995   82.3345 N.am      2 SEC2        0.0000 
     20 N          51.2580   80.6380   81.5290 N.am      8 SEL2        0.0000 
     21 CA         45.9740   80.5050   85.3515 C.3       3 GLC5        0.0000 
     22 CA         47.7940   79.8860   84.5360 C.3       9 GLL5        0.0000 
     23 CA         44.1540   81.1240   86.1670 C.3       6 GLP5        0.0000 
     24 N          46.4880   79.9670   86.8785 N.am      2 SEC2        0.0000 
     25 N          46.9880   79.3250   85.5760 N.am      8 SEL2        0.0000 
     26 N          45.9880   80.6090   88.1810 N.am      5 SEP2        0.0000 
     27 O          45.8565   78.9550   84.8750 O.2       1 ALC1        0.0000 
     28 O          46.9880   79.3250   85.5760 O.2       7 ALL1        0.0000 
     29 O          44.7250   78.5850   84.1740 O.2       4 ALP1        0.0000 
     30 CA         50.6965   81.8025   84.3185 C.3       3 GLC5        0.0000 
     31 CA         48.7550   80.9560   84.9800 C.3       9 GLL5        0.0000 
     32 CA         52.6380   82.6490   83.6570 C.3       6 GLP5        0.0000 
     33 CA         49.8790   82.8650   84.6860 C.3       3 GLC5        0.0000 
     34 CA         51.0030   84.7740   84.3920 C.3       6 GLP5        0.0000 
     35 CA         50.4045   81.1900   85.9505 C.3       3 GLC5        0.0000 
     36 CA         52.0540   81.4240   86.9210 C.3       6 GLP5        0.0000 
     37 CA         49.4335   86.1870   87.0240 C.3       3 GLC5        0.0000 
     38 CA         47.5720   85.4520   86.5200 C.3       9 GLL5        0.0000 
     39 CA         51.2950   86.9220   87.5280 C.3       6 GLP5        0.0000 
     40 N          49.1795   85.9725   88.9740 N.am      2 SEC2        0.0000 
     41 N          48.2540   85.3500   87.7380 N.am      8 SEL2        0.0000 
     42 N          50.1050   86.5950   90.2100 N.am      5 SEP2        0.0000 
     43 CA         49.9690   84.4890   86.2410 C.3       3 GLC5        0.0000 
     44 CA         48.9350   84.2040   88.0900 C.3       9 GLL5        0.0000 
     45 CA         47.9430   82.4925   88.6755 C.3       3 GLC5        0.0000 
     46 CA         46.9510   80.7810   89.2610 C.3       6 GLP5        0.0000 
     47 CA         50.4945   82.8140   87.5055 C.3       3 GLC5        0.0000 
     48 CA         48.4350   85.2495   89.6705 C.3       3 GLC5        0.0000 
     49 CA         47.9350   86.2950   91.2510 C.3       6 GLP5        0.0000 
     50 CA         50.6115   84.6640   88.5215 C.3       3 GLC5        0.0000 
     51 CA         52.2880   85.1240   88.9530 C.3       6 GLP5        0.0000 
     52 CA         49.6440   83.9745   85.1895 C.3       3 GLC5        0.0000 
     53 CA         48.2850   83.1750   85.9870 C.3       9 GLL5        0.0000 
     54 CA         47.6180   81.9780   87.6240 C.3       3 GLC5        0.0000 
     55 CA         50.1695   82.2995   86.4540 C.3       3 GLC5        0.0000 
     56 CA         51.7595   78.7700   82.8225 C.3       3 GLC5        0.0000 
     57 CA         49.9270   79.6580   83.3640 C.3       9 GLL5        0.0000 
     58 CA         53.5610   77.7360   83.0490 C.3       6 GLP5        0.0000 
     59 CA         51.2980   81.2265   83.1265 C.3       3 GLC5        0.0000 
     60 CA         48.8127   85.3837   85.0385 C.3       3 GLC5        0.0000 
     61 CA         47.5670   84.3570   85.6000 C.3       9 GLL5        0.0000 
     62 CA         50.0560   85.8630   84.0170 C.3       6 GLP5        0.0000 
     63 CA         45.6148   84.6767   86.1590 C.3       3 GLC5        0.0000 
     64 CA         43.6600   84.4490   86.2580 C.3       6 GLP5        0.0000 
@<TRIPOS>BOND
@<TRIPOS>SUBSTRUCTURE
     1 ALC1       27 GROUP        1 X    ALC  0     ROOT ALC X 1
     2 SEC2        1 GROUP        1 X    SEC  0     **** SEC X 2
     3 GLC5       21 GROUP        1 X    GLC  0     **** GLC X 6
     4 ALP1       29 GROUP        1 Y    ALP  0     ROOT ALP Y 8
     5 SEP2        3 GROUP        1 Y    SEP  0     **** SEP Y 9
     6 GLP5       23 GROUP        1 Y    GLP  0     **** GLP Y 13
     7 ALL1       28 GROUP        1 Z    ALL  0     ROOT ALL Z 15
     8 SEL2        2 GROUP        1 Z    SEL  0     **** SEL Z 16
     9 GLL5       22 GROUP        1 Z    GLL  0     **** GLL Z 20
@<TRIPOS>SET

