#    Name: 1q3s_ADP_6_ligand
#    Modification time : Mon Mar 24 23:01:11 2014

@<TRIPOS>MOLECULE
1q3s_ADP_6_ligand
   39    41     1     0     0
SMALL
NO_CHARGES


@<TRIPOS>ATOM
      1 PB         51.2590   77.7880   79.2830 P.3       1 ADP6528     0.0000 
      2 O1B        51.0010   76.7540   80.3220 O.co2     1 ADP6528     0.0000 
      3 O2B        51.9430   77.1670   78.1100 O.co2     1 ADP6528     0.0000 
      4 O3B        49.8680   78.5710   78.7960 O.co2     1 ADP6528     0.0000 
      5 PA         51.9300   80.5380   80.0700 P.3       1 ADP6528     0.0000 
      6 O1A        51.0030   81.0420   79.0270 O.co2     1 ADP6528     0.0000 
      7 O2A        53.2250   81.2730   80.0210 O.co2     1 ADP6528     0.0000 
      8 O3A        52.1510   78.9580   79.8790 O.3       1 ADP6528     0.0000 
      9 O5'        51.2580   80.6380   81.5290 O.3       1 ADP6528     0.0000 
     10 C5'        49.9890   79.9500   81.8280 C.3       1 ADP6528     0.0000 
     11 C4'        49.9270   79.6580   83.3640 C.3       1 ADP6528     0.0000 
     12 O4'        49.9010   80.9020   84.1160 O.3       1 ADP6528     0.0000 
     13 C3'        48.6780   78.8880   83.7900 C.3       1 ADP6528     0.0000 
     14 O3'        49.0130   77.7760   84.6720 O.3       1 ADP6528     0.0000 
     15 C2'        47.7940   79.8860   84.5360 C.3       1 ADP6528     0.0000 
     16 O2'        46.9880   79.3250   85.5760 O.3       1 ADP6528     0.0000 
     17 C1'        48.7550   80.9560   84.9800 C.3       1 ADP6528     0.0000 
     18 N9         48.1550   82.3110   85.0030 N.pl3     1 ADP6528     0.0000 
     19 C8         47.4070   82.8750   84.0430 C.2       1 ADP6528     0.0000 
     20 N7         47.0590   84.1100   84.4210 N.2       1 ADP6528     0.0000 
     21 C5         47.5670   84.3570   85.6000 C.ar      1 ADP6528     0.0000 
     22 C6         47.5720   85.4520   86.5200 C.ar      1 ADP6528     0.0000 
     23 N6         46.9250   86.5920   86.2200 N.pl3     1 ADP6528     0.0000 
     24 N1         48.2540   85.3500   87.7380 N.ar      1 ADP6528     0.0000 
     25 C2         48.9350   84.2040   88.0900 C.ar      1 ADP6528     0.0000 
     26 N3         48.9380   83.1420   87.2080 N.ar      1 ADP6528     0.0000 
     27 C4         48.2850   83.1750   85.9870 C.ar      1 ADP6528     0.0000 
     28 H          49.9230   79.0021   81.3099 H         1 ADP6528     0.0000 
     29 H          49.1368   80.5677   81.5758 H         1 ADP6528     0.0000 
     30 H          50.7939   79.0814   83.6388 H         1 ADP6528     0.0000 
     31 H          48.1586   78.5664   82.9183 H         1 ADP6528     0.0000 
     32 H          47.1614   80.3572   83.7491 H         1 ADP6528     0.0000 
     33 H          49.0754   80.6954   86.0044 H         1 ADP6528     0.0000 
     34 H          47.1571   82.4494   83.2017 H         1 ADP6528     0.0000 
     35 H          46.4371   86.6045   85.3472 H         1 ADP6528     0.0000 
     36 H          46.9894   87.3256   86.8965 H         1 ADP6528     0.0000 
     37 H          49.4266   84.1414   88.9834 H         1 ADP6528     0.0000 
     38 H          48.2696   77.7426   85.3400 H         1 ADP6528     0.0000 
     39 H          46.1372   79.0535   85.1260 H         1 ADP6528     0.0000 
@<TRIPOS>BOND
     1    2    1 ar   
     2    3    1 ar   
     3    4    1 ar   
     4    8    1 1    
     5    6    5 ar   
     6    7    5 ar   
     7    8    5 1    
     8    9    5 1    
     9   10    9 1    
    10   11   10 1    
    11   28   10 1    
    12   29   10 1    
    13   12   11 1    
    14   13   11 1    
    15   30   11 1    
    16   17   12 1    
    17   14   13 1    
    18   15   13 1    
    19   31   13 1    
    20   38   14 1    
    21   16   15 1    
    22   17   15 1    
    23   32   15 1    
    24   39   16 1    
    25   18   17 1    
    26   33   17 1    
    27   19   18 1    
    28   27   18 1    
    29   20   19 2    
    30   34   19 1    
    31   21   20 1    
    32   22   21 ar   
    33   27   21 ar   
    34   23   22 1    
    35   24   22 ar   
    36   35   23 1    
    37   36   23 1    
    38   25   24 ar   
    39   26   25 ar   
    40   37   25 1    
    41   27   26 ar   
@<TRIPOS>SUBSTRUCTURE
     1 ADP6528     1 GROUP   
@<TRIPOS>SET

