#    Name: 4gh5_NAD_4_INTS_M
#    Modification time : Mon Mar 24 22:13:23 2014

@<TRIPOS>MOLECULE
4gh5_NAD_4_INTS_M
   97     0     9     0     0
SMALL
NO_CHARGES


@<TRIPOS>ATOM
      1 N          12.2270   16.9015   -1.1455 N.am      2 SEC2        0.0000 
      2 N          12.0350   15.7430   -0.0400 N.am      8 SEL2        0.0000 
      3 N          12.4190   18.0600   -2.2510 N.am      5 SEP2        0.0000 
      4 CA          8.7305   14.6705    5.5380 C.3       3 GLC5        0.0000 
      5 CA          8.8860   15.3220    3.7530 C.3       9 GLL5        0.0000 
      6 CA          8.5750   14.0190    7.3230 C.3       6 GLP5        0.0000 
      7 O           6.1475   13.3000    3.5995 O.2       1 ALC1        0.0000 
      8 O           7.5690   13.5610    2.7780 O.2       7 ALL1        0.0000 
      9 O           4.7260   13.0390    4.4210 O.2       4 ALP1        0.0000 
     10 O           7.1345   12.9540    3.9195 O.2       1 ALC1        0.0000 
     11 O           6.7000   12.3470    5.0610 O.2       4 ALP1        0.0000 
     12 O           5.0710   14.0670    3.6865 O.2       1 ALC1        0.0000 
     13 O           5.4160   15.0950    2.9520 O.2       7 ALL1        0.0000 
     14 CA          7.7270   14.9595    5.9980 C.3       3 GLC5        0.0000 
     15 CA          6.8790   15.9000    4.6730 C.3       9 GLL5        0.0000 
     16 CA          2.3995   18.2725    8.6120 C.3       3 GLC5        0.0000 
     17 CA          4.1520   18.7760    7.4530 C.3       9 GLL5        0.0000 
     18 CA          0.6470   17.7690    9.7710 C.3       6 GLP5        0.0000 
     19 CA          4.7110   19.3295    9.2040 C.3       3 GLC5        0.0000 
     20 CA          5.2700   19.8830   10.9550 C.3       6 GLP5        0.0000 
     21 O           2.3555   20.3080    8.3950 O.2       1 ALC1        0.0000 
     22 O           3.5580   20.1220    7.5660 O.2       7 ALL1        0.0000 
     23 O           1.1530   20.4940    9.2240 O.2       4 ALP1        0.0000 
     24 N           3.2640   18.1820    9.7345 N.am      2 SEC2        0.0000 
     25 N           3.9370   17.8580    8.4180 N.am      8 SEL2        0.0000 
     26 N           2.5910   18.5060   11.0510 N.am      5 SEP2        0.0000 
     27 CA          4.4085   14.5170    7.9250 C.3       3 GLC5        0.0000 
     28 CA          4.4550   16.6210    8.3450 C.3       9 GLL5        0.0000 
     29 CA          4.3620   12.4130    7.5050 C.3       6 GLP5        0.0000 
     30 CA          3.3390   16.3845    6.8550 C.3       3 GLC5        0.0000 
     31 CA          2.2230   16.1480    5.3650 C.3       6 GLP5        0.0000 
     32 CA          2.5510   17.1950    9.0580 C.3       3 GLC5        0.0000 
     33 CA          4.9075   17.0885   10.1440 C.3       3 GLC5        0.0000 
     34 CA          5.3600   17.5560   11.9430 C.3       6 GLP5        0.0000 
     35 CA          6.3380   17.2035    8.6325 C.3       3 GLC5        0.0000 
     36 CA          8.2210   17.7860    8.9200 C.3       6 GLP5        0.0000 
     37 N           4.1275   15.2620    6.9560 N.am      2 SEC2        0.0000 
     38 N           5.2190   16.2870    7.2810 N.am      8 SEL2        0.0000 
     39 N           3.0360   14.2370    6.6310 N.am      5 SEP2        0.0000 
     40 N          14.6735   14.1665    2.8230 N.am      2 SEC2        0.0000 
     41 N          14.0980   15.4290    2.5770 N.am      8 SEL2        0.0000 
     42 N          15.2490   12.9040    3.0690 N.am      5 SEP2        0.0000 
     43 N          15.1150   16.9880   -0.1075 N.am      2 SEC2        0.0000 
     44 N          14.8910   17.3660    1.1040 N.am      8 SEL2        0.0000 
     45 N          15.3390   16.6100   -1.3190 N.am      5 SEP2        0.0000 
     46 CA         11.9865   20.4360    6.1000 C.3       3 GLC5        0.0000 
     47 CA         13.8110   19.6930    5.7490 C.3       9 GLL5        0.0000 
     48 CA         10.1620   21.1790    6.4510 C.3       6 GLP5        0.0000 
     49 N          13.9415   21.6200    7.5500 N.am      2 SEC2        0.0000 
     50 N          13.6400   20.2710    7.0720 N.am      8 SEL2        0.0000 
     51 N          14.2430   22.9690    8.0280 N.am      5 SEP2        0.0000 
     52 O          12.9740   19.0950    7.4725 O.2       1 ALC1        0.0000 
     53 O          13.6400   20.2710    7.0720 O.2       7 ALL1        0.0000 
     54 O          12.3080   17.9190    7.8730 O.2       4 ALP1        0.0000 
     55 N          14.9735   22.9420    4.5235 N.am      2 SEC2        0.0000 
     56 N          14.2470   21.9120    5.1120 N.am      8 SEL2        0.0000 
     57 N          15.7000   23.9720    3.9350 N.am      5 SEP2        0.0000 
     58 CA         16.5120   19.2565    6.8105 C.3       3 GLC5        0.0000 
     59 CA         15.9520   20.2700    5.2570 C.3       9 GLL5        0.0000 
     60 CA         17.0720   18.2430    8.3640 C.3       6 GLP5        0.0000 
     61 N          19.8775   19.7315   -0.4415 N.am      2 SEC2        0.0000 
     62 N          18.7120   20.4280   -0.0830 N.am      8 SEL2        0.0000 
     63 N          21.0430   19.0350   -0.8000 N.am      5 SEP2        0.0000 
     64 O          17.8655   18.3815   -0.9900 O.2       1 ALC1        0.0000 
     65 O          16.9900   18.9420    0.2790 O.2       7 ALL1        0.0000 
     66 O          18.7410   17.8210   -2.2590 O.2       4 ALP1        0.0000 
     67 CA         20.6715   21.0785    1.0470 C.3       3 GLC5        0.0000 
     68 CA         19.1530   21.0100    2.6350 C.3       9 GLL5        0.0000 
     69 CA         22.1900   21.1470   -0.5410 C.3       6 GLP5        0.0000 
     70 CA         19.4070   20.1395    5.7345 C.3       3 GLC5        0.0000 
     71 CA         18.1270   21.1430    4.7940 C.3       9 GLL5        0.0000 
     72 CA         20.6870   19.1360    6.6750 C.3       6 GLP5        0.0000 
     73 CA          5.5805   20.2670    7.1730 C.3       3 GLC5        0.0000 
     74 CA          4.9280   18.4500    6.3490 C.3       9 GLL5        0.0000 
     75 CA          6.6210   21.9210    7.4450 C.3       6 GLP5        0.0000 
     76 CA          3.6130   17.0190    5.9800 C.3       3 GLC5        0.0000 
     77 CA          6.6120   17.8380    7.7575 C.3       3 GLC5        0.0000 
     78 CA          5.4660   17.1670    6.2890 C.3       9 GLL5        0.0000 
     79 CA         16.1692   17.0660    4.5705 C.3       3 GLC5        0.0000 
     80 CA         14.2800   17.3290    4.8100 C.3       9 GLL5        0.0000 
     81 CA         17.8680   16.2500    3.8390 C.3       6 GLP5        0.0000 
     82 CA         15.6540   18.6535    7.0678 C.3       3 GLC5        0.0000 
     83 CA         14.6610   18.4350    5.7940 C.3       9 GLL5        0.0000 
     84 CA         13.2335   20.7460    3.7337 C.3       3 GLC5        0.0000 
     85 CA         12.2900   21.3600    2.1530 C.3       6 GLP5        0.0000 
     86 CA         15.1152   22.2288    6.1777 C.3       3 GLC5        0.0000 
     87 CA         14.5430   20.5710    4.8800 C.3       9 GLL5        0.0000 
     88 CA         14.9830   24.0370    7.2870 C.3       6 GLP5        0.0000 
     89 CA         17.6758   18.2547    3.2205 C.3       3 GLC5        0.0000 
     90 CA         16.9530   20.1420    3.0360 C.3       9 GLL5        0.0000 
     91 CA         15.6922   20.8957    2.0005 C.3       3 GLC5        0.0000 
     92 CA         13.9010   21.5320    1.3990 C.3       6 GLP5        0.0000 
     93 CA         20.3670   20.2523    4.3773 C.3       3 GLC5        0.0000 
     94 CA         21.5540   19.2960    5.4530 C.3       6 GLP5        0.0000 
     95 CA         19.0005   22.9525    5.2140 C.3       3 GLC5        0.0000 
     96 CA         19.2070   21.4070    3.9680 C.3       9 GLL5        0.0000 
     97 CA         19.3340   24.6300    6.0470 C.3       6 GLP5        0.0000 
@<TRIPOS>BOND
@<TRIPOS>SUBSTRUCTURE
     1 ALC1        7 GROUP        1 X    ALC  0     ROOT ALC X 1
     2 SEC2        1 GROUP        1 X    SEC  0     **** SEC X 2
     3 GLC5        4 GROUP        1 X    GLC  0     **** GLC X 6
     4 ALP1        9 GROUP        1 Y    ALP  0     ROOT ALP Y 8
     5 SEP2        3 GROUP        1 Y    SEP  0     **** SEP Y 9
     6 GLP5        6 GROUP        1 Y    GLP  0     **** GLP Y 13
     7 ALL1        8 GROUP        1 Z    ALL  0     ROOT ALL Z 15
     8 SEL2        2 GROUP        1 Z    SEL  0     **** SEL Z 16
     9 GLL5        5 GROUP        1 Z    GLL  0     **** GLL Z 20
@<TRIPOS>SET

