#    Name: 4gh5_NAD_4_ligand
#    Modification time : Mon Mar 24 22:13:23 2014

@<TRIPOS>MOLECULE
4gh5_NAD_4_ligand
   70    74     1     0     0
SMALL
NO_CHARGES


@<TRIPOS>ATOM
      1 PA         11.3490   16.6330    1.0700 P.3       1 NAD301      0.0000 
      2 O1A        12.0350   15.7430   -0.0400 O.co2     1 NAD301      0.0000 
      3 O2A        10.3880   17.7410    0.5430 O.co2     1 NAD301      0.0000 
      4 O5B        10.5890   15.7240    2.0300 O.3       1 NAD301      0.0000 
      5 C5B         9.9360   16.2090    3.1430 C.3       1 NAD301      0.0000 
      6 C4B         8.8860   15.3220    3.7530 C.3       1 NAD301      0.0000 
      7 O4B         8.2410   16.0350    4.8190 O.3       1 NAD301      0.0000 
      8 C3B         7.8210   14.9440    2.7820 C.3       1 NAD301      0.0000 
      9 O3B         7.5690   13.5610    2.7780 O.3       1 NAD301      0.0000 
     10 C2B         6.6690   15.7010    3.2010 C.3       1 NAD301      0.0000 
     11 O2B         5.4160   15.0950    2.9520 O.3       1 NAD301      0.0000 
     12 C1B         6.8790   15.9000    4.6730 C.3       1 NAD301      0.0000 
     13 N9A         6.1730   17.0780    5.1470 N.pl3     1 NAD301      0.0000 
     14 C8A         6.0910   18.2680    4.5120 C.2       1 NAD301      0.0000 
     15 N7A         5.3310   19.1050    5.2450 N.2       1 NAD301      0.0000 
     16 C5A         4.9280   18.4500    6.3490 C.ar      1 NAD301      0.0000 
     17 C6A         4.1520   18.7760    7.4530 C.ar      1 NAD301      0.0000 
     18 N6A         3.5580   20.1220    7.5660 N.pl3     1 NAD301      0.0000 
     19 N1A         3.9370   17.8580    8.4180 N.ar      1 NAD301      0.0000 
     20 C2A         4.4550   16.6210    8.3450 C.ar      1 NAD301      0.0000 
     21 N3A         5.2190   16.2870    7.2810 N.ar      1 NAD301      0.0000 
     22 C4A         5.4660   17.1670    6.2890 C.ar      1 NAD301      0.0000 
     23 O3         12.4450   17.2950    1.9920 O.3       1 NAD301      0.0000 
     24 PN         13.9720   16.8850    2.2690 P.3       1 NAD301      0.0000 
     25 O1N        14.0980   15.4290    2.5770 O.co2     1 NAD301      0.0000 
     26 O2N        14.8910   17.3660    1.1040 O.co2     1 NAD301      0.0000 
     27 O5D        14.3000   17.8120    3.5270 O.3       1 NAD301      0.0000 
     28 C5D        14.2800   17.3290    4.8100 C.3       1 NAD301      0.0000 
     29 C4D        14.6610   18.4350    5.7940 C.3       1 NAD301      0.0000 
     30 O4D        15.9670   18.8560    5.5320 O.3       1 NAD301      0.0000 
     31 C3D        13.8110   19.6930    5.7490 C.3       1 NAD301      0.0000 
     32 O3D        13.6400   20.2710    7.0720 O.3       1 NAD301      0.0000 
     33 C2D        14.5430   20.5710    4.8800 C.3       1 NAD301      0.0000 
     34 O2D        14.2470   21.9120    5.1120 O.3       1 NAD301      0.0000 
     35 C1D        15.9520   20.2700    5.2570 C.3       1 NAD301      0.0000 
     36 N1N        17.0210   20.5490    4.3200 N.pl3     1 NAD301      0.0000 
     37 C2N        16.9530   20.1420    3.0360 C.ar      1 NAD301      0.0000 
     38 C3N        18.0140   20.3770    2.1680 C.ar      1 NAD301      0.0000 
     39 C7N        17.9570   19.9510    0.7060 C.2       1 NAD301      0.0000 
     40 O7N        18.7120   20.4280   -0.0830 O.2       1 NAD301      0.0000 
     41 N7N        16.9900   18.9420    0.2790 N.am      1 NAD301      0.0000 
     42 C4N        19.1530   21.0100    2.6350 C.ar      1 NAD301      0.0000 
     43 C5N        19.2070   21.4070    3.9680 C.ar      1 NAD301      0.0000 
     44 C6N        18.1270   21.1430    4.7940 C.ar      1 NAD301      0.0000 
     45 H           9.4362   17.2057    2.9313 H         1 NAD301      0.0000 
     46 H          10.6648   16.4681    3.9736 H         1 NAD301      0.0000 
     47 H           9.3508   14.4300    4.1355 H         1 NAD301      0.0000 
     48 H           8.1356   15.3031    1.8036 H         1 NAD301      0.0000 
     49 H           6.7253   16.7028    2.7541 H         1 NAD301      0.0000 
     50 H           6.5151   15.0131    5.1727 H         1 NAD301      0.0000 
     51 H           6.5120   18.4827    3.6655 H         1 NAD301      0.0000 
     52 H           2.9631   20.2756    8.3550 H         1 NAD301      0.0000 
     53 H           3.7987   20.7712    6.8444 H         1 NAD301      0.0000 
     54 H           4.2733   15.9270    9.0944 H         1 NAD301      0.0000 
     55 H          14.9916   16.4990    4.9723 H         1 NAD301      0.0000 
     56 H          13.2859   16.9568    5.1181 H         1 NAD301      0.0000 
     57 H          14.6022   18.0299    6.8074 H         1 NAD301      0.0000 
     58 H          12.8709   19.4322    5.3042 H         1 NAD301      0.0000 
     59 H          14.4075   20.2686    3.8634 H         1 NAD301      0.0000 
     60 H          16.1579   20.7753    6.2220 H         1 NAD301      0.0000 
     61 H          16.1136   19.6498    2.6759 H         1 NAD301      0.0000 
     62 H          17.0216   18.6830   -0.6863 H         1 NAD301      0.0000 
     63 H          16.3761   18.5934    0.9872 H         1 NAD301      0.0000 
     64 H          19.9451   21.1850    2.0126 H         1 NAD301      0.0000 
     65 H          20.0345   21.8870    4.3297 H         1 NAD301      0.0000 
     66 H          18.1931   21.4182    5.7999 H         1 NAD301      0.0000 
     67 H           7.2798   13.3481    3.7113 H         1 NAD301      0.0000 
     68 H           5.3367   14.3730    3.6393 H         1 NAD301      0.0000 
     69 H          12.7989   19.8622    7.4262 H         1 NAD301      0.0000 
     70 H          13.8969   21.9414    6.0483 H         1 NAD301      0.0000 
@<TRIPOS>BOND
     1    2    1 ar   
     2    3    1 ar   
     3    4    1 1    
     4   23    1 1    
     5    5    4 1    
     6    6    5 1    
     7   45    5 1    
     8   46    5 1    
     9    7    6 1    
    10    8    6 1    
    11   47    6 1    
    12   12    7 1    
    13    9    8 1    
    14   10    8 1    
    15   48    8 1    
    16   67    9 1    
    17   11   10 1    
    18   12   10 1    
    19   49   10 1    
    20   68   11 1    
    21   13   12 1    
    22   50   12 1    
    23   14   13 1    
    24   22   13 1    
    25   15   14 2    
    26   51   14 1    
    27   16   15 1    
    28   17   16 ar   
    29   22   16 ar   
    30   18   17 1    
    31   19   17 ar   
    32   52   18 1    
    33   53   18 1    
    34   20   19 ar   
    35   21   20 ar   
    36   54   20 1    
    37   22   21 ar   
    38   24   23 1    
    39   25   24 ar   
    40   26   24 ar   
    41   27   24 1    
    42   28   27 1    
    43   29   28 1    
    44   55   28 1    
    45   56   28 1    
    46   30   29 1    
    47   31   29 1    
    48   57   29 1    
    49   35   30 1    
    50   32   31 1    
    51   33   31 1    
    52   58   31 1    
    53   69   32 1    
    54   34   33 1    
    55   35   33 1    
    56   59   33 1    
    57   70   34 1    
    58   36   35 1    
    59   60   35 1    
    60   37   36 ar   
    61   44   36 ar   
    62   38   37 ar   
    63   61   37 1    
    64   39   38 1    
    65   42   38 ar   
    66   40   39 2    
    67   41   39 am   
    68   62   41 1    
    69   63   41 1    
    70   43   42 ar   
    71   64   42 1    
    72   44   43 ar   
    73   65   43 1    
    74   66   44 1    
@<TRIPOS>SUBSTRUCTURE
     1 NAD301      1 GROUP   
@<TRIPOS>SET

