#    Name: 2ONC_3_CAVITY_N1_6.mol2
#    Modification time : Tue Mar 11 03:15:32 2014

@<TRIPOS>MOLECULE
2ONC_3_CAVITY_N1_6.mol2
   75     0     6     0     0
SMALL
NO_CHARGES


@<TRIPOS>ATOM
      1 CZ          1.2728   -4.8065   23.3605 C.ar      4 PHE5        0.0000 
      2 CZ          0.6932   -5.6987   24.4179 C.ar      4 PHE5        0.0000 
      3 OG          0.6850   -5.6854   22.2966 O.2       1 SER1        0.0000 
      4 DU          0.1054   -6.5776   23.3540 H         6 CUB7        0.0000 
      5 NZ         -0.4742   -7.4699   24.4113 N.2       3 LYS4        0.0000 
      6 OG          0.6767   -5.6722   20.1753 O.2       1 SER1        0.0000 
      7 DU          0.0971   -6.5644   21.2327 H         6 CUB7        0.0000 
      8 NZ         -0.4825   -7.4566   22.2901 N.2       3 LYS4        0.0000 
      9 NZ         -1.0621   -8.3488   23.3474 N.2       3 LYS4        0.0000 
     10 DU          0.0889   -6.5511   19.1114 H         6 CUB7        0.0000 
     11 O          -0.4907   -7.4433   20.1688 O.2       2 ALA2        0.0000 
     12 O          -1.0703   -8.3355   21.2262 O.2       2 ALA2        0.0000 
     13 O          -1.0786   -8.3223   19.1049 O.2       2 ALA2        0.0000 
     14 CZ          0.0205   -3.9810   23.3705 C.ar      4 PHE5        0.0000 
     15 CA          6.8785   -7.2427   26.5055 C.3       5 GLY6        0.0000 
     16 CA          6.2989   -8.1350   27.5629 C.3       5 GLY6        0.0000 
     17 OG          6.2907   -8.1217   25.4416 O.2       1 SER1        0.0000 
     18 OG          5.7111   -9.0139   26.4990 O.2       1 SER1        0.0000 
     19 OG          3.9475  -11.6507   23.3073 O.2       1 SER1        0.0000 
     20 CZ          3.7859   -6.4707   25.4617 C.ar      4 PHE5        0.0000 
     21 NZ          3.2063   -7.3629   26.5190 N.2       3 LYS4        0.0000 
     22 CZ          4.3572   -5.5652   22.2831 C.ar      4 PHE5        0.0000 
     23 CZ          3.7776   -6.4574   23.3404 C.ar      4 PHE5        0.0000 
     24 DU          3.1980   -7.3497   24.3978 H         6 CUB7        0.0000 
     25 N           2.6184   -8.2419   25.4551 N.2       2 ALA2        0.0000 
     26 DU          3.1898   -7.3364   22.2765 H         6 CUB7        0.0000 
     27 DU          2.6102   -8.2286   23.3339 H         6 CUB7        0.0000 
     28 N           2.0306   -9.1208   24.3912 N.2       2 ALA2        0.0000 
     29 DU          2.0223   -9.1075   22.2700 H         6 CUB7        0.0000 
     30 NZ          1.4427   -9.9998   23.3273 N.2       3 LYS4        0.0000 
     31 CA         -3.0722   -3.2090   22.3267 C.3       5 GLY6        0.0000 
     32 CA         -3.6600   -4.0879   21.2628 C.3       5 GLY6        0.0000 
     33 CA         -4.2396   -4.9801   22.3202 C.3       5 GLY6        0.0000 
     34 CZ          2.5335   -5.6452   25.4717 C.ar      4 PHE5        0.0000 
     35 CZ          2.5252   -5.6320   23.3505 C.ar      4 PHE5        0.0000 
     36 NZ          1.9456   -6.5242   24.4078 N.2       3 LYS4        0.0000 
     37 DU          1.9374   -6.5109   22.2866 H         6 CUB7        0.0000 
     38 DU          1.3578   -7.4031   23.3439 H         6 CUB7        0.0000 
     39 NZ          0.7782   -8.2953   24.4013 N.2       3 LYS4        0.0000 
     40 DU          1.3495   -7.3898   21.2227 H         6 CUB7        0.0000 
     41 O           0.7699   -8.2821   22.2800 O.2       2 ALA2        0.0000 
     42 OG         -0.5674   -4.8599   22.3066 O.2       1 SER1        0.0000 
     43 CZ         -1.1470   -5.7522   23.3640 C.ar      4 PHE5        0.0000 
     44 OG         -0.5757   -4.8467   20.1854 O.2       1 SER1        0.0000 
     45 DU         -1.1553   -5.7389   21.2427 H         6 CUB7        0.0000 
     46 OG         -1.7349   -6.6311   22.3001 O.2       1 SER1        0.0000 
     47 OG         -2.3145   -7.5233   23.3575 O.2       1 SER1        0.0000 
     48 CZ         -0.5839   -4.8334   18.0641 C.ar      4 PHE5        0.0000 
     49 OG         -1.1635   -5.7256   19.1215 O.2       1 SER1        0.0000 
     50 OG         -1.7431   -6.6178   20.1788 O.2       1 SER1        0.0000 
     51 O          -2.3227   -7.5100   21.2362 O.2       2 ALA2        0.0000 
     52 N          -2.9023   -8.4023   22.2936 N.2       2 ALA2        0.0000 
     53 OG         -1.7514   -6.6046   18.0576 O.2       1 SER1        0.0000 
     54 OG         -2.3310   -7.4968   19.1149 O.2       1 SER1        0.0000 
     55 CA         -2.9106   -8.3890   20.1723 C.3       5 GLY6        0.0000 
     56 CZ         -1.2402   -3.1423   21.2593 C.ar      4 PHE5        0.0000 
     57 OG         -1.8198   -4.0345   22.3167 O.2       1 SER1        0.0000 
     58 OG         -2.3994   -4.9267   23.3740 O.2       1 SER1        0.0000 
     59 CZ         -1.8280   -4.0212   20.1954 C.ar      4 PHE5        0.0000 
     60 CA         -2.4076   -4.9134   21.2528 C.3       5 GLY6        0.0000 
     61 OG         -2.9873   -5.8056   22.3101 O.2       1 SER1        0.0000 
     62 CA         -1.8363   -4.0079   18.0742 C.3       5 GLY6        0.0000 
     63 CA         -2.4159   -4.9001   19.1315 C.3       5 GLY6        0.0000 
     64 CA         -3.5751   -6.6846   21.2462 C.3       5 GLY6        0.0000 
     65 OG         -4.1547   -7.5768   22.3036 O.2       1 SER1        0.0000 
     66 CA          5.0465   -7.3095   27.5729 C.3       5 GLY6        0.0000 
     67 CZ          5.6179   -6.4040   24.3943 C.ar      4 PHE5        0.0000 
     68 CZ          5.0383   -7.2962   25.4516 C.ar      4 PHE5        0.0000 
     69 N           4.4587   -8.1884   26.5090 N.2       2 ALA2        0.0000 
     70 DU          5.0300   -7.2829   23.3304 H         6 CUB7        0.0000 
     71 OG          4.4504   -8.1751   24.3877 O.2       1 SER1        0.0000 
     72 OG          3.8708   -9.0674   25.4451 O.2       1 SER1        0.0000 
     73 OG          3.8626   -9.0541   23.3238 O.2       1 SER1        0.0000 
     74 OG          3.2830   -9.9463   24.3812 O.2       1 SER1        0.0000 
     75 N           2.6951  -10.8252   23.3173 N.2       2 ALA2        0.0000 
@<TRIPOS>BOND
@<TRIPOS>SUBSTRUCTURE
     1 SER1        3 GROUP   
     2 ALA2       11 GROUP   
     3 LYS4        5 GROUP   
     4 PHE5        1 GROUP   
     5 GLY6       15 GROUP   
     6 CUB7        4 GROUP   
@<TRIPOS>SET

