#    Name: 2onc_SY1_3_INTS_M
#    Modification time : Tue Mar 25 23:01:34 2014

@<TRIPOS>MOLECULE
2onc_SY1_3_INTS_M
   45     0    12     0     0
SMALL
NO_CHARGES


@<TRIPOS>ATOM
      1 OD1        -0.8130   -9.9230   24.0725 O.co2     3 ASC3        0.0000 
      2 OD1        -0.0150   -9.0590   24.3460 O.co2    11 ASL3        0.0000 
      3 OD1        -1.6110  -10.7870   23.7990 O.co2     7 ASP3        0.0000 
      4 OD1        -0.5855  -10.9695   24.3110 O.co2     3 ASC3        0.0000 
      5 OD1        -1.1560  -12.8800   24.2760 O.co2     7 ASP3        0.0000 
      6 OD1        -0.0485   -8.5735   25.7430 O.co2     3 ASC3        0.0000 
      7 OD1        -0.0820   -8.0880   27.1400 O.co2     7 ASP3        0.0000 
      8 O           0.6950   -9.9720   25.4590 O.2       1 ALC1        0.0000 
      9 O          -0.0150   -9.0590   24.3460 O.2       9 ALL1        0.0000 
     10 O           1.4050  -10.8850   26.5720 O.2       5 ALP1        0.0000 
     11 O          -0.8130   -9.9230   24.0725 O.2       1 ALC1        0.0000 
     12 O          -1.6110  -10.7870   23.7990 O.2       5 ALP1        0.0000 
     13 O          -0.0485   -8.5735   25.7430 O.2       1 ALC1        0.0000 
     14 O          -0.0820   -8.0880   27.1400 O.2       5 ALP1        0.0000 
     15 CA          0.6220   -4.3760   24.3475 C.3       4 GLC5        0.0000 
     16 CA          1.4850   -5.6280   22.8680 C.3      12 GLL5        0.0000 
     17 CA         -0.2410   -3.1240   25.8270 C.3       8 GLP5        0.0000 
     18 CA         -4.1980   -8.2280   20.6815 C.3       4 GLC5        0.0000 
     19 CA         -2.9900   -6.9070   21.8920 C.3      12 GLL5        0.0000 
     20 CA         -5.4060   -9.5490   19.4710 C.3       8 GLP5        0.0000 
     21 CA         -0.6220   -2.9790   21.0310 C.3       4 GLC5        0.0000 
     22 CA         -1.2460   -4.5500   22.4880 C.3      12 GLL5        0.0000 
     23 CA          0.0020   -1.4080   19.5740 C.3       8 GLP5        0.0000 
     24 CA         -0.7435   -3.8370   24.1575 C.3       4 GLC5        0.0000 
     25 N          -3.7010   -2.9450   19.9755 N.am      2 SEC2        0.0000 
     26 N          -2.2960   -3.5120   20.2300 N.am     10 SEL2        0.0000 
     27 N          -5.1060   -2.3780   19.7210 N.am      6 SEP2        0.0000 
     28 CA          3.1022   -4.5263   23.9793 C.3       4 GLC5        0.0000 
     29 CA          4.2490   -3.0640   24.6120 C.3       8 GLP5        0.0000 
     30 CA         -3.0962   -4.7445   18.6033 C.3       4 GLC5        0.0000 
     31 CA         -0.9760   -4.7720   18.6930 C.3      12 GLL5        0.0000 
     32 CA         -4.9270   -4.9960   19.0820 C.3       8 GLP5        0.0000 
     33 CA         -3.8860   -2.1578   22.0617 C.3       4 GLC5        0.0000 
     34 CA         -3.4440   -3.5950   23.2230 C.3      12 GLL5        0.0000 
     35 CA         -3.6370   -0.7020   20.7900 C.3       8 GLP5        0.0000 
     36 CA         -6.8592   -3.5968   23.6210 C.3       4 GLC5        0.0000 
     37 CA         -4.8260   -3.6320   23.4440 C.3      12 GLL5        0.0000 
     38 CA         -8.5250   -2.9920   23.9530 C.3       8 GLP5        0.0000 
     39 CA         -5.0782   -5.1590   20.9755 C.3       4 GLC5        0.0000 
     40 CA         -5.5610   -4.7710   23.1340 C.3      12 GLL5        0.0000 
     41 CA         -6.7702   -6.1280   22.6825 C.3       4 GLC5        0.0000 
     42 CA         -4.8980   -5.8730   22.6040 C.3      12 GLL5        0.0000 
     43 CA         -8.3110   -6.9340   22.4960 C.3       8 GLP5        0.0000 
     44 CA         -3.9959   -5.5406   20.6487 C.3       4 GLC5        0.0000 
     45 CA         -3.5170   -5.8390   22.3850 C.3      12 GLL5        0.0000 
@<TRIPOS>BOND
@<TRIPOS>SUBSTRUCTURE
     1 ALC1        8 GROUP        1 X    ALC  0     ROOT ALC X 1
     2 SEC2       25 GROUP        1 X    SEC  0     **** SEC X 2
     3 ASC3        1 GROUP        1 X    ASC  0     **** ASC X 3
     4 GLC5       15 GROUP        1 X    GLC  0     **** GLC X 6
     5 ALP1       10 GROUP        1 Y    ALP  0     ROOT ALP Y 8
     6 SEP2       27 GROUP        1 Y    SEP  0     **** SEP Y 9
     7 ASP3        3 GROUP        1 Y    ASP  0     **** ASP Y 10
     8 GLP5       17 GROUP        1 Y    GLP  0     **** GLP Y 13
     9 ALL1        9 GROUP        1 Z    ALL  0     ROOT ALL Z 15
    10 SEL2       26 GROUP        1 Z    SEL  0     **** SEL Z 16
    11 ASL3        2 GROUP        1 Z    ASL  0     **** ASL Z 17
    12 GLL5       16 GROUP        1 Z    GLL  0     **** GLL Z 20
@<TRIPOS>SET

