#    Name: 2onc_SY1_3_ligand
#    Modification time : Tue Mar 25 23:01:35 2014

@<TRIPOS>MOLECULE
2onc_SY1_3_ligand
   49    52     1     0     0
SMALL
NO_CHARGES


@<TRIPOS>ATOM
      1 N1         -0.0150   -9.0590   24.3460 N.4       1 SY1800      0.0000 
      2 C4          2.4260   -6.3490   23.8250 C.3       1 SY1800      0.0000 
      3 C5          1.4850   -5.6280   22.8680 C.3       1 SY1800      0.0000 
      4 C7          0.1270   -7.5930   22.5770 C.3       1 SY1800      0.0000 
      5 C8          0.1750   -5.9180   20.9190 C.2       1 SY1800      0.0000 
      6 C10         0.0200   -5.7360   18.5550 C.ar      1 SY1800      0.0000 
      7 C13        -1.1190   -4.6290   16.2950 C.ar      1 SY1800      0.0000 
      8 C15        -0.9760   -4.7720   18.6930 C.ar      1 SY1800      0.0000 
      9 C20        -2.7620   -4.6880   22.6930 C.ar      1 SY1800      0.0000 
     10 C21        -3.4440   -3.5950   23.2230 C.ar      1 SY1800      0.0000 
     11 C22        -4.8260   -3.6320   23.4440 C.ar      1 SY1800      0.0000 
     12 C24        -4.8980   -5.8730   22.6040 C.ar      1 SY1800      0.0000 
     13 C26        -2.9900   -6.9070   21.8920 C.1       1 SY1800      0.0000 
     14 N27        -2.5220   -7.8900   21.4900 N.1       1 SY1800      0.0000 
     15 C25        -3.5170   -5.8390   22.3850 C.ar      1 SY1800      0.0000 
     16 C23        -5.5610   -4.7710   23.1340 C.ar      1 SY1800      0.0000 
     17 C19        -1.2460   -4.5500   22.4880 C.3       1 SY1800      0.0000 
     18 N18        -0.7900   -4.9630   21.1360 N.am      1 SY1800      0.0000 
     19 N6          0.9410   -6.5970   21.8930 N.3       1 SY1800      0.0000 
     20 C3          1.6580   -7.4440   24.5630 C.3       1 SY1800      0.0000 
     21 C2          0.9890   -8.3900   23.5550 C.3       1 SY1800      0.0000 
     22 C16        -1.3910   -4.3790   20.0720 C.2       1 SY1800      0.0000 
     23 O17        -2.2960   -3.5120   20.2300 O.2       1 SY1800      0.0000 
     24 N9          0.5570   -6.2700   19.6660 N.2       1 SY1800      0.0000 
     25 C14        -1.5550   -4.2140   17.5560 C.ar      1 SY1800      0.0000 
     26 C12        -0.1190   -5.5960   16.1580 C.ar      1 SY1800      0.0000 
     27 C11         0.4570   -6.1560   17.2940 C.ar      1 SY1800      0.0000 
     28 H           2.8221   -5.6420   24.5438 H         1 SY1800      0.0000 
     29 H           3.2385   -6.7959   23.2651 H         1 SY1800      0.0000 
     30 H           2.0403   -4.8431   22.3572 H         1 SY1800      0.0000 
     31 H           0.6808   -5.1741   23.4446 H         1 SY1800      0.0000 
     32 H          -0.3177   -8.2934   21.8647 H         1 SY1800      0.0000 
     33 H          -0.6811   -7.1196   23.1415 H         1 SY1800      0.0000 
     34 H          -1.5433   -4.2137   15.4484 H         1 SY1800      0.0000 
     35 H          -2.9188   -2.7330   23.4602 H         1 SY1800      0.0000 
     36 H          -5.2986   -2.8062   23.8398 H         1 SY1800      0.0000 
     37 H          -5.4280   -6.7267   22.3687 H         1 SY1800      0.0000 
     38 H          -6.5682   -4.7981   23.2923 H         1 SY1800      0.0000 
     39 H          -0.7390   -5.1549   23.2605 H         1 SY1800      0.0000 
     40 H          -0.9688   -3.4977   22.6768 H         1 SY1800      0.0000 
     41 H           0.8947   -6.9921   25.1874 H         1 SY1800      0.0000 
     42 H           2.3439   -8.0118   25.1826 H         1 SY1800      0.0000 
     43 H           1.6292   -9.0035   23.1032 H         1 SY1800      0.0000 
     44 H          -2.2897   -3.5097   17.6406 H         1 SY1800      0.0000 
     45 H           0.1861   -5.8889   15.2249 H         1 SY1800      0.0000 
     46 H           1.1878   -6.8630   17.2123 H         1 SY1800      0.0000 
     47 H          -0.5038   -8.4218   24.9418 H         1 SY1800      0.0000 
     48 H          -0.7001   -9.5089   23.7732 H         1 SY1800      0.0000 
     49 H           0.3836   -9.7629   24.9339 H         1 SY1800      0.0000 
@<TRIPOS>BOND
     1   21    1 1    
     2   47    1 1    
     3   48    1 1    
     4   49    1 1    
     5    3    2 1    
     6   20    2 1    
     7   28    2 1    
     8   29    2 1    
     9   19    3 1    
    10   30    3 1    
    11   31    3 1    
    12   19    4 1    
    13   21    4 1    
    14   32    4 1    
    15   33    4 1    
    16   18    5 1    
    17   19    5 1    
    18   24    5 2    
    19    8    6 ar   
    20   24    6 1    
    21   27    6 ar   
    22   25    7 ar   
    23   26    7 ar   
    24   34    7 1    
    25   22    8 1    
    26   25    8 ar   
    27   10    9 ar   
    28   15    9 ar   
    29   17    9 1    
    30   11   10 ar   
    31   35   10 1    
    32   16   11 ar   
    33   36   11 1    
    34   15   12 ar   
    35   16   12 ar   
    36   37   12 1    
    37   14   13 3    
    38   15   13 1    
    39   38   16 1    
    40   18   17 1    
    41   39   17 1    
    42   40   17 1    
    43   22   18 am   
    44   21   20 1    
    45   41   20 1    
    46   42   20 1    
    47   43   21 1    
    48   23   22 2    
    49   44   25 1    
    50   27   26 ar   
    51   45   26 1    
    52   46   27 1    
@<TRIPOS>SUBSTRUCTURE
     1 SY1800      1 GROUP   
@<TRIPOS>SET

