#    Name: 3uyl_TYD_2_INTS_M
#    Modification time : Mon Mar 24 23:44:28 2014

@<TRIPOS>MOLECULE
3uyl_TYD_2_INTS_M
   42     0     9     0     0
SMALL
NO_CHARGES


@<TRIPOS>ATOM
      1 N          14.3390   53.7055  -20.6065 N.am      2 SEC2        0.0000 
      2 N          12.8850   53.2780  -21.0270 N.am      8 SEL2        0.0000 
      3 N          15.7930   54.1330  -20.1860 N.am      5 SEP2        0.0000 
      4 N          14.0595   52.5205  -21.3105 N.am      2 SEC2        0.0000 
      5 N          15.2340   51.7630  -21.5940 N.am      5 SEP2        0.0000 
      6 N          11.3310   54.9185  -18.2615 N.am      2 SEC2        0.0000 
      7 N          12.1570   55.1080  -19.4610 N.am      8 SEL2        0.0000 
      8 N          10.5050   54.7290  -17.0620 N.am      5 SEP2        0.0000 
      9 N          13.2960   55.7440  -19.2320 N.am      2 SEC2        0.0000 
     10 N          14.4350   56.3800  -19.0030 N.am      5 SEP2        0.0000 
     11 CA         13.3085   51.1350  -15.2535 C.3       3 GLC5        0.0000 
     12 CA         13.1820   50.9880  -17.3530 C.3       9 GLL5        0.0000 
     13 CA         13.4350   51.2820  -13.1540 C.3       6 GLP5        0.0000 
     14 CA         14.9175   53.4955  -17.8955 C.3       3 GLC5        0.0000 
     15 CA         14.5930   51.5690  -17.6040 C.3       9 GLL5        0.0000 
     16 CA         15.2420   55.4220  -18.1870 C.3       6 GLP5        0.0000 
     17 N          16.7415   51.9075  -16.1565 N.am      2 SEC2        0.0000 
     18 N          15.2030   51.9280  -16.3490 N.am      8 SEL2        0.0000 
     19 N          18.2800   51.8870  -15.9640 N.am      5 SEP2        0.0000 
     20 CA         16.8150   50.1445  -19.3380 C.3       3 GLC5        0.0000 
     21 CA         15.3750   50.3800  -18.1880 C.3       9 GLL5        0.0000 
     22 CA         18.2550   49.9090  -20.4880 C.3       6 GLP5        0.0000 
     23 N          18.3440   47.4940  -17.3300 N.am      2 SEC2        0.0000 
     24 N          16.9350   47.6740  -17.2890 N.am      8 SEL2        0.0000 
     25 N          19.7530   47.3140  -17.3710 N.am      5 SEP2        0.0000 
     26 O          17.1480   45.2890  -18.0890 O.2       1 ALC1        0.0000 
     27 O          15.9710   45.9120  -18.3760 O.2       7 ALL1        0.0000 
     28 O          18.3250   44.6660  -17.8020 O.2       4 ALP1        0.0000 
     29 N          15.8330   43.2290  -18.3920 N.am      2 SEC2        0.0000 
     30 N          14.9790   44.1400  -19.4600 N.am      8 SEL2        0.0000 
     31 N          16.6870   42.3180  -17.3240 N.am      5 SEP2        0.0000 
     32 CA         12.2940   44.1215  -21.3035 C.3       3 GLC5        0.0000 
     33 CA         12.5170   45.4630  -19.9070 C.3       9 GLL5        0.0000 
     34 CA         12.0710   42.7800  -22.7000 C.3       6 GLP5        0.0000 
     35 CA         11.0900   44.7210  -20.6685 C.3       3 GLC5        0.0000 
     36 CA          9.6630   43.9790  -21.4300 C.3       6 GLP5        0.0000 
     37 CA         16.4633   49.7465  -16.4068 C.3       3 GLC5        0.0000 
     38 CA         14.7280   49.2220  -17.4210 C.3       9 GLL5        0.0000 
     39 CA         17.8750   49.6920  -15.0090 C.3       6 GLP5        0.0000 
     40 CA         14.0935   47.3994  -20.8532 C.3       3 GLC5        0.0000 
     41 CA         13.6990   46.0920  -19.2030 C.3       9 GLL5        0.0000 
     42 CA         14.7930   48.2260  -22.6020 C.3       6 GLP5        0.0000 
@<TRIPOS>BOND
@<TRIPOS>SUBSTRUCTURE
     1 ALC1       26 GROUP        1 X    ALC  0     ROOT ALC X 1
     2 SEC2        1 GROUP        1 X    SEC  0     **** SEC X 2
     3 GLC5       11 GROUP        1 X    GLC  0     **** GLC X 6
     4 ALP1       28 GROUP        1 Y    ALP  0     ROOT ALP Y 8
     5 SEP2        3 GROUP        1 Y    SEP  0     **** SEP Y 9
     6 GLP5       13 GROUP        1 Y    GLP  0     **** GLP Y 13
     7 ALL1       27 GROUP        1 Z    ALL  0     ROOT ALL Z 15
     8 SEL2        2 GROUP        1 Z    SEL  0     **** SEL Z 16
     9 GLL5       12 GROUP        1 Z    GLL  0     **** GLL Z 20
@<TRIPOS>SET

