#    Name: 3uyl_TYD_2_ligand
#    Modification time : Mon Mar 24 23:44:28 2014

@<TRIPOS>MOLECULE
3uyl_TYD_2_ligand
   38    39     1     0     0
SMALL
NO_CHARGES


@<TRIPOS>ATOM
      1 PA         11.9300   53.6910  -19.9100 P.3       1 TYD401      0.0000 
      2 O1A        12.8850   53.2780  -21.0270 O.co2     1 TYD401      0.0000 
      3 O2A        12.1570   55.1080  -19.4610 O.co2     1 TYD401      0.0000 
      4 O3A        10.3200   53.7330  -20.1960 O.3       1 TYD401      0.0000 
      5 PB          9.1640   52.5970  -20.1980 P.3       1 TYD401      0.0000 
      6 O1B         9.7660   51.9080  -21.4000 O.co2     1 TYD401      0.0000 
      7 O2B         7.8720   53.1180  -20.7510 O.co2     1 TYD401      0.0000 
      8 O3B         9.2190   51.7050  -18.9530 O.co2     1 TYD401      0.0000 
      9 O5'        12.1550   52.7840  -18.5730 O.3       1 TYD401      0.0000 
     10 C5'        12.2070   51.3480  -18.4760 C.3       1 TYD401      0.0000 
     11 C4'        13.1820   50.9880  -17.3530 C.3       1 TYD401      0.0000 
     12 O4'        13.3540   49.5620  -17.2280 O.3       1 TYD401      0.0000 
     13 C3'        14.5930   51.5690  -17.6040 C.3       1 TYD401      0.0000 
     14 O3'        15.2030   51.9280  -16.3490 O.3       1 TYD401      0.0000 
     15 C2'        15.3750   50.3800  -18.1880 C.3       1 TYD401      0.0000 
     16 C1'        14.7280   49.2220  -17.4210 C.3       1 TYD401      0.0000 
     17 N1         14.7610   47.8950  -18.0150 N.am      1 TYD401      0.0000 
     18 C2         15.9430   47.1490  -17.8680 C.2       1 TYD401      0.0000 
     19 O2         16.9350   47.6740  -17.2890 O.2       1 TYD401      0.0000 
     20 N3         15.9710   45.9120  -18.3760 N.am      1 TYD401      0.0000 
     21 C4         14.9240   45.3180  -19.0110 C.2       1 TYD401      0.0000 
     22 O4         14.9790   44.1400  -19.4600 O.2       1 TYD401      0.0000 
     23 C5         13.6990   46.0920  -19.2030 C.2       1 TYD401      0.0000 
     24 C5M        12.5170   45.4630  -19.9070 C.3       1 TYD401      0.0000 
     25 C6         13.6800   47.3680  -18.6540 C.2       1 TYD401      0.0000 
     26 H          12.5696   50.8957  -19.3952 H         1 TYD401      0.0000 
     27 H          11.2366   50.9262  -18.2281 H         1 TYD401      0.0000 
     28 H          12.8250   51.4071  -16.4239 H         1 TYD401      0.0000 
     29 H          14.5426   52.3268  -18.2990 H         1 TYD401      0.0000 
     30 H          16.3851   50.4601  -17.9298 H         1 TYD401      0.0000 
     31 H          15.1714   50.2905  -19.2097 H         1 TYD401      0.0000 
     32 H          15.2020   49.1906  -16.4218 H         1 TYD401      0.0000 
     33 H          16.8745   45.3424  -18.2815 H         1 TYD401      0.0000 
     34 H          12.8021   47.9325  -18.7403 H         1 TYD401      0.0000 
     35 H          12.7458   45.1835  -20.8395 H         1 TYD401      0.0000 
     36 H          12.1904   44.6479  -19.4285 H         1 TYD401      0.0000 
     37 H          11.7442   46.0943  -19.9715 H         1 TYD401      0.0000 
     38 H          14.6502   52.6846  -15.9998 H         1 TYD401      0.0000 
@<TRIPOS>BOND
     1    2    1 ar   
     2    3    1 ar   
     3    4    1 1    
     4    9    1 1    
     5    5    4 1    
     6    6    5 ar   
     7    7    5 ar   
     8    8    5 ar   
     9   10    9 1    
    10   11   10 1    
    11   26   10 1    
    12   27   10 1    
    13   12   11 1    
    14   13   11 1    
    15   28   11 1    
    16   16   12 1    
    17   14   13 1    
    18   15   13 1    
    19   29   13 1    
    20   38   14 1    
    21   16   15 1    
    22   30   15 1    
    23   31   15 1    
    24   17   16 1    
    25   32   16 1    
    26   18   17 1    
    27   25   17 1    
    28   19   18 2    
    29   20   18 1    
    30   21   20 1    
    31   33   20 1    
    32   22   21 2    
    33   23   21 1    
    34   24   23 1    
    35   25   23 2    
    36   35   24 1    
    37   36   24 1    
    38   37   24 1    
    39   34   25 1    
@<TRIPOS>SUBSTRUCTURE
     1 TYD401      1 GROUP   
@<TRIPOS>SET

