#    Name: 3qcs_3Q1_1_INTS_M
#    Modification time : Tue Mar 25 09:38:26 2014

@<TRIPOS>MOLECULE
3qcs_3Q1_1_INTS_M
   65     0     9     0     0
SMALL
NO_CHARGES


@<TRIPOS>ATOM
      1 CA        -40.3035   16.1615   14.8895 C.3       3 GLC5        0.0000 
      2 CA        -40.8520   16.4420   12.8550 C.3       9 GLL5        0.0000 
      3 CA        -39.7550   15.8810   16.9240 C.3       6 GLP5        0.0000 
      4 CA        -43.4830   15.2015   13.8710 C.3       3 GLC5        0.0000 
      5 CA        -43.1360   15.1680   11.7880 C.3       9 GLL5        0.0000 
      6 CA        -43.8300   15.2350   15.9540 C.3       6 GLP5        0.0000 
      7 CA        -44.9555   14.2965   11.9515 C.3       3 GLC5        0.0000 
      8 CA        -46.7750   13.4250   12.1150 C.3       6 GLP5        0.0000 
      9 CA        -47.7020   18.5820   12.4910 C.3       3 GLC5        0.0000 
     10 CA        -45.8210   19.0770   11.8310 C.3       9 GLL5        0.0000 
     11 CA        -49.5830   18.0870   13.1510 C.3       6 GLP5        0.0000 
     12 CA        -45.9255   19.3655    9.6555 C.3       3 GLC5        0.0000 
     13 CA        -46.0300   19.6540    7.4800 C.3       6 GLP5        0.0000 
     14 CA        -39.9190   13.7025   14.8085 C.3       3 GLC5        0.0000 
     15 CA        -39.9130   14.0190   12.7480 C.3       9 GLL5        0.0000 
     16 CA        -39.9250   13.3860   16.8690 C.3       6 GLP5        0.0000 
     17 CA        -39.0450   12.3405   13.8220 C.3       3 GLC5        0.0000 
     18 CA        -38.1770   10.6620   14.8960 C.3       6 GLP5        0.0000 
     19 CA        -38.8035   13.0425   11.1890 C.3       3 GLC5        0.0000 
     20 CA        -37.6940   12.0660    9.6300 C.3       6 GLP5        0.0000 
     21 CA        -47.7230   16.9350   12.0695 C.3       3 GLC5        0.0000 
     22 CA        -46.3500   17.1830   10.6660 C.3       9 GLL5        0.0000 
     23 CA        -49.0960   16.6870   13.4730 C.3       6 GLP5        0.0000 
     24 CA        -46.5625   15.3040   11.3905 C.3       3 GLC5        0.0000 
     25 CA        -44.7115   17.0450    9.3465 C.3       3 GLC5        0.0000 
     26 CA        -43.0730   16.9070    8.0270 C.3       6 GLP5        0.0000 
     27 CA        -46.6580   17.8190    8.9770 C.3       3 GLC5        0.0000 
     28 CA        -46.9660   18.4550    7.2880 C.3       6 GLP5        0.0000 
     29 CA        -44.9200   19.2410   14.1150 C.3       3 GLC5        0.0000 
     30 CA        -44.9590   21.0230   12.8250 C.3       9 GLL5        0.0000 
     31 CA        -44.8810   17.4590   15.4050 C.3       6 GLP5        0.0000 
     32 CA        -48.3365   19.5540   12.2830 C.3       3 GLC5        0.0000 
     33 CA        -47.0900   21.0210   11.4150 C.3       9 GLL5        0.0000 
     34 CA        -46.5600   20.3375    9.4475 C.3       3 GLC5        0.0000 
     35 CA        -45.7260   23.4950   13.7875 C.3       3 GLC5        0.0000 
     36 CA        -44.8290   22.4510   12.3540 C.3       9 GLL5        0.0000 
     37 CA        -46.6230   24.5390   15.2210 C.3       6 GLP5        0.0000 
     38 N         -45.0565   15.9910    9.7135 N.am      2 SEC2        0.0000 
     39 N         -45.1980   16.5800   10.9680 N.am      8 SEL2        0.0000 
     40 N         -44.9150   15.4020    8.4590 N.am      5 SEP2        0.0000 
     41 N         -48.0055   18.3970   11.4005 N.am      2 SEC2        0.0000 
     42 N         -46.6970   18.4100   11.0720 N.am      8 SEL2        0.0000 
     43 N         -49.3140   18.3840   11.7290 N.am      5 SEP2        0.0000 
     44 O         -37.3995   13.4215   12.5710 O.2       1 ALC1        0.0000 
     45 O         -38.6640   14.2090   13.2340 O.2       7 ALL1        0.0000 
     46 O         -36.1350   12.6340   11.9080 O.2       4 ALP1        0.0000 
     47 O         -48.6120   16.8625    9.4870 O.2       1 ALC1        0.0000 
     48 O         -47.2480   16.4620    9.8770 O.2       7 ALL1        0.0000 
     49 O         -49.9760   17.2630    9.0970 O.2       4 ALP1        0.0000 
     50 O         -46.0815   15.9320    9.1680 O.2       1 ALC1        0.0000 
     51 O         -44.9150   15.4020    8.4590 O.2       4 ALP1        0.0000 
     52 CA        -42.3402   15.4982   14.3418 C.3       3 GLC5        0.0000 
     53 CA        -40.8490   15.0810   12.6040 C.3       9 GLL5        0.0000 
     54 CA        -40.7422   15.9645   11.0363 C.3       3 GLC5        0.0000 
     55 CA        -40.0520   15.1450    9.3640 C.3       6 GLP5        0.0000 
     56 CA        -43.7265   17.1418   13.8517 C.3       3 GLC5        0.0000 
     57 CA        -42.0130   17.1260   12.5620 C.3       9 GLL5        0.0000 
     58 CA        -41.5927   15.4952   10.6378 C.3       3 GLC5        0.0000 
     59 CA        -43.1310   16.5230   12.0350 C.3       9 GLL5        0.0000 
     60 CA        -41.4895   13.1480   13.7650 C.3       3 GLC5        0.0000 
     61 CA        -42.5980   11.7460   14.8540 C.3       6 GLP5        0.0000 
     62 CA        -40.2165   14.8475   11.0200 C.3       3 GLC5        0.0000 
     63 CA        -43.4031   16.7299    9.9221 C.3       3 GLC5        0.0000 
     64 CA        -45.0134   17.9720   13.6487 C.3       3 GLC5        0.0000 
     65 CA        -44.3330   17.2600   11.7230 C.3       9 GLL5        0.0000 
@<TRIPOS>BOND
@<TRIPOS>SUBSTRUCTURE
     1 ALC1       44 GROUP        1 X    ALC  0     ROOT ALC X 1
     2 SEC2       38 GROUP        1 X    SEC  0     **** SEC X 2
     3 GLC5        1 GROUP        1 X    GLC  0     **** GLC X 6
     4 ALP1       46 GROUP        1 Y    ALP  0     ROOT ALP Y 8
     5 SEP2       40 GROUP        1 Y    SEP  0     **** SEP Y 9
     6 GLP5        3 GROUP        1 Y    GLP  0     **** GLP Y 13
     7 ALL1       45 GROUP        1 Z    ALL  0     ROOT ALL Z 15
     8 SEL2       39 GROUP        1 Z    SEL  0     **** SEL Z 16
     9 GLL5        2 GROUP        1 Z    GLL  0     **** GLL Z 20
@<TRIPOS>SET

