#    Name: 3qcs_3Q1_1_ligand
#    Modification time : Tue Mar 25 09:38:26 2014

@<TRIPOS>MOLECULE
3qcs_3Q1_1_ligand
   40    43     1     0     0
SMALL
NO_CHARGES


@<TRIPOS>ATOM
      1 C9        -40.8520   16.4420   12.8550 C.ar      1 3Q1370      0.0000 
      2 C8        -42.0130   17.1260   12.5620 C.ar      1 3Q1370      0.0000 
      3 C6        -43.1360   15.1680   11.7880 C.ar      1 3Q1370      0.0000 
      4 C12       -44.6080   18.5260   12.1850 C.ar      1 3Q1370      0.0000 
      5 C10       -40.8490   15.0810   12.6040 C.ar      1 3Q1370      0.0000 
      6 C7        -43.1310   16.5230   12.0350 C.ar      1 3Q1370      0.0000 
      7 C5        -41.9800   14.4920   12.0880 C.ar      1 3Q1370      0.0000 
      8 C11       -44.3330   17.2600   11.7230 C.ar      1 3Q1370      0.0000 
      9 C13       -45.8210   19.0770   11.8310 C.ar      1 3Q1370      0.0000 
     10 C2        -39.9130   14.0190   12.7480 C.2       1 3Q1370      0.0000 
     11 C15       -46.3500   17.1830   10.6660 C.ar      1 3Q1370      0.0000 
     12 C19       -44.9590   21.0230   12.8250 C.3       1 3Q1370      0.0000 
     13 C23       -47.0900   21.0210   11.4150 C.3       1 3Q1370      0.0000 
     14 C20       -44.8290   22.4510   12.3540 C.3       1 3Q1370      0.0000 
     15 C22       -46.7030   22.4450   11.1100 C.3       1 3Q1370      0.0000 
     16 N17       -45.1980   16.5800   10.9680 N.ar      1 3Q1370      0.0000 
     17 N14       -46.6970   18.4100   11.0720 N.ar      1 3Q1370      0.0000 
     18 N3        -40.4280   12.8530   12.3470 N.pl3     1 3Q1370      0.0000 
     19 N4        -41.6720   13.1670   11.9540 N.2       1 3Q1370      0.0000 
     20 N18       -46.1430   20.3610   12.3020 N.3       1 3Q1370      0.0000 
     21 N1        -38.6640   14.2090   13.2340 N.pl3     1 3Q1370      0.0000 
     22 N16       -47.2480   16.4620    9.8770 N.pl3     1 3Q1370      0.0000 
     23 O21       -46.1250   23.0140   12.2780 O.3       1 3Q1370      0.0000 
     24 H         -40.0419   16.9094   13.2344 H         1 3Q1370      0.0000 
     25 H         -42.0435   18.1638   12.7522 H         1 3Q1370      0.0000 
     26 H         -43.9445   14.7014   11.4082 H         1 3Q1370      0.0000 
     27 H         -43.9471   19.0340   12.7619 H         1 3Q1370      0.0000 
     28 H         -44.9720   21.0224   13.9329 H         1 3Q1370      0.0000 
     29 H         -44.0441   20.4740   12.5264 H         1 3Q1370      0.0000 
     30 H         -47.1731   20.4692   10.4590 H         1 3Q1370      0.0000 
     31 H         -48.1023   21.0224   11.8628 H         1 3Q1370      0.0000 
     32 H         -44.3282   22.4445   11.3816 H         1 3Q1370      0.0000 
     33 H         -44.1913   22.9867   13.0631 H         1 3Q1370      0.0000 
     34 H         -47.6010   22.9855   10.7979 H         1 3Q1370      0.0000 
     35 H         -45.9999   22.4378   10.2724 H         1 3Q1370      0.0000 
     36 H         -40.0165   12.0058   12.3403 H         1 3Q1370      0.0000 
     37 H         -38.6040   14.5920   14.1558 H         1 3Q1370      0.0000 
     38 H         -37.9119   13.9494   12.6282 H         1 3Q1370      0.0000 
     39 H         -48.2185   16.6337   10.0462 H         1 3Q1370      0.0000 
     40 H         -46.8436   15.8359    9.2104 H         1 3Q1370      0.0000 
@<TRIPOS>BOND
     1    2    1 ar   
     2    5    1 ar   
     3   24    1 1    
     4    6    2 ar   
     5   25    2 1    
     6    6    3 ar   
     7    7    3 ar   
     8   26    3 1    
     9    8    4 ar   
    10    9    4 ar   
    11   27    4 1    
    12    7    5 ar   
    13   10    5 2    
    14    8    6 1    
    15   19    7 2    
    16   16    8 ar   
    17   17    9 ar   
    18   20    9 1    
    19   18   10 1    
    20   21   10 1    
    21   16   11 ar   
    22   17   11 ar   
    23   22   11 1    
    24   14   12 1    
    25   20   12 1    
    26   28   12 1    
    27   29   12 1    
    28   15   13 1    
    29   20   13 1    
    30   30   13 1    
    31   31   13 1    
    32   23   14 1    
    33   32   14 1    
    34   33   14 1    
    35   23   15 1    
    36   34   15 1    
    37   35   15 1    
    38   19   18 1    
    39   36   18 1    
    40   37   21 1    
    41   38   21 1    
    42   39   22 1    
    43   40   22 1    
@<TRIPOS>SUBSTRUCTURE
     1 3Q1370      1 GROUP   
@<TRIPOS>SET

