#    Name: 3efw_AK8_1_INTS_M
#    Modification time : Tue Mar 25 01:48:04 2014

@<TRIPOS>MOLECULE
3efw_AK8_1_INTS_M
   84     0     9     0     0
SMALL
NO_CHARGES


@<TRIPOS>ATOM
      1 CA         64.9225   31.9440    1.1880 C.3       3 GLC5        0.0000 
      2 CA         64.7660   30.2380    2.3830 C.3       9 GLL5        0.0000 
      3 CA         65.0790   33.6500   -0.0070 C.3       6 GLP5        0.0000 
      4 CA         67.0500   30.3930    7.0280 C.3       3 GLC5        0.0000 
      5 CA         65.8180   28.6770    6.7320 C.3       9 GLL5        0.0000 
      6 CA         68.2820   32.1090    7.3240 C.3       6 GLP5        0.0000 
      7 CA         67.5825   28.3645    6.2320 C.3       3 GLC5        0.0000 
      8 CA         69.3470   28.0520    5.7320 C.3       6 GLP5        0.0000 
      9 CA         66.6740   24.6750    8.3950 C.3       3 GLC5        0.0000 
     10 CA         65.9400   26.3530    7.3060 C.3       9 GLL5        0.0000 
     11 CA         67.4080   22.9970    9.4840 C.3       6 GLP5        0.0000 
     12 CA         64.7040   34.1735    5.1075 C.3       3 GLC5        0.0000 
     13 CA         63.6270   32.9120    6.1860 C.3       9 GLL5        0.0000 
     14 CA         65.7810   35.4350    4.0290 C.3       6 GLP5        0.0000 
     15 CA         61.6760   33.4270    6.7890 C.3       3 GLC5        0.0000 
     16 CA         59.7250   33.9420    7.3920 C.3       6 GLP5        0.0000 
     17 CA         61.1565   26.8375    5.1270 C.3       3 GLC5        0.0000 
     18 CA         62.3330   24.9370    5.0700 C.3       9 GLL5        0.0000 
     19 CA         59.9800   28.7380    5.1840 C.3       6 GLP5        0.0000 
     20 CA         69.3170   17.1285    5.2585 C.3       3 GLC5        0.0000 
     21 CA         67.8720   16.8930    3.8070 C.3       9 GLL5        0.0000 
     22 CA         70.7620   17.3640    6.7100 C.3       6 GLP5        0.0000 
     23 CA         69.7415   17.7885    3.0940 C.3       3 GLC5        0.0000 
     24 CA         71.6110   18.6840    2.3810 C.3       6 GLP5        0.0000 
     25 CA         68.5810   13.7990    3.7025 C.3       3 GLC5        0.0000 
     26 CA         67.4390   15.6600    3.3190 C.3       9 GLL5        0.0000 
     27 CA         69.7230   11.9380    4.0860 C.3       6 GLP5        0.0000 
     28 O          62.7865   33.7230    4.3740 O.2       1 ALC1        0.0000 
     29 O          63.6130   32.6240    4.7330 O.2       7 ALL1        0.0000 
     30 O          61.9600   34.8220    4.0150 O.2       4 ALP1        0.0000 
     31 CA         66.1315   32.1130    4.5825 C.3       3 GLC5        0.0000 
     32 CA         64.1080   31.4820    4.2410 C.3       9 GLL5        0.0000 
     33 CA         68.1550   32.7440    4.9240 C.3       6 GLP5        0.0000 
     34 CA         62.4955   32.2190    3.1830 C.3       3 GLC5        0.0000 
     35 CA         60.8830   32.9560    2.1250 C.3       6 GLP5        0.0000 
     36 CA         62.7125   30.3575    3.6935 C.3       3 GLC5        0.0000 
     37 CA         61.3170   29.2330    3.1460 C.3       6 GLP5        0.0000 
     38 N          63.6775   32.5385    2.1350 N.am      2 SEC2        0.0000 
     39 N          64.2750   31.3470    2.9120 N.am      8 SEL2        0.0000 
     40 N          63.0800   33.7300    1.3580 N.am      5 SEP2        0.0000 
     41 CA         66.9860   26.7800    5.3735 C.3       3 GLC5        0.0000 
     42 CA         65.0740   26.9530    5.2230 C.3       9 GLL5        0.0000 
     43 CA         68.8980   26.6070    5.5240 C.3       6 GLP5        0.0000 
     44 N          67.1840   21.1520    4.4980 N.am      2 SEC2        0.0000 
     45 N          66.3510   20.6870    3.6840 N.am      8 SEL2        0.0000 
     46 N          68.0170   21.6170    5.3120 N.am      5 SEP2        0.0000 
     47 CA         66.1800   12.1680    0.1910 C.3       3 GLC5        0.0000 
     48 CA         66.2800   13.9880    0.8300 C.3       9 GLL5        0.0000 
     49 CA         66.0800   10.3480   -0.4480 C.3       6 GLP5        0.0000 
     50 CA         67.2750   14.0645   -0.4920 C.3       3 GLC5        0.0000 
     51 CA         68.2700   14.1410   -1.8140 C.3       6 GLP5        0.0000 
     52 CA         66.1540   11.7890    1.2175 C.3       3 GLC5        0.0000 
     53 CA         66.2280   13.2300    2.8830 C.3       9 GLL5        0.0000 
     54 CA         66.6040   30.4838    2.0717 C.3       3 GLC5        0.0000 
     55 CA         65.1120   29.1850    3.2220 C.3       9 GLL5        0.0000 
     56 CA         68.2690   31.2560    1.3410 C.3       6 GLP5        0.0000 
     57 CA         63.8085   28.7572    1.3672 C.3       3 GLC5        0.0000 
     58 CA         62.6780   27.8030   -0.0680 C.3       6 GLP5        0.0000 
     59 CA         67.4733   26.8133    6.5000 C.3       3 GLC5        0.0000 
     60 CA         66.1570   27.6860    7.6460 C.3       9 GLL5        0.0000 
     61 CA         67.4010   23.6373    3.3033 C.3       3 GLC5        0.0000 
     62 CA         65.4860   24.7240    2.8850 C.3       9 GLL5        0.0000 
     63 CA         69.3200   23.2250    3.9020 C.3       6 GLP5        0.0000 
     64 CA         66.4575   25.1522    1.5212 C.3       3 GLC5        0.0000 
     65 CA         65.4780   23.3750    2.5240 C.3       9 GLL5        0.0000 
     66 CA         67.4330   26.2550    0.3380 C.3       6 GLP5        0.0000 
     67 CA         61.6175   24.9056    3.2274 C.3       3 GLC5        0.0000 
     68 CA         63.4600   24.4100    4.1640 C.3       9 GLL5        0.0000 
     69 CA         60.3380   25.4750    1.9280 C.3       6 GLP5        0.0000 
     70 CA         68.1883   17.2377    1.7048 C.3       3 GLC5        0.0000 
     71 CA         67.1230   18.0460    3.5800 C.3       9 GLL5        0.0000 
     72 CA         68.8790   17.0060   -0.2840 C.3       6 GLP5        0.0000 
     73 CA         67.8612   16.3105    1.3370 C.3       3 GLC5        0.0000 
     74 CA         67.2985   17.1837    1.1643 C.3       3 GLC5        0.0000 
     75 CA         65.5020   16.7380    2.3730 C.3       9 GLL5        0.0000 
     76 CA         64.2540   18.0617    1.2043 C.3       3 GLC5        0.0000 
     77 CA         62.7900   18.7620   -0.2040 C.3       6 GLP5        0.0000 
     78 CA         67.0505   28.9468    4.3246 C.3       3 GLC5        0.0000 
     79 CA         68.9960   28.8920    4.5110 C.3       6 GLP5        0.0000 
     80 CA         63.1258   29.3754    3.4244 C.3       3 GLC5        0.0000 
     81 CA         64.9300   29.3240    4.6030 C.3       9 GLL5        0.0000 
     82 CA         67.3453   12.3930    2.9167 C.3       3 GLC5        0.0000 
     83 CA         65.7870   14.1900    2.0580 C.3       9 GLL5        0.0000 
     84 CA         68.6830   11.0760    3.3630 C.3       6 GLP5        0.0000 
@<TRIPOS>BOND
@<TRIPOS>SUBSTRUCTURE
     1 ALC1       28 GROUP        1 X    ALC  0     ROOT ALC X 1
     2 SEC2       38 GROUP        1 X    SEC  0     **** SEC X 2
     3 GLC5        1 GROUP        1 X    GLC  0     **** GLC X 6
     4 ALP1       30 GROUP        1 Y    ALP  0     ROOT ALP Y 8
     5 SEP2       40 GROUP        1 Y    SEP  0     **** SEP Y 9
     6 GLP5        3 GROUP        1 Y    GLP  0     **** GLP Y 13
     7 ALL1       29 GROUP        1 Z    ALL  0     ROOT ALL Z 15
     8 SEL2       39 GROUP        1 Z    SEL  0     **** SEL Z 16
     9 GLL5        2 GROUP        1 Z    GLL  0     **** GLL Z 20
@<TRIPOS>SET

