#    Name: 3efw_AK8_1_ligand
#    Modification time : Tue Mar 25 01:48:04 2014

@<TRIPOS>MOLECULE
3efw_AK8_1_ligand
   57    60     1     0     0
SMALL
NO_CHARGES


@<TRIPOS>ATOM
      1 N1         64.4400   30.4790    5.0730 N.ar      1 AK8404      0.0000 
      2 N3         65.4140   26.0240    6.1320 N.ar      1 AK8404      0.0000 
      3 C4         64.7660   30.2380    2.3830 C.ar      1 AK8404      0.0000 
      4 C5         65.2660   28.3120    5.5060 C.ar      1 AK8404      0.0000 
      5 C6         65.8180   28.6770    6.7320 C.ar      1 AK8404      0.0000 
      6 C7         66.1570   27.6860    7.6460 C.ar      1 AK8404      0.0000 
      7 C8         65.9400   26.3530    7.3060 C.ar      1 AK8404      0.0000 
      8 C10        63.6270   32.9120    6.1860 C.3       1 AK8404      0.0000 
      9 C13        65.4780   23.3750    2.5240 C.ar      1 AK8404      0.0000 
     10 C15        63.4620   23.0610    3.8030 C.ar      1 AK8404      0.0000 
     11 C17        62.3330   24.9370    5.0700 C.3       1 AK8404      0.0000 
     12 C20        67.1230   18.0460    3.5800 C.ar      1 AK8404      0.0000 
     13 C21        67.8720   16.8930    3.8070 C.ar      1 AK8404      0.0000 
     14 C22        67.4390   15.6600    3.3190 C.ar      1 AK8404      0.0000 
     15 C24        65.5020   16.7380    2.3730 C.ar      1 AK8404      0.0000 
     16 N4         63.6130   32.6240    4.7330 N.pl3     1 AK8404      0.0000 
     17 C1         64.1080   31.4820    4.2410 C.ar      1 AK8404      0.0000 
     18 N2         64.2750   31.3470    2.9120 N.ar      1 AK8404      0.0000 
     19 C3         65.1120   29.1850    3.2220 C.ar      1 AK8404      0.0000 
     20 C2         64.9300   29.3240    4.6030 C.ar      1 AK8404      0.0000 
     21 C9         65.0740   26.9530    5.2230 C.ar      1 AK8404      0.0000 
     22 O1         64.5270   26.5810    4.0250 O.3       1 AK8404      0.0000 
     23 C11        64.4870   25.2480    3.7090 C.ar      1 AK8404      0.0000 
     24 C16        63.4600   24.4100    4.1640 C.ar      1 AK8404      0.0000 
     25 C12        65.4860   24.7240    2.8850 C.ar      1 AK8404      0.0000 
     26 C14        64.4660   22.5310    2.9850 C.ar      1 AK8404      0.0000 
     27 N5         64.4250   21.2210    2.6590 N.am      1 AK8404      0.0000 
     28 C18        65.3660   20.3390    3.0270 C.2       1 AK8404      0.0000 
     29 O2         66.3510   20.6870    3.6840 O.2       1 AK8404      0.0000 
     30 N6         65.1640   19.0720    2.6180 N.am      1 AK8404      0.0000 
     31 C19        65.9340   17.9850    2.8520 C.ar      1 AK8404      0.0000 
     32 C23        66.2480   15.5700    2.5970 C.ar      1 AK8404      0.0000 
     33 C25        65.7870   14.1900    2.0580 C.3       1 AK8404      0.0000 
     34 F2         64.4600   14.1080    1.9760 F         1 AK8404      0.0000 
     35 F3         66.2800   13.9880    0.8300 F         1 AK8404      0.0000 
     36 F1         66.2280   13.2300    2.8830 F         1 AK8404      0.0000 
     37 H          64.9021   30.1259    1.3644 H         1 AK8404      0.0000 
     38 H          65.9715   29.6630    6.9556 H         1 AK8404      0.0000 
     39 H          66.5585   27.9301    8.5519 H         1 AK8404      0.0000 
     40 H          66.2047   25.6218    8.0049 H         1 AK8404      0.0000 
     41 H          66.2192   23.0027    1.9173 H         1 AK8404      0.0000 
     42 H          62.7082   22.4413    4.1459 H         1 AK8404      0.0000 
     43 H          67.4485   18.9499    3.9517 H         1 AK8404      0.0000 
     44 H          68.7525   16.9510    4.3393 H         1 AK8404      0.0000 
     45 H          67.9985   14.8150    3.4915 H         1 AK8404      0.0000 
     46 H          64.6158   16.6786    1.8441 H         1 AK8404      0.0000 
     47 H          63.1982   33.3605    4.1362 H         1 AK8404      0.0000 
     48 H          65.4946   28.3187    2.8399 H         1 AK8404      0.0000 
     49 H          66.2374   25.3402    2.5397 H         1 AK8404      0.0000 
     50 H          63.6003   20.8738    2.0790 H         1 AK8404      0.0000 
     51 H          64.2601   18.8969    2.0184 H         1 AK8404      0.0000 
     52 H          64.5566   32.9181    6.5545 H         1 AK8404      0.0000 
     53 H          63.2243   33.8039    6.3917 H         1 AK8404      0.0000 
     54 H          63.1106   32.2306    6.7047 H         1 AK8404      0.0000 
     55 H          62.3131   24.4644    5.9510 H         1 AK8404      0.0000 
     56 H          62.4372   25.9126    5.2630 H         1 AK8404      0.0000 
     57 H          61.4328   24.8155    4.6518 H         1 AK8404      0.0000 
@<TRIPOS>BOND
     1   17    1 ar   
     2   20    1 ar   
     3    7    2 ar   
     4   21    2 ar   
     5   18    3 ar   
     6   19    3 ar   
     7   37    3 1    
     8    5    4 ar   
     9   20    4 1    
    10   21    4 ar   
    11    6    5 ar   
    12   38    5 1    
    13    7    6 ar   
    14   39    6 1    
    15   40    7 1    
    16   16    8 1    
    17   52    8 1    
    18   53    8 1    
    19   54    8 1    
    20   25    9 ar   
    21   26    9 ar   
    22   41    9 1    
    23   24   10 ar   
    24   26   10 ar   
    25   42   10 1    
    26   24   11 1    
    27   55   11 1    
    28   56   11 1    
    29   57   11 1    
    30   13   12 ar   
    31   31   12 ar   
    32   43   12 1    
    33   14   13 ar   
    34   44   13 1    
    35   32   14 ar   
    36   45   14 1    
    37   31   15 ar   
    38   32   15 ar   
    39   46   15 1    
    40   17   16 1    
    41   47   16 1    
    42   18   17 ar   
    43   20   19 ar   
    44   48   19 1    
    45   22   21 1    
    46   23   22 1    
    47   24   23 ar   
    48   25   23 ar   
    49   49   25 1    
    50   27   26 1    
    51   28   27 am   
    52   50   27 1    
    53   29   28 2    
    54   30   28 am   
    55   31   30 1    
    56   51   30 1    
    57   33   32 1    
    58   34   33 1    
    59   35   33 1    
    60   36   33 1    
@<TRIPOS>SUBSTRUCTURE
     1 AK8404      1 GROUP   
@<TRIPOS>SET

