#    Name: 3rhr_NDP_2_INTS_M
#    Modification time : Mon Apr  7 20:23:32 2014

@<TRIPOS>MOLECULE
3rhr_NDP_2_INTS_M
  120     0    12     0     0
SMALL
NO_CHARGES


@<TRIPOS>ATOM
      1 N          61.1610  -30.1655   33.9075 N.am      2 SEC2        0.0000 
      2 N          60.3640  -30.6490   32.8760 N.am     10 SEL2        0.0000 
      3 N          61.9580  -29.6820   34.9390 N.am      6 SEP2        0.0000 
      4 N          61.3985  -31.3455   33.0365 N.am      2 SEC2        0.0000 
      5 N          62.4330  -32.0420   33.1970 N.am      6 SEP2        0.0000 
      6 CA         56.5930  -27.8550   34.4435 C.3       4 GLC5        0.0000 
      7 CA         57.9100  -28.7640   32.9770 C.3      12 GLL5        0.0000 
      8 CA         55.2760  -26.9460   35.9100 C.3       8 GLP5        0.0000 
      9 CA         59.3210  -28.2020   34.1755 C.3       4 GLC5        0.0000 
     10 CA         60.7320  -27.6400   35.3740 C.3       8 GLP5        0.0000 
     11 CA         53.7635  -28.0730   31.9865 C.3       4 GLC5        0.0000 
     12 CA         55.8830  -28.5560   31.4900 C.3      12 GLL5        0.0000 
     13 CA         51.6440  -27.5900   32.4830 C.3       8 GLP5        0.0000 
     14 N          53.9860  -27.4710   30.0725 N.am      2 SEC2        0.0000 
     15 N          54.9880  -27.5130   31.1550 N.am     10 SEL2        0.0000 
     16 N          52.9840  -27.4290   28.9900 N.am      6 SEP2        0.0000 
     17 O          54.9205  -26.6460   32.3000 O.2       1 ALC1        0.0000 
     18 O          54.9880  -27.5130   31.1550 O.2       9 ALL1        0.0000 
     19 O          54.8530  -25.7790   33.4450 O.2       5 ALP1        0.0000 
     20 N          54.0580  -28.4725   29.1745 N.am      2 SEC2        0.0000 
     21 N          55.1320  -29.5160   29.3590 N.am     10 SEL2        0.0000 
     22 CA         57.3350  -26.5830   29.6675 C.3       4 GLC5        0.0000 
     23 CA         57.2440  -28.4370   29.6170 C.3      12 GLL5        0.0000 
     24 CA         57.4260  -24.7290   29.7180 C.3       8 GLP5        0.0000 
     25 CA         55.4105  -27.4010   28.8505 C.3       4 GLC5        0.0000 
     26 CA         53.5770  -26.3650   28.0840 C.3       8 GLP5        0.0000 
     27 CA         58.9585  -27.3530   30.4870 C.3       4 GLC5        0.0000 
     28 CA         60.6730  -26.2690   31.3570 C.3       8 GLP5        0.0000 
     29 CA         59.3570  -28.8555   29.4845 C.3       4 GLC5        0.0000 
     30 CA         61.4700  -29.2740   29.3520 C.3       8 GLP5        0.0000 
     31 CA         58.3480  -29.9180   24.3160 C.3       4 GLC5        0.0000 
     32 CA         59.8400  -28.9050   25.5600 C.3      12 GLL5        0.0000 
     33 CA         56.8560  -30.9310   23.0720 C.3       8 GLP5        0.0000 
     34 CA         61.8355  -29.2285   24.6320 C.3       4 GLC5        0.0000 
     35 CA         63.8310  -29.5520   23.7040 C.3       8 GLP5        0.0000 
     36 O          60.9355  -29.2550   23.2075 O.2       1 ALC1        0.0000 
     37 O          60.3730  -29.7680   24.7080 O.2       9 ALL1        0.0000 
     38 O          61.4980  -28.7420   21.7070 O.2       5 ALP1        0.0000 
     39 CA         58.3465  -25.6860   27.9115 C.3       4 GLC5        0.0000 
     40 CA         59.2670  -26.6430   26.1050 C.3      12 GLL5        0.0000 
     41 CA         57.4490  -27.8115   26.0990 C.3       4 GLC5        0.0000 
     42 CA         55.6310  -28.9800   26.0930 C.3       8 GLP5        0.0000 
     43 CA         57.9535  -25.9350   25.3675 C.3       4 GLC5        0.0000 
     44 CA         56.6400  -25.2270   24.6300 C.3       8 GLP5        0.0000 
     45 CA         59.1165  -26.4625   23.9730 C.3       4 GLC5        0.0000 
     46 CA         58.9660  -26.2820   21.8410 C.3       8 GLP5        0.0000 
     47 CA         60.4860  -26.0005   27.1330 C.3       4 GLC5        0.0000 
     48 CA         61.7050  -25.3580   28.1610 C.3       8 GLP5        0.0000 
     49 CA         57.9950  -26.5745   28.6130 C.3       4 GLC5        0.0000 
     50 CA         58.5640  -28.4200   27.5080 C.3      12 GLL5        0.0000 
     51 CA         60.1345  -26.8890   27.8345 C.3       4 GLC5        0.0000 
     52 N          60.3895  -30.3950   34.8370 N.am      2 SEC2        0.0000 
     53 N          58.8210  -31.1080   34.7350 N.am     10 SEL2        0.0000 
     54 N          55.5710  -32.2525   35.8080 N.am      2 SEC2        0.0000 
     55 N          56.6840  -32.3690   35.0570 N.am     10 SEL2        0.0000 
     56 N          54.4580  -32.1360   36.5590 N.am      6 SEP2        0.0000 
     57 CA         56.8480  -32.4940   38.4170 C.3       4 GLC5        0.0000 
     58 CA         58.8010  -31.6980   38.0900 C.3      12 GLL5        0.0000 
     59 CA         54.8950  -33.2900   38.7440 C.3       8 GLP5        0.0000 
     60 CA         57.8300  -31.5345   39.8355 C.3       4 GLC5        0.0000 
     61 CA         56.8590  -31.3710   41.5810 C.3       8 GLP5        0.0000 
     62 CA         60.4620  -29.3490   36.6965 C.3       4 GLC5        0.0000 
     63 CA         60.1920  -31.0580   38.0190 C.3      12 GLL5        0.0000 
     64 CA         61.6140  -30.8600   36.5785 C.3       4 GLC5        0.0000 
     65 CA         63.0360  -30.6620   35.1380 C.3       8 GLP5        0.0000 
     66 CA         60.1345  -31.6440   41.0770 C.3       4 GLC5        0.0000 
     67 CA         60.9850  -31.4040   39.2720 C.3      12 GLL5        0.0000 
     68 CA         59.2840  -31.8840   42.8820 C.3       8 GLP5        0.0000 
     69 O          62.9065  -32.2675   40.0020 O.2       1 ALC1        0.0000 
     70 O          62.2980  -31.8040   38.9570 O.2       9 ALL1        0.0000 
     71 O          63.5150  -32.7310   41.0470 O.2       5 ALP1        0.0000 
     72 CA         63.1525  -30.0015   39.9810 C.3       4 GLC5        0.0000 
     73 CA         60.9780  -30.1120   40.0700 C.3      12 GLL5        0.0000 
     74 CA         65.3270  -29.8910   39.8920 C.3       8 GLP5        0.0000 
     75 CA         61.1825  -28.6245   41.5500 C.3       4 GLC5        0.0000 
     76 CA         61.3870  -27.1370   43.0300 C.3       8 GLP5        0.0000 
     77 O          62.7995  -31.3545   40.9870 O.2       1 ALC1        0.0000 
     78 O          62.0840  -29.9780   40.9270 O.2       9 ALL1        0.0000 
     79 O          62.4540  -30.8465   41.9030 O.2       1 ALC1        0.0000 
     80 O          62.8240  -31.7150   42.8790 O.2       5 ALP1        0.0000 
     81 CA         60.8255  -28.3485   37.1740 C.3       4 GLC5        0.0000 
     82 CA         60.9190  -29.0570   38.9740 C.3      12 GLL5        0.0000 
     83 CA         61.0250  -27.2020   37.5390 C.3       4 GLC5        0.0000 
     84 CA         61.3180  -26.7640   39.7040 C.3      12 GLL5        0.0000 
     85 O          63.9185  -26.0570   40.1225 O.2       1 ALC1        0.0000 
     86 O          63.2590  -24.8500   40.4810 O.2       9 ALL1        0.0000 
     87 O          64.5780  -27.2640   39.7640 O.2       5 ALP1        0.0000 
     88 NZ         52.9105  -28.7410   29.6245 N.4       3 LYC4        0.0000 
     89 NZ         52.8370  -30.0530   30.2590 N.4      11 LYL4        0.0000 
     90 NZ         52.9840  -27.4290   28.9900 N.4       7 LYP4        0.0000 
     91 N          51.6190  -29.5445   30.6060 N.am      2 SEC2        0.0000 
     92 N          52.8370  -30.0530   30.2590 N.am     10 SEL2        0.0000 
     93 N          50.4010  -29.0360   30.9530 N.am      6 SEP2        0.0000 
     94 NZ         53.3545  -29.3565   28.6395 N.4       3 LYC4        0.0000 
     95 NZ         53.7250  -31.2840   28.2890 N.4      11 LYL4        0.0000 
     96 N          54.0070  -30.3945   27.2495 N.am      2 SEC2        0.0000 
     97 N          53.7250  -31.2840   28.2890 N.am     10 SEL2        0.0000 
     98 N          54.2890  -29.5050   26.2100 N.am      6 SEP2        0.0000 
     99 CA         59.1232  -27.3160   31.8920 C.3       4 GLC5        0.0000 
    100 CA         57.2370  -27.9620   31.8770 C.3      12 GLL5        0.0000 
    101 CA         56.9930  -26.4940   30.7007 C.3       4 GLC5        0.0000 
    102 CA         56.1800  -28.9360   28.0113 C.3       4 GLC5        0.0000 
    103 CA         57.3335  -28.8774   26.4548 C.3       4 GLC5        0.0000 
    104 CA         59.1760  -29.3540   26.6900 C.3      12 GLL5        0.0000 
    105 CA         60.2530  -29.0244   28.0843 C.3       4 GLC5        0.0000 
    106 CA         59.9228  -30.0707   41.0680 C.3       4 GLC5        0.0000 
    107 CA         58.8970  -30.5570   42.6140 C.3       8 GLP5        0.0000 
    108 CA         60.4722  -25.0640   38.9550 C.3       4 GLC5        0.0000 
    109 CA         59.8110  -23.9500   37.8670 C.3       8 GLP5        0.0000 
    110 CA         61.2602  -26.6575   41.5365 C.3       4 GLC5        0.0000 
    111 CA         60.9490  -25.5920   40.3820 C.3      12 GLL5        0.0000 
    112 CA         57.9913  -24.1505   40.6683 C.3       4 GLC5        0.0000 
    113 CA         58.6300  -26.4700   40.5050 C.3      12 GLL5        0.0000 
    114 CA         56.9030  -22.4080   40.6520 C.3       8 GLP5        0.0000 
    115 CA         57.8979  -26.4300   38.9419 C.3       4 GLC5        0.0000 
    116 CA         59.5290  -25.3160   40.8640 C.3      12 GLL5        0.0000 
    117 CA         56.7080  -26.1120   37.6280 C.3       8 GLP5        0.0000 
    118 CA         59.4494  -25.3490   39.0614 C.3       4 GLC5        0.0000 
    119 CA         59.0960  -27.6030   39.8270 C.3      12 GLL5        0.0000 
    120 CA         60.2374  -26.9425   41.6429 C.3       4 GLC5        0.0000 
@<TRIPOS>BOND
@<TRIPOS>SUBSTRUCTURE
     1 ALC1       17 GROUP        1 X    ALC  0     ROOT ALC X 1
     2 SEC2        1 GROUP        1 X    SEC  0     **** SEC X 2
     3 LYC4       88 GROUP        1 X    LYC  0     **** LYC X 4
     4 GLC5        6 GROUP        1 X    GLC  0     **** GLC X 6
     5 ALP1       19 GROUP        1 Y    ALP  0     ROOT ALP Y 8
     6 SEP2        3 GROUP        1 Y    SEP  0     **** SEP Y 9
     7 LYP4       90 GROUP        1 Y    LYP  0     **** LYP Y 11
     8 GLP5        8 GROUP        1 Y    GLP  0     **** GLP Y 13
     9 ALL1       18 GROUP        1 Z    ALL  0     ROOT ALL Z 15
    10 SEL2        2 GROUP        1 Z    SEL  0     **** SEL Z 16
    11 LYL4       89 GROUP        1 Z    LYL  0     **** LYL Z 18
    12 GLL5        7 GROUP        1 Z    GLL  0     **** GLL Z 20
@<TRIPOS>SET

