#    Name: 3rhr_NDP_2_ligand
#    Modification time : Mon Apr  7 20:23:32 2014

@<TRIPOS>MOLECULE
3rhr_NDP_2_ligand
   74    78     1     0     0
SMALL
NO_CHARGES


@<TRIPOS>ATOM
      1 PA         59.0030  -31.1580   33.1450 P.3       1 NDP903      0.0000 
      2 O1A        60.3640  -30.6490   32.8760 O.co2     1 NDP903      0.0000 
      3 O2A        58.7570  -32.4840   32.5380 O.co2     1 NDP903      0.0000 
      4 O5B        57.9320  -30.1140   32.5640 O.3       1 NDP903      0.0000 
      5 C5B        57.9100  -28.7640   32.9770 C.3       1 NDP903      0.0000 
      6 C4B        57.2370  -27.9620   31.8770 C.3       1 NDP903      0.0000 
      7 O4B        58.0420  -28.0160   30.7080 O.3       1 NDP903      0.0000 
      8 C3B        55.8830  -28.5560   31.4900 C.3       1 NDP903      0.0000 
      9 O3B        54.9880  -27.5130   31.1550 O.3       1 NDP903      0.0000 
     10 C2B        56.2140  -29.3470   30.2420 C.3       1 NDP903      0.0000 
     11 O2B        55.1320  -29.5160   29.3590 O.3       1 NDP903      0.0000 
     12 C1B        57.2440  -28.4370   29.6170 C.3       1 NDP903      0.0000 
     13 N9A        57.9970  -29.1020   28.5440 N.pl3     1 NDP903      0.0000 
     14 C8A        58.2470  -30.4460   28.3630 C.2       1 NDP903      0.0000 
     15 N7A        58.9750  -30.5850   27.2250 N.2       1 NDP903      0.0000 
     16 C5A        59.1760  -29.3540   26.6900 C.ar      1 NDP903      0.0000 
     17 C6A        59.8400  -28.9050   25.5600 C.ar      1 NDP903      0.0000 
     18 N6A        60.3730  -29.7680   24.7080 N.pl3     1 NDP903      0.0000 
     19 N1A        59.8820  -27.5530   25.2740 N.ar      1 NDP903      0.0000 
     20 C2A        59.2670  -26.6430   26.1050 C.ar      1 NDP903      0.0000 
     21 N3A        58.6030  -27.0950   27.2230 N.ar      1 NDP903      0.0000 
     22 C4A        58.5640  -28.4200   27.5080 C.ar      1 NDP903      0.0000 
     23 O3         58.8210  -31.1080   34.7350 O.3       1 NDP903      0.0000 
     24 PN         58.0320  -32.1800   35.6340 P.3       1 NDP903      0.0000 
     25 O1N        58.9070  -33.3530   35.9040 O.co2     1 NDP903      0.0000 
     26 O2N        56.6840  -32.3690   35.0570 O.co2     1 NDP903      0.0000 
     27 O5D        57.9790  -31.3200   36.9980 O.3       1 NDP903      0.0000 
     28 C5D        58.8010  -31.6980   38.0900 C.3       1 NDP903      0.0000 
     29 C4D        60.1920  -31.0580   38.0190 C.3       1 NDP903      0.0000 
     30 O4D        60.0760  -29.6380   37.9910 O.3       1 NDP903      0.0000 
     31 C3D        60.9850  -31.4040   39.2720 C.3       1 NDP903      0.0000 
     32 O3D        62.2980  -31.8040   38.9570 O.3       1 NDP903      0.0000 
     33 C2D        60.9780  -30.1120   40.0700 C.3       1 NDP903      0.0000 
     34 O2D        62.0840  -29.9780   40.9270 O.3       1 NDP903      0.0000 
     35 C1D        60.9190  -29.0570   38.9740 C.3       1 NDP903      0.0000 
     36 N1N        60.4080  -27.7490   39.4420 N.pl3     1 NDP903      0.0000 
     37 C2N        61.3180  -26.7640   39.7040 C.2       1 NDP903      0.0000 
     38 C3N        60.9490  -25.5920   40.3820 C.2       1 NDP903      0.0000 
     39 C7N        61.9780  -24.5510   40.6250 C.2       1 NDP903      0.0000 
     40 O7N        61.5140  -23.2780   40.9720 O.2       1 NDP903      0.0000 
     41 N7N        63.2590  -24.8500   40.4810 N.am      1 NDP903      0.0000 
     42 C4N        59.5290  -25.3160   40.8640 C.3       1 NDP903      0.0000 
     43 C5N        58.6300  -26.4700   40.5050 C.2       1 NDP903      0.0000 
     44 C6N        59.0960  -27.6030   39.8270 C.2       1 NDP903      0.0000 
     45 P2B        54.0590  -30.6860   29.6360 P.3       1 NDP903      0.0000 
     46 O1X        54.6580  -31.7210   30.5740 O.co2     1 NDP903      0.0000 
     47 O2X        52.8370  -30.0530   30.2590 O.co2     1 NDP903      0.0000 
     48 O3X        53.7250  -31.2840   28.2890 O.co2     1 NDP903      0.0000 
     49 H          58.9117  -28.3599   33.1221 H         1 NDP903      0.0000 
     50 H          57.3383  -28.6217   33.8939 H         1 NDP903      0.0000 
     51 H          57.0891  -26.9580   32.2022 H         1 NDP903      0.0000 
     52 H          55.5620  -29.1977   32.2375 H         1 NDP903      0.0000 
     53 H          56.7069  -30.2376   30.5285 H         1 NDP903      0.0000 
     54 H          56.6929  -27.5809   29.2140 H         1 NDP903      0.0000 
     55 H          57.9545  -31.1460   28.9426 H         1 NDP903      0.0000 
     56 H          60.2617  -30.7357   24.9344 H         1 NDP903      0.0000 
     57 H          60.8384  -29.3737   23.9156 H         1 NDP903      0.0000 
     58 H          59.3035  -25.6383   25.8927 H         1 NDP903      0.0000 
     59 H          58.9470  -32.7950   38.1340 H         1 NDP903      0.0000 
     60 H          58.3550  -31.4055   39.0607 H         1 NDP903      0.0000 
     61 H          60.7103  -31.4333   37.1715 H         1 NDP903      0.0000 
     62 H          60.4297  -32.1320   39.8201 H         1 NDP903      0.0000 
     63 H          60.0224  -30.0735   40.5865 H         1 NDP903      0.0000 
     64 H          61.9245  -28.9532   38.5801 H         1 NDP903      0.0000 
     65 H          62.3069  -26.8696   39.4018 H         1 NDP903      0.0000 
     66 H          63.4648  -25.7972   40.2349 H         1 NDP903      0.0000 
     67 H          63.9051  -24.1017   40.6313 H         1 NDP903      0.0000 
     68 H          59.1649  -24.4048   40.3942 H         1 NDP903      0.0000 
     69 H          59.5402  -25.1791   41.9432 H         1 NDP903      0.0000 
     70 H          57.6470  -26.3806   40.7869 H         1 NDP903      0.0000 
     71 H          58.4095  -28.3640   39.6092 H         1 NDP903      0.0000 
     72 H          54.5864  -27.2273   32.0251 H         1 NDP903      0.0000 
     73 H          62.8263  -31.6360   39.7893 H         1 NDP903      0.0000 
     74 H          62.0647  -30.7946   41.5039 H         1 NDP903      0.0000 
@<TRIPOS>BOND
     1    2    1 ar   
     2    3    1 ar   
     3    4    1 1    
     4   23    1 1    
     5    5    4 1    
     6    6    5 1    
     7   49    5 1    
     8   50    5 1    
     9    7    6 1    
    10    8    6 1    
    11   51    6 1    
    12   12    7 1    
    13    9    8 1    
    14   10    8 1    
    15   52    8 1    
    16   72    9 1    
    17   11   10 1    
    18   12   10 1    
    19   53   10 1    
    20   45   11 1    
    21   13   12 1    
    22   54   12 1    
    23   14   13 1    
    24   22   13 1    
    25   15   14 2    
    26   55   14 1    
    27   16   15 1    
    28   17   16 ar   
    29   22   16 ar   
    30   18   17 1    
    31   19   17 ar   
    32   56   18 1    
    33   57   18 1    
    34   20   19 ar   
    35   21   20 ar   
    36   58   20 1    
    37   22   21 ar   
    38   24   23 1    
    39   25   24 ar   
    40   26   24 ar   
    41   27   24 1    
    42   28   27 1    
    43   29   28 1    
    44   59   28 1    
    45   60   28 1    
    46   30   29 1    
    47   31   29 1    
    48   61   29 1    
    49   35   30 1    
    50   32   31 1    
    51   33   31 1    
    52   62   31 1    
    53   73   32 1    
    54   34   33 1    
    55   35   33 1    
    56   63   33 1    
    57   74   34 1    
    58   36   35 1    
    59   64   35 1    
    60   37   36 1    
    61   44   36 1    
    62   38   37 2    
    63   65   37 1    
    64   39   38 1    
    65   42   38 1    
    66   40   39 2    
    67   41   39 am   
    68   66   41 1    
    69   67   41 1    
    70   43   42 1    
    71   68   42 1    
    72   69   42 1    
    73   44   43 2    
    74   70   43 1    
    75   71   44 1    
    76   46   45 ar   
    77   47   45 ar   
    78   48   45 ar   
@<TRIPOS>SUBSTRUCTURE
     1 NDP903      1 GROUP   
@<TRIPOS>SET

