#    Name: 3otq_MZL_1_INTS_M
#    Modification time : Tue Mar 25 05:16:58 2014

@<TRIPOS>MOLECULE
3otq_MZL_1_INTS_M
   50     0     6     0     0
SMALL
NO_CHARGES


@<TRIPOS>ATOM
      1 CA         76.5130  -14.5470   72.6925 C.3       2 GLC5        0.0000 
      2 CA         75.7910  -12.9570   71.6060 C.3       6 GLL5        0.0000 
      3 CA         77.2350  -16.1370   73.7790 C.3       4 GLP5        0.0000 
      4 CA         76.7205  -15.6455   71.6520 C.3       2 GLC5        0.0000 
      5 CA         76.2060  -15.1540   69.5250 C.3       6 GLL5        0.0000 
      6 CA         76.6870  -16.5655   70.3335 C.3       2 GLC5        0.0000 
      7 CA         77.1680  -17.9770   71.1420 C.3       4 GLP5        0.0000 
      8 N          77.4330   -9.5640   64.6935 N.am      1 SEC2        0.0000 
      9 N          76.3090   -9.2820   64.0670 N.am      5 SEL2        0.0000 
     10 N          78.5570   -9.8460   65.3200 N.am      3 SEP2        0.0000 
     11 N          75.4655  -10.3675   64.1270 N.am      1 SEC2        0.0000 
     12 N          74.6220  -11.4530   64.1870 N.am      3 SEP2        0.0000 
     13 CA         72.6025   -5.5870   64.0535 C.3       2 GLC5        0.0000 
     14 CA         74.3320   -6.2900   63.0520 C.3       6 GLL5        0.0000 
     15 CA         70.8730   -4.8840   65.0550 C.3       4 GLP5        0.0000 
     16 CA         72.2995   -6.2405   62.3175 C.3       2 GLC5        0.0000 
     17 CA         70.2670   -6.1910   61.5830 C.3       4 GLP5        0.0000 
     18 CA         77.3752  -10.9322   69.4847 C.3       2 GLC5        0.0000 
     19 CA         76.1070   -9.3760   68.4970 C.3       6 GLL5        0.0000 
     20 CA         79.1250  -11.9520   70.2640 C.3       4 GLP5        0.0000 
     21 CA         74.7163  -14.3005   71.4948 C.3       2 GLC5        0.0000 
     22 CA         75.6020  -12.7050   70.3170 C.3       6 GLL5        0.0000 
     23 CA         73.7360  -15.7700   72.0280 C.3       4 GLP5        0.0000 
     24 CA         77.4108  -12.3915   70.6128 C.3       2 GLC5        0.0000 
     25 CA         77.0895   -8.0080   68.6583 C.3       2 GLC5        0.0000 
     26 CA         78.1500   -6.9950   69.3800 C.3       4 GLP5        0.0000 
     27 CA         74.1467   -8.8167   69.7138 C.3       2 GLC5        0.0000 
     28 CA         72.9360   -7.6590   70.9230 C.3       4 GLP5        0.0000 
     29 CA         74.8233  -15.1122   70.6900 C.3       2 GLC5        0.0000 
     30 CA         75.6150  -13.7550   69.1790 C.3       6 GLL5        0.0000 
     31 CA         77.5178  -13.2033   69.8080 C.3       2 GLC5        0.0000 
     32 CA         77.6017  -10.9088   72.9220 C.3       2 GLC5        0.0000 
     33 CA         75.9080  -11.5130   73.7590 C.3       6 GLL5        0.0000 
     34 CA         79.1920  -10.9610   71.7730 C.3       4 GLP5        0.0000 
     35 CA         74.3133  -13.5290   74.8813 C.3       2 GLC5        0.0000 
     36 CA         75.9260  -12.6330   74.5720 C.3       6 GLL5        0.0000 
     37 CA         72.5900  -14.4840   74.4560 C.3       4 GLP5        0.0000 
     38 CA         76.6358  -14.3555   74.5427 C.3       2 GLC5        0.0000 
     39 CA         74.9528  -12.1030   77.7122 C.3       2 GLC5        0.0000 
     40 CA         76.1470  -12.5150   76.0410 C.3       6 GLL5        0.0000 
     41 CA         73.6670  -12.3010   79.1280 C.3       4 GLP5        0.0000 
     42 CA         77.0738  -12.0885   78.1222 C.3       2 GLC5        0.0000 
     43 CA         76.3300  -11.2950   76.5520 C.3       6 GLL5        0.0000 
     44 CA         77.9090  -12.2720   79.9480 C.3       4 GLP5        0.0000 
     45 CA         74.9868   -5.4735   64.5002 C.3       2 GLC5        0.0000 
     46 CA         75.3030   -7.4160   62.9870 C.3       6 GLL5        0.0000 
     47 CA         75.1560   -4.0940   65.9810 C.3       4 GLP5        0.0000 
     48 CA         74.8402   -4.9270   59.2720 C.3       2 GLC5        0.0000 
     49 CA         74.9470   -5.6280   60.8400 C.3       6 GLL5        0.0000 
     50 CA         74.2830   -3.7250   57.7620 C.3       4 GLP5        0.0000 
@<TRIPOS>BOND
@<TRIPOS>SUBSTRUCTURE
     1 SEC2        8 GROUP        1 X    SEC  0     ROOT SEC X 2
     2 GLC5        1 GROUP        1 X    GLC  0     **** GLC X 6
     3 SEP2       10 GROUP        1 Y    SEP  0     ROOT SEP Y 9
     4 GLP5        3 GROUP        1 Y    GLP  0     **** GLP Y 13
     5 SEL2        9 GROUP        1 Z    SEL  0     ROOT SEL Z 16
     6 GLL5        2 GROUP        1 Z    GLL  0     **** GLL Z 20
@<TRIPOS>SET

