#    Name: 3otq_MZL_1_ligand
#    Modification time : Tue Mar 25 05:16:58 2014

@<TRIPOS>MOLECULE
3otq_MZL_1_ligand
   47    50     1     0     0
SMALL
NO_CHARGES


@<TRIPOS>ATOM
      1 N1         75.3920  -11.2400   70.1760 N.pl3     1 MZL556      0.0000 
      2 C2         75.1440  -10.4490   68.9140 C.ar      1 MZL556      0.0000 
      3 C3         75.6020  -12.7050   70.3170 C.2       1 MZL556      0.0000 
      4 N4         75.4830  -10.6950   71.4610 N.2       1 MZL556      0.0000 
      5 C5         74.0720  -10.6970   68.1100 C.ar      1 MZL556      0.0000 
      6 C6         76.1070   -9.3760   68.4970 C.ar      1 MZL556      0.0000 
      7 C7         75.7910  -12.9570   71.6060 C.2       1 MZL556      0.0000 
      8 C8         75.6150  -13.7550   69.1790 C.3       1 MZL556      0.0000 
      9 C9         75.7100  -11.6530   72.2840 C.2       1 MZL556      0.0000 
     10 C10        73.9010   -9.8940   66.8410 C.ar      1 MZL556      0.0000 
     11 C11        75.9510   -8.6660   67.3760 C.ar      1 MZL556      0.0000 
     12 C12        76.2060  -15.1540   69.5250 C.3       1 MZL556      0.0000 
     13 C13        75.9080  -11.5130   73.7590 C.ar      1 MZL556      0.0000 
     14 C14        74.8150   -8.9310   66.4980 C.ar      1 MZL556      0.0000 
     15 C15        75.9260  -12.6330   74.5720 C.ar      1 MZL556      0.0000 
     16 C16        76.1150  -10.2000   74.3830 C.ar      1 MZL556      0.0000 
     17 N17        74.7250   -8.1450   65.3150 N.am      1 MZL556      0.0000 
     18 C18        76.1470  -12.5150   76.0410 C.ar      1 MZL556      0.0000 
     19 N19        76.3060  -10.1250   75.6720 N.ar      1 MZL556      0.0000 
     20 C20        75.4870   -8.3520   64.1300 C.2       1 MZL556      0.0000 
     21 C21        76.3300  -11.2950   76.5520 C.ar      1 MZL556      0.0000 
     22 C22        75.3030   -7.4160   62.9870 C.ar      1 MZL556      0.0000 
     23 O23        76.3090   -9.2820   64.0670 O.2       1 MZL556      0.0000 
     24 C24        76.0270   -7.5630   61.8570 C.ar      1 MZL556      0.0000 
     25 C25        74.3320   -6.2900   63.0520 C.ar      1 MZL556      0.0000 
     26 C26        75.8480   -6.6300   60.7240 C.ar      1 MZL556      0.0000 
     27 N27        74.1960   -5.4780   62.0310 N.ar      1 MZL556      0.0000 
     28 C28        74.9470   -5.6280   60.8400 C.ar      1 MZL556      0.0000 
     29 H          73.3657  -11.3921   68.3001 H         1 MZL556      0.0000 
     30 H          76.9026   -9.2320   69.1510 H         1 MZL556      0.0000 
     31 H          75.9470  -13.7507   72.0676 H         1 MZL556      0.0000 
     32 H          76.1838  -13.3403   68.3217 H         1 MZL556      0.0000 
     33 H          74.5761  -13.8970   68.8170 H         1 MZL556      0.0000 
     34 H          73.0828  -10.1153   66.2791 H         1 MZL556      0.0000 
     35 H          76.5979   -7.9241   67.0838 H         1 MZL556      0.0000 
     36 H          75.7901  -13.5762   74.2028 H         1 MZL556      0.0000 
     37 H          76.0966   -9.3920   73.7472 H         1 MZL556      0.0000 
     38 H          74.0378   -7.3436   65.3157 H         1 MZL556      0.0000 
     39 H          76.1457  -13.3738   76.5714 H         1 MZL556      0.0000 
     40 H          76.4910  -11.1175   77.5494 H         1 MZL556      0.0000 
     41 H          76.7197   -8.3083   61.7283 H         1 MZL556      0.0000 
     42 H          73.8044   -6.2149   63.9324 H         1 MZL556      0.0000 
     43 H          76.4173   -6.7869   59.9006 H         1 MZL556      0.0000 
     44 H          74.7855   -4.9554   60.0734 H         1 MZL556      0.0000 
     45 H          77.1598  -15.0919   69.8188 H         1 MZL556      0.0000 
     46 H          75.6999  -15.5985   70.2642 H         1 MZL556      0.0000 
     47 H          76.1810  -15.7723   68.7395 H         1 MZL556      0.0000 
@<TRIPOS>BOND
     1    2    1 1    
     2    3    1 1    
     3    4    1 1    
     4    5    2 ar   
     5    6    2 ar   
     6    7    3 2    
     7    8    3 1    
     8    9    4 2    
     9   10    5 ar   
    10   29    5 1    
    11   11    6 ar   
    12   30    6 1    
    13    9    7 1    
    14   31    7 1    
    15   12    8 1    
    16   32    8 1    
    17   33    8 1    
    18   13    9 1    
    19   14   10 ar   
    20   34   10 1    
    21   14   11 ar   
    22   35   11 1    
    23   45   12 1    
    24   46   12 1    
    25   47   12 1    
    26   15   13 ar   
    27   16   13 ar   
    28   17   14 1    
    29   18   15 ar   
    30   36   15 1    
    31   19   16 ar   
    32   37   16 1    
    33   20   17 am   
    34   38   17 1    
    35   21   18 ar   
    36   39   18 1    
    37   21   19 ar   
    38   22   20 1    
    39   23   20 2    
    40   40   21 1    
    41   24   22 ar   
    42   25   22 ar   
    43   26   24 ar   
    44   41   24 1    
    45   27   25 ar   
    46   42   25 1    
    47   28   26 ar   
    48   43   26 1    
    49   28   27 ar   
    50   44   28 1    
@<TRIPOS>SUBSTRUCTURE
     1 MZL556      1 GROUP   
@<TRIPOS>SET

