#    Name: 2fqi_ILH_2_INTS_M
#    Modification time : Tue Mar 25 13:03:15 2014

@<TRIPOS>MOLECULE
2fqi_ILH_2_INTS_M
   97     0     9     0     0
SMALL
NO_CHARGES


@<TRIPOS>ATOM
      1 NZ         48.8365   39.4885   -6.7465 N.4       2 LYC4        0.0000 
      2 NZ         48.0130   39.6240   -5.5310 N.4       8 LYL4        0.0000 
      3 NZ         48.5090   39.2240   -8.6080 N.4       5 LYP4        0.0000 
      4 N          47.6140   41.0830   -6.2540 N.am      1 SEC2        0.0000 
      5 N          48.0130   39.6240   -5.5310 N.am      7 SEL2        0.0000 
      6 N          47.2150   42.5420   -6.9770 N.am      4 SEP2        0.0000 
      7 N          47.6915   39.5880   -6.7685 N.am      1 SEC2        0.0000 
      8 N          47.3700   39.5520   -8.0060 N.am      4 SEP2        0.0000 
      9 N          48.8365   39.4885   -6.7465 N.am      1 SEC2        0.0000 
     10 N          49.6600   39.3530   -7.9620 N.am      4 SEP2        0.0000 
     11 N          48.1065   41.9665   -5.8005 N.am      1 SEC2        0.0000 
     12 N          48.9980   41.3910   -4.6240 N.am      7 SEL2        0.0000 
     13 CA         47.0400   41.1995   -2.7790 C.3       3 GLC5        0.0000 
     14 CA         48.0180   39.6160   -3.1880 C.3       9 GLL5        0.0000 
     15 CA         46.0620   42.7830   -2.3700 C.3       6 GLP5        0.0000 
     16 CA         45.9395   37.0900   -0.1125 C.3       3 GLC5        0.0000 
     17 CA         46.9190   38.1360   -1.6440 C.3       9 GLL5        0.0000 
     18 CA         44.9600   36.0440    1.4190 C.3       6 GLP5        0.0000 
     19 CA         47.3640   37.2235   -4.5945 C.3       3 GLC5        0.0000 
     20 CA         47.0220   38.5090   -3.1080 C.3       9 GLL5        0.0000 
     21 CA         47.7060   35.9380   -6.0810 C.3       6 GLP5        0.0000 
     22 CA         53.3575   43.4125   -5.1940 C.3       3 GLC5        0.0000 
     23 CA         52.0550   42.4200   -3.9830 C.3       9 GLL5        0.0000 
     24 CA         54.6600   44.4050   -6.4050 C.3       6 GLP5        0.0000 
     25 CA         52.0555   40.9015   -4.7610 C.3       3 GLC5        0.0000 
     26 CA         52.0560   39.3830   -5.5390 C.3       6 GLP5        0.0000 
     27 CA         51.1505   43.9395    1.5760 C.3       3 GLC5        0.0000 
     28 CA         51.3000   45.7590    0.3410 C.3       9 GLL5        0.0000 
     29 CA         51.0010   42.1200    2.8110 C.3       6 GLP5        0.0000 
     30 CA         51.5590   47.6955   -0.1710 C.3       3 GLC5        0.0000 
     31 CA         51.8180   49.6320   -0.6830 C.3       6 GLP5        0.0000 
     32 CA         50.2450   42.9915    1.3085 C.3       3 GLC5        0.0000 
     33 CA         49.4890   43.8630   -0.1940 C.3       9 GLL5        0.0000 
     34 CA         53.6130   44.0680   -0.6515 C.3       3 GLC5        0.0000 
     35 CA         53.7080   46.1090   -1.2440 C.3       9 GLL5        0.0000 
     36 CA         53.5180   42.0270   -0.0590 C.3       6 GLP5        0.0000 
     37 CA         52.5935   47.2410   -3.6420 C.3       3 GLC5        0.0000 
     38 CA         54.1430   47.0980   -2.1920 C.3       9 GLL5        0.0000 
     39 CA         51.0440   47.3840   -5.0920 C.3       6 GLP5        0.0000 
     40 CA         55.6005   45.9105   -5.3155 C.3       3 GLC5        0.0000 
     41 CA         56.5410   47.4160   -4.2260 C.3       9 GLL5        0.0000 
     42 CA         56.3885   50.2765   -5.6050 C.3       3 GLC5        0.0000 
     43 CA         57.1030   49.5460   -4.3780 C.3       9 GLL5        0.0000 
     44 CA         55.6740   51.0070   -6.8320 C.3       6 GLP5        0.0000 
     45 CA         54.2010   47.4540    2.2340 C.3       3 GLC5        0.0000 
     46 CA         55.3480   47.0110    0.4160 C.3       9 GLL5        0.0000 
     47 CA         53.0540   47.8970    4.0520 C.3       6 GLP5        0.0000 
     48 CA         54.6825   44.1030    0.0265 C.3       3 GLC5        0.0000 
     49 CA         54.3340   46.0830    0.0640 C.3       9 GLL5        0.0000 
     50 CA         55.0310   42.1230   -0.0110 C.3       6 GLP5        0.0000 
     51 CA         49.3828   38.0859   -1.1055 C.3       3 GLC5        0.0000 
     52 CA         48.4920   39.9210   -1.9790 C.3       9 GLL5        0.0000 
     53 CA         51.2130   37.3590   -0.6630 C.3       6 GLP5        0.0000 
     54 CA         46.2018   36.5798   -2.5715 C.3       3 GLC5        0.0000 
     55 CA         45.4330   34.8370   -2.7670 C.3       6 GLP5        0.0000 
     56 CA         50.8012   44.4368   -3.9012 C.3       3 GLC5        0.0000 
     57 CA         50.7070   43.0740   -2.1090 C.3       9 GLL5        0.0000 
     58 CA         49.9320   46.0900   -4.5470 C.3       6 GLP5        0.0000 
     59 CA         52.5943   42.4053   -1.6572 C.3       3 GLC5        0.0000 
     60 CA         51.8650   43.2200   -2.9470 C.3       9 GLL5        0.0000 
     61 CA         51.6545   45.1760   -3.8107 C.3       3 GLC5        0.0000 
     62 CA         52.8480   44.2240   -2.6720 C.3       9 GLL5        0.0000 
     63 CA         54.0185   44.3335   -4.7397 C.3       3 GLC5        0.0000 
     64 CA         53.4475   43.1445   -1.5668 C.3       3 GLC5        0.0000 
     65 CA         53.9060   44.3000   -3.4770 C.3       9 GLL5        0.0000 
     66 CA         49.9017   45.8963    0.7772 C.3       3 GLC5        0.0000 
     67 CA         51.5090   44.9740   -0.7080 C.3       9 GLL5        0.0000 
     68 CA         48.3990   46.4260    1.7380 C.3       6 GLP5        0.0000 
     69 CA         52.6095   43.7149   -0.2251 C.3       3 GLC5        0.0000 
     70 CA         50.6262   45.2981   -2.8024 C.3       3 GLC5        0.0000 
     71 CA         52.6950   45.1190   -1.5390 C.3       9 GLL5        0.0000 
     72 CA         51.7660   42.9707   -0.3260 C.3       3 GLC5        0.0000 
     73 CA         50.5390   43.9660   -0.9920 C.3       9 GLL5        0.0000 
     74 CA         49.2065   45.1702    0.5725 C.3       3 GLC5        0.0000 
     75 CA         48.3600   43.9503   -1.6271 C.3       3 GLC5        0.0000 
     76 CA         46.6640   44.2090   -2.3820 C.3       6 GLP5        0.0000 
     77 CA         52.8717   48.1178   -1.2005 C.3       3 GLC5        0.0000 
     78 CA         54.0938   48.8722   -0.3193 C.3       3 GLC5        0.0000 
     79 CA         55.1780   48.0370   -1.8360 C.3       9 GLL5        0.0000 
     80 CA         52.7120   49.7330    0.5430 C.3       6 GLP5        0.0000 
     81 CA         55.4160   50.2933   -3.7575 C.3       3 GLC5        0.0000 
     82 CA         56.7770   48.5590   -3.5120 C.3       9 GLL5        0.0000 
     83 CA         53.8920   51.5340   -3.5700 C.3       6 GLP5        0.0000 
     84 CA         55.4995   48.4327   -5.2945 C.3       3 GLC5        0.0000 
     85 CA         54.3400   48.8780   -6.7200 C.3       6 GLP5        0.0000 
     86 CA         58.4610   47.0979   -2.6267 C.3       3 GLC5        0.0000 
     87 CA         57.8570   48.3640   -2.7020 C.3       9 GLL5        0.0000 
     88 CA         59.6640   46.0200   -1.9680 C.3       6 GLP5        0.0000 
     89 CA         57.1873   46.2342    0.0447 C.3       3 GLC5        0.0000 
     90 CA         55.7730   47.9860   -0.5270 C.3       9 GLL5        0.0000 
     91 CA         58.8140   44.9700    0.1450 C.3       6 GLP5        0.0000 
     92 CA         55.8612   48.2458    1.5132 C.3       3 GLC5        0.0000 
     93 CA         56.1620   48.9930    3.0820 C.3       6 GLP5        0.0000 
     94 CA         53.7765   48.1400    0.3915 C.3       3 GLC5        0.0000 
     95 CA         46.8556   40.5520   -1.4405 C.3       3 GLC5        0.0000 
     96 CA         47.8800   39.0580   -0.9250 C.3       9 GLL5        0.0000 
     97 CA         46.1330   42.1980   -0.9670 C.3       6 GLP5        0.0000 
@<TRIPOS>BOND
@<TRIPOS>SUBSTRUCTURE
     1 SEC2        4 GROUP        1 X    SEC  0     ROOT SEC X 2
     2 LYC4        1 GROUP        1 X    LYC  0     **** LYC X 4
     3 GLC5       13 GROUP        1 X    GLC  0     **** GLC X 6
     4 SEP2        6 GROUP        1 Y    SEP  0     ROOT SEP Y 9
     5 LYP4        3 GROUP        1 Y    LYP  0     **** LYP Y 11
     6 GLP5       15 GROUP        1 Y    GLP  0     **** GLP Y 13
     7 SEL2        5 GROUP        1 Z    SEL  0     ROOT SEL Z 16
     8 LYL4        2 GROUP        1 Z    LYL  0     **** LYL Z 18
     9 GLL5       14 GROUP        1 Z    GLL  0     **** GLL Z 20
@<TRIPOS>SET

