#    Name: 2fqi_ILH_2_ligand
#    Modification time : Tue Mar 25 13:03:15 2014

@<TRIPOS>MOLECULE
2fqi_ILH_2_ligand
   41    43     1     0     0
SMALL
NO_CHARGES


@<TRIPOS>ATOM
      1 O1         48.0130   39.6240   -5.5310 O.co2     1 ILH600      0.0000 
      2 C1         48.3360   40.1970   -4.5000 C.2       1 ILH600      0.0000 
      3 O2         48.9980   41.3910   -4.6240 O.co2     1 ILH600      0.0000 
      4 C2         48.0180   39.6160   -3.1880 C.2       1 ILH600      0.0000 
      5 C3         48.4920   39.9210   -1.9790 C.2       1 ILH600      0.0000 
      6 C4         47.8800   39.0580   -0.9250 C.2       1 ILH600      0.0000 
      7 C5         46.9190   38.1360   -1.6440 C.2       1 ILH600      0.0000 
      8 C6         47.0220   38.5090   -3.1080 C.3       1 ILH600      0.0000 
      9 C7         49.4750   40.9270   -1.5780 C.2       1 ILH600      0.0000 
     10 O3         50.0480   40.7890   -0.4960 O.2       1 ILH600      0.0000 
     11 N1         49.7810   42.0520   -2.3930 N.am      1 ILH600      0.0000 
     12 C8         50.7070   43.0740   -2.1090 C.ar      1 ILH600      0.0000 
     13 C9         51.8650   43.2200   -2.9470 C.ar      1 ILH600      0.0000 
     14 F1         52.0550   42.4200   -3.9830 F         1 ILH600      0.0000 
     15 C10        52.8480   44.2240   -2.6720 C.ar      1 ILH600      0.0000 
     16 F2         53.9060   44.3000   -3.4770 F         1 ILH600      0.0000 
     17 C11        52.6950   45.1190   -1.5390 C.ar      1 ILH600      0.0000 
     18 C12        51.5090   44.9740   -0.7080 C.ar      1 ILH600      0.0000 
     19 F3         51.3000   45.7590    0.3410 F         1 ILH600      0.0000 
     20 C13        50.5390   43.9660   -0.9920 C.ar      1 ILH600      0.0000 
     21 F4         49.4890   43.8630   -0.1940 F         1 ILH600      0.0000 
     22 C14        53.7080   46.1090   -1.2440 C.ar      1 ILH600      0.0000 
     23 C15        54.1430   47.0980   -2.1920 C.ar      1 ILH600      0.0000 
     24 C16        55.1780   48.0370   -1.8360 C.ar      1 ILH600      0.0000 
     25 O4         55.6010   48.9880   -2.7570 O.3       1 ILH600      0.0000 
     26 C17        56.7770   48.5590   -3.5120 C.3       1 ILH600      0.0000 
     27 F5         56.5410   47.4160   -4.2260 F         1 ILH600      0.0000 
     28 F6         57.1030   49.5460   -4.3780 F         1 ILH600      0.0000 
     29 F7         57.8570   48.3640   -2.7020 F         1 ILH600      0.0000 
     30 C18        55.7730   47.9860   -0.5270 C.ar      1 ILH600      0.0000 
     31 C19        55.3480   47.0110    0.4160 C.ar      1 ILH600      0.0000 
     32 C20        54.3340   46.0830    0.0640 C.ar      1 ILH600      0.0000 
     33 H          48.0398   39.0736   -0.0504 H         1 ILH600      0.0000 
     34 H          46.4080   37.5142   -1.2871 H         1 ILH600      0.0000 
     35 H          47.3625   37.6579   -3.6708 H         1 ILH600      0.0000 
     36 H          46.0621   38.8431   -3.4603 H         1 ILH600      0.0000 
     37 H          49.2486   42.1243   -3.3181 H         1 ILH600      0.0000 
     38 H          53.7228   47.1372   -3.1130 H         1 ILH600      0.0000 
     39 H          56.5003   48.6538   -0.2827 H         1 ILH600      0.0000 
     40 H          55.7706   46.9795    1.3409 H         1 ILH600      0.0000 
     41 H          54.0287   45.3754    0.7377 H         1 ILH600      0.0000 
@<TRIPOS>BOND
     1    2    1 ar   
     2    3    2 ar   
     3    4    2 1    
     4    5    4 2    
     5    8    4 1    
     6    6    5 1    
     7    9    5 1    
     8    7    6 2    
     9   33    6 1    
    10    8    7 1    
    11   34    7 1    
    12   35    8 1    
    13   36    8 1    
    14   10    9 2    
    15   11    9 am   
    16   12   11 1    
    17   37   11 1    
    18   13   12 ar   
    19   20   12 ar   
    20   14   13 1    
    21   15   13 ar   
    22   16   15 1    
    23   17   15 ar   
    24   18   17 ar   
    25   22   17 1    
    26   19   18 1    
    27   20   18 ar   
    28   21   20 1    
    29   23   22 ar   
    30   32   22 ar   
    31   24   23 ar   
    32   38   23 1    
    33   25   24 1    
    34   30   24 ar   
    35   26   25 1    
    36   27   26 1    
    37   28   26 1    
    38   29   26 1    
    39   31   30 ar   
    40   39   30 1    
    41   32   31 ar   
    42   40   31 1    
    43   41   32 1    
@<TRIPOS>SUBSTRUCTURE
     1 ILH600      1 GROUP   
@<TRIPOS>SET

