#    Name: 3kfa_B91_2_INTS_M
#    Modification time : Mon Mar 24 19:25:45 2014

@<TRIPOS>MOLECULE
3kfa_B91_2_INTS_M
  118     0     9     0     0
SMALL
NO_CHARGES


@<TRIPOS>ATOM
      1 CA         -4.9270   -9.9100   51.7040 C.3       3 GLC5        0.0000 
      2 CA         -3.4030   -8.7200   52.1840 C.3       9 GLL5        0.0000 
      3 CA         -6.4510  -11.1000   51.2240 C.3       6 GLP5        0.0000 
      4 CA         -9.9675  -14.7340   44.3480 C.3       3 GLC5        0.0000 
      5 CA         -9.1680  -13.4280   43.2300 C.3       9 GLL5        0.0000 
      6 CA        -10.7670  -16.0400   45.4660 C.3       6 GLP5        0.0000 
      7 CA         -7.1950  -13.7000   42.9805 C.3       3 GLC5        0.0000 
      8 CA         -5.2220  -13.9720   42.7310 C.3       6 GLP5        0.0000 
      9 N          -5.9910  -11.8240   45.2810 N.am      2 SEC2        0.0000 
     10 N          -6.1450  -10.3950   45.5590 N.am      8 SEL2        0.0000 
     11 N          -5.8370  -13.2530   45.0030 N.am      5 SEP2        0.0000 
     12 CA         -4.7325   -9.0900   58.9020 C.3       3 GLC5        0.0000 
     13 CA         -2.7090   -9.5910   58.1630 C.3       9 GLL5        0.0000 
     14 CA         -6.7560   -8.5890   59.6410 C.3       6 GLP5        0.0000 
     15 O          -4.4590   -8.8700   42.7400 O.2       1 ALC1        0.0000 
     16 O          -5.5080   -9.4970   43.5450 O.2       7 ALL1        0.0000 
     17 O          -3.4100   -8.2430   41.9350 O.2       4 ALP1        0.0000 
     18 CA         -6.6370   -8.0115   49.7355 C.3       3 GLC5        0.0000 
     19 CA         -4.5810   -7.8840   50.0550 C.3       9 GLL5        0.0000 
     20 CA         -8.6930   -8.1390   49.4160 C.3       6 GLP5        0.0000 
     21 CA         -5.7680   -6.2235   49.2230 C.3       3 GLC5        0.0000 
     22 CA         -6.9550   -4.5630   48.3910 C.3       6 GLP5        0.0000 
     23 CA         -5.5160   -9.4920   50.6395 C.3       3 GLC5        0.0000 
     24 CA         -3.7140   -9.7135   49.7375 C.3       3 GLC5        0.0000 
     25 CA         -2.8470  -11.5430   49.4200 C.3       6 GLP5        0.0000 
     26 CA        -11.7140  -14.0770   41.4225 C.3       3 GLC5        0.0000 
     27 CA        -10.1980  -12.7150   41.5010 C.3       9 GLL5        0.0000 
     28 CA        -13.2300  -15.4390   41.3440 C.3       6 GLP5        0.0000 
     29 CA        -10.0230  -13.3955   39.9145 C.3       3 GLC5        0.0000 
     30 CA         -9.8480  -14.0760   38.3280 C.3       6 GLP5        0.0000 
     31 CA         -1.5435   -7.6125   49.6670 C.3       3 GLC5        0.0000 
     32 CA         -3.6040   -7.9040   49.1850 C.3       9 GLL5        0.0000 
     33 CA          0.5170   -7.3210   50.1490 C.3       6 GLP5        0.0000 
     34 CA         -2.6790   -9.4085   49.0100 C.3       3 GLC5        0.0000 
     35 CA         -1.7540  -10.9130   48.8350 C.3       6 GLP5        0.0000 
     36 N          -6.1345   -7.7255   54.4875 N.am      2 SEC2        0.0000 
     37 N          -5.0650   -8.1250   53.6010 N.am      8 SEL2        0.0000 
     38 N          -7.2040   -7.3260   55.3740 N.am      5 SEP2        0.0000 
     39 CA         -5.5985   -6.9405   43.6820 C.3       3 GLC5        0.0000 
     40 CA         -4.2690   -7.3290   44.9750 C.3       9 GLL5        0.0000 
     41 CA         -6.9280   -6.5520   42.3890 C.3       6 GLP5        0.0000 
     42 O          -4.5770   -9.3185   56.4295 O.2       1 ALC1        0.0000 
     43 O          -3.2930   -9.3290   55.7590 O.2       7 ALL1        0.0000 
     44 O          -5.8610   -9.3080   57.1000 O.2       4 ALP1        0.0000 
     45 CA         -6.3335   -7.5875   44.7825 C.3       3 GLC5        0.0000 
     46 CA         -4.7560   -8.5010   45.6220 C.3       9 GLL5        0.0000 
     47 CA         -7.9110   -6.6740   43.9430 C.3       6 GLP5        0.0000 
     48 CA         -1.0705   -6.3940   49.0145 C.3       3 GLC5        0.0000 
     49 CA         -2.6580   -5.4670   47.8800 C.3       9 GLL5        0.0000 
     50 CA         -2.9160   -5.2300   49.7770 C.3       3 GLC5        0.0000 
     51 CA         -3.1740   -4.9930   51.6740 C.3       6 GLP5        0.0000 
     52 CA         -1.6745   -3.8930   48.3845 C.3       3 GLC5        0.0000 
     53 CA         -0.6910   -2.3190   48.8890 C.3       6 GLP5        0.0000 
     54 CA         -7.6960   -8.7925   43.4985 C.3       3 GLC5        0.0000 
     55 CA         -7.4810  -10.9110   43.0540 C.3       9 GLL5        0.0000 
     56 CA         -7.6040  -12.0550   44.7830 C.3       3 GLC5        0.0000 
     57 CA         -7.7270  -13.1990   46.5120 C.3       6 GLP5        0.0000 
     58 CA         -4.4120   -9.3625   39.2605 C.3       3 GLC5        0.0000 
     59 CA         -4.6860  -11.1330   38.7380 C.3       9 GLL5        0.0000 
     60 CA         -4.1380   -7.5920   39.7830 C.3       6 GLP5        0.0000 
     61 CA         -1.7525  -10.7270   35.6290 C.3       3 GLC5        0.0000 
     62 CA         -3.4990  -11.0320   36.4580 C.3       9 GLL5        0.0000 
     63 CA         -0.0060  -10.4220   34.8000 C.3       6 GLP5        0.0000 
     64 CA          0.0985   -8.1165   56.8820 C.3       3 GLC5        0.0000 
     65 CA         -1.4340   -9.0850   57.4670 C.3       9 GLL5        0.0000 
     66 CA          1.6310   -7.1480   56.2970 C.3       6 GLP5        0.0000 
     67 CA         -5.8560   -9.1760   54.2835 C.3       3 GLC5        0.0000 
     68 CA         -3.8290   -8.7140   53.5270 C.3       9 GLL5        0.0000 
     69 CA         -7.8830   -9.6380   55.0400 C.3       6 GLP5        0.0000 
     70 CA         -0.6475   -8.2695   53.5270 C.3       3 GLC5        0.0000 
     71 CA         -1.4210   -9.7450   52.7080 C.3       9 GLL5        0.0000 
     72 CA          0.1260   -6.7940   54.3460 C.3       6 GLP5        0.0000 
     73 CA         -0.4520   -8.5330   51.4285 C.3       3 GLC5        0.0000 
     74 CA         -3.3950   -6.8550   52.2647 C.3       3 GLC5        0.0000 
     75 CA         -3.3308  -11.3775   57.1697 C.3       3 GLC5        0.0000 
     76 CA         -4.1070  -12.9430   56.8870 C.3       6 GLP5        0.0000 
     77 CA         -8.7440  -12.7141   44.8085 C.3       3 GLC5        0.0000 
     78 CA        -10.1960  -11.5690   43.3240 C.3       9 GLL5        0.0000 
     79 CA         -3.6333   -6.4435   50.6470 C.3       3 GLC5        0.0000 
     80 CA        -11.0575  -11.0122   41.5505 C.3       3 GLC5        0.0000 
     81 CA        -12.0960   -9.6870   40.8840 C.3       6 GLP5        0.0000 
     82 CA        -11.6852  -12.6526   43.3835 C.3       3 GLC5        0.0000 
     83 CA        -13.3910  -12.8330   44.4640 C.3       6 GLP5        0.0000 
     84 CA         -9.3765  -14.7611   42.2097 C.3       3 GLC5        0.0000 
     85 CA         -9.4840  -12.3510   42.5420 C.3       9 GLL5        0.0000 
     86 CA         -8.9910  -16.7200   42.2260 C.3       6 GLP5        0.0000 
     87 CA         -4.1530   -5.1910   44.3887 C.3       3 GLC5        0.0000 
     88 CA         -3.5710   -6.3490   45.7240 C.3       9 GLL5        0.0000 
     89 CA         -4.3860   -3.5430   43.4280 C.3       6 GLP5        0.0000 
     90 CA         -5.1745   -5.8385   46.1632 C.3       3 GLC5        0.0000 
     91 CA         -6.4290   -4.8380   46.9770 C.3       6 GLP5        0.0000 
     92 CA         -6.6833   -8.9313   46.7545 C.3       3 GLC5        0.0000 
     93 CA         -8.7230   -9.2670   47.1920 C.3       6 GLP5        0.0000 
     94 CA         -5.5363   -6.7167   46.6470 C.3       3 GLC5        0.0000 
     95 CA         -4.5310   -8.6900   47.0120 C.3       9 GLL5        0.0000 
     96 CA         -1.4636   -5.6021   46.1616 C.3       3 GLC5        0.0000 
     97 CA         -3.3660   -6.5380   47.1130 C.3       9 GLL5        0.0000 
     98 CA          0.1360   -5.2490   45.1740 C.3       6 GLP5        0.0000 
     99 CA         -4.7789   -5.5664   47.3175 C.3       3 GLC5        0.0000 
    100 CA         -6.4908   -8.4260   42.2130 C.3       3 GLC5        0.0000 
    101 CA         -5.8290  -10.3470   41.3880 C.3       9 GLL5        0.0000 
    102 CA         -5.6378  -12.1360   42.3840 C.3       3 GLC5        0.0000 
    103 CA         -6.2780  -10.2530   42.6860 C.3       9 GLL5        0.0000 
    104 CA         -5.2139   -9.1400   40.4995 C.3       3 GLC5        0.0000 
    105 CA         -6.1743  -12.6878   41.6570 C.3       3 GLC5        0.0000 
    106 CA         -6.5260  -11.0760   40.3950 C.3       9 GLL5        0.0000 
    107 CA         -6.5360  -12.6292   42.6545 C.3       3 GLC5        0.0000 
    108 CA         -8.2190  -11.6620   42.1020 C.3       9 GLL5        0.0000 
    109 CA         -3.8790   -9.2535   37.6225 C.3       3 GLC5        0.0000 
    110 CA         -4.6590  -11.0300   37.3520 C.3       9 GLL5        0.0000 
    111 CA         -3.6790   -7.4760   38.3400 C.3       6 GLP5        0.0000 
    112 CA         -2.5926   -7.6662   57.8249 C.3       3 GLC5        0.0000 
    113 CA         -2.4000  -10.0330   56.7420 C.3       9 GLL5        0.0000 
    114 CA         -3.1910   -5.8840   58.1900 C.3       6 GLP5        0.0000 
    115 CA         -1.6330   -7.8942   54.1653 C.3       3 GLC5        0.0000 
    116 CA         -2.9550   -9.2750   54.4420 C.3       9 GLL5        0.0000 
    117 CA         -4.2215  -10.7747   53.3257 C.3       3 GLC5        0.0000 
    118 CA         -5.0510  -12.5550   52.6670 C.3       6 GLP5        0.0000 
@<TRIPOS>BOND
@<TRIPOS>SUBSTRUCTURE
     1 ALC1       15 GROUP        1 X    ALC  0     ROOT ALC X 1
     2 SEC2        9 GROUP        1 X    SEC  0     **** SEC X 2
     3 GLC5        1 GROUP        1 X    GLC  0     **** GLC X 6
     4 ALP1       17 GROUP        1 Y    ALP  0     ROOT ALP Y 8
     5 SEP2       11 GROUP        1 Y    SEP  0     **** SEP Y 9
     6 GLP5        3 GROUP        1 Y    GLP  0     **** GLP Y 13
     7 ALL1       16 GROUP        1 Z    ALL  0     ROOT ALL Z 15
     8 SEL2       10 GROUP        1 Z    SEL  0     **** SEL Z 16
     9 GLL5        2 GROUP        1 Z    GLL  0     **** GLL Z 20
@<TRIPOS>SET

