#    Name: 3kfa_B91_2_ligand
#    Modification time : Mon Mar 24 19:25:45 2014

@<TRIPOS>MOLECULE
3kfa_B91_2_ligand
   66    71     1     0     0
SMALL
NO_CHARGES


@<TRIPOS>ATOM
      1 C1         -3.4030   -8.7200   52.1840 C.ar      1 B911        0.0000 
      2 F1         -9.1680  -13.4280   43.2300 F         1 B911        0.0000 
      3 N1         -4.4360   -8.1400   51.4860 N.pl3     1 B911        0.0000 
      4 O1         -6.1450  -10.3950   45.5590 O.2       1 B911        0.0000 
      5 C2         -2.7090   -9.5910   58.1630 C.3       1 B911        0.0000 
      6 F2        -10.1960  -11.5690   43.3240 F         1 B911        0.0000 
      7 N2         -5.5080   -9.4970   43.5450 N.am      1 B911        0.0000 
      8 C3         -4.5810   -7.8840   50.0550 C.2       1 B911        0.0000 
      9 F3        -10.1980  -12.7150   41.5010 F         1 B911        0.0000 
     10 N3         -6.0060  -11.0690   39.0860 N.pl3     1 B911        0.0000 
     11 C4         -3.6040   -7.9040   49.1850 C.2       1 B911        0.0000 
     12 N4         -5.9120  -10.9080   36.8850 N.2       1 B911        0.0000 
     13 C5         -3.8330   -7.7070   47.7590 C.ar      1 B911        0.0000 
     14 N5         -5.0650   -8.1250   53.6010 N.2       1 B911        0.0000 
     15 C6         -3.3660   -6.5380   47.1130 C.ar      1 B911        0.0000 
     16 N6         -2.2280   -9.2170   51.7460 N.ar      1 B911        0.0000 
     17 C7         -3.5710   -6.3490   45.7240 C.ar      1 B911        0.0000 
     18 N7         -1.7750   -9.7790   54.0170 N.ar      1 B911        0.0000 
     19 C8         -4.2690   -7.3290   44.9750 C.ar      1 B911        0.0000 
     20 N8         -3.2930   -9.3290   55.7590 N.pl3     1 B911        0.0000 
     21 C9         -4.7560   -8.5010   45.6220 C.ar      1 B911        0.0000 
     22 C10        -4.5310   -8.6900   47.0120 C.ar      1 B911        0.0000 
     23 C11        -2.6580   -5.4670   47.8800 C.3       1 B911        0.0000 
     24 C12        -5.5120   -9.5360   44.9120 C.2       1 B911        0.0000 
     25 C13        -6.2780  -10.2530   42.6860 C.ar      1 B911        0.0000 
     26 C14        -5.8290  -10.3470   41.3880 C.ar      1 B911        0.0000 
     27 C15        -6.5260  -11.0760   40.3950 C.ar      1 B911        0.0000 
     28 C16        -7.7270  -11.7310   40.7710 C.ar      1 B911        0.0000 
     29 C17        -8.2190  -11.6620   42.1020 C.ar      1 B911        0.0000 
     30 C18        -7.4810  -10.9110   43.0540 C.ar      1 B911        0.0000 
     31 C19        -9.4840  -12.3510   42.5420 C.3       1 B911        0.0000 
     32 C22        -4.6860  -11.1330   38.7380 C.2       1 B911        0.0000 
     33 C23        -6.7620  -10.9300   37.9460 C.2       1 B911        0.0000 
     34 C24        -2.4000  -10.0330   56.7420 C.3       1 B911        0.0000 
     35 C25        -4.6590  -11.0300   37.3520 C.2       1 B911        0.0000 
     36 C26        -5.4400   -7.7740   52.3350 C.2       1 B911        0.0000 
     37 C27        -3.4990  -11.0320   36.4580 C.3       1 B911        0.0000 
     38 C28        -1.4340   -9.0850   57.4670 C.3       1 B911        0.0000 
     39 C29        -3.8290   -8.7140   53.5270 C.ar      1 B911        0.0000 
     40 C30        -2.9550   -9.2750   54.4420 C.ar      1 B911        0.0000 
     41 C33        -1.4210   -9.7450   52.7080 C.ar      1 B911        0.0000 
     42 H          -2.4506  -10.2883   58.7466 H         1 B911        0.0000 
     43 H          -3.3467   -8.8947   58.1182 H         1 B911        0.0000 
     44 H          -4.8243   -8.7943   43.0801 H         1 B911        0.0000 
     45 H          -5.5839   -7.6701   49.7560 H         1 B911        0.0000 
     46 H          -2.6050   -8.0616   49.4576 H         1 B911        0.0000 
     47 H          -3.2180   -5.5116   45.2649 H         1 B911        0.0000 
     48 H          -4.4234   -7.1990   43.9784 H         1 B911        0.0000 
     49 H          -4.1392   -8.9112   56.1415 H         1 B911        0.0000 
     50 H          -4.8720   -9.5332   47.4718 H         1 B911        0.0000 
     51 H          -4.9439   -9.8690   41.1097 H         1 B911        0.0000 
     52 H          -8.2518  -12.2659   40.0677 H         1 B911        0.0000 
     53 H          -7.8204  -10.8430   44.0180 H         1 B911        0.0000 
     54 H          -3.9452  -11.2264   39.3031 H         1 B911        0.0000 
     55 H          -7.7135  -10.8618   37.9145 H         1 B911        0.0000 
     56 H          -2.0680  -10.8729   56.7493 H         1 B911        0.0000 
     57 H          -6.2591   -7.3483   52.0888 H         1 B911        0.0000 
     58 H          -0.7176   -9.6069   57.7864 H         1 B911        0.0000 
     59 H          -1.6136   -8.2133   57.1580 H         1 B911        0.0000 
     60 H          -0.4857  -10.1419   52.4217 H         1 B911        0.0000 
     61 H          -1.8266   -5.8107   48.3166 H         1 B911        0.0000 
     62 H          -2.3865   -4.7059   47.2909 H         1 B911        0.0000 
     63 H          -3.2334   -5.0865   48.6040 H         1 B911        0.0000 
     64 H          -2.6414  -11.1321   36.9625 H         1 B911        0.0000 
     65 H          -3.5400  -11.7822   35.7980 H         1 B911        0.0000 
     66 H          -3.4330  -10.1833   35.9333 H         1 B911        0.0000 
@<TRIPOS>BOND
     1    3    1 1    
     2   16    1 ar   
     3   39    1 ar   
     4   31    2 1    
     5    8    3 1    
     6   36    3 1    
     7   24    4 2    
     8   34    5 1    
     9   38    5 1    
    10   42    5 1    
    11   43    5 1    
    12   31    6 1    
    13   24    7 am   
    14   25    7 1    
    15   44    7 1    
    16   11    8 2    
    17   45    8 1    
    18   31    9 1    
    19   27   10 1    
    20   32   10 1    
    21   33   10 1    
    22   13   11 1    
    23   46   11 1    
    24   33   12 2    
    25   35   12 1    
    26   15   13 ar   
    27   22   13 ar   
    28   36   14 2    
    29   39   14 1    
    30   17   15 ar   
    31   23   15 1    
    32   41   16 ar   
    33   19   17 ar   
    34   47   17 1    
    35   40   18 ar   
    36   41   18 ar   
    37   21   19 ar   
    38   48   19 1    
    39   34   20 1    
    40   40   20 1    
    41   49   20 1    
    42   22   21 ar   
    43   24   21 1    
    44   50   22 1    
    45   61   23 1    
    46   62   23 1    
    47   63   23 1    
    48   26   25 ar   
    49   30   25 ar   
    50   27   26 ar   
    51   51   26 1    
    52   28   27 ar   
    53   29   28 ar   
    54   52   28 1    
    55   30   29 ar   
    56   31   29 1    
    57   53   30 1    
    58   35   32 2    
    59   54   32 1    
    60   55   33 1    
    61   38   34 1    
    62   56   34 1    
    63   37   35 1    
    64   57   36 1    
    65   64   37 1    
    66   65   37 1    
    67   66   37 1    
    68   58   38 1    
    69   59   38 1    
    70   40   39 ar   
    71   60   41 1    
@<TRIPOS>SUBSTRUCTURE
     1 B911        1 GROUP   
@<TRIPOS>SET

