#    Name: 2ath_3EA_2_INTS_M
#    Modification time : Mon Mar 24 19:37:41 2014

@<TRIPOS>MOLECULE
2ath_3EA_2_INTS_M
   79     0     6     0     0
SMALL
NO_CHARGES


@<TRIPOS>ATOM
      1 CA         45.8635    6.4375   10.3285 C.3       2 GLC5        0.0000 
      2 CA         44.9810    8.1490    9.2130 C.3       6 GLL5        0.0000 
      3 CA         46.7460    4.7260   11.4440 C.3       4 GLP5        0.0000 
      4 CA         44.3040   11.0685    9.4730 C.3       2 GLC5        0.0000 
      5 CA         45.0350    9.5520    8.6070 C.3       6 GLL5        0.0000 
      6 CA         43.5730   12.5850   10.3390 C.3       4 GLP5        0.0000 
      7 CA         46.4055    7.9550    6.4930 C.3       2 GLC5        0.0000 
      8 CA         45.2780    9.4800    7.0970 C.3       6 GLL5        0.0000 
      9 CA         47.5330    6.4300    5.8890 C.3       4 GLP5        0.0000 
     10 CA         42.7260   15.9950    6.2295 C.3       2 GLC5        0.0000 
     11 CA         41.5190   14.8280    5.6450 C.3       6 GLL5        0.0000 
     12 CA         43.9330   17.1620    6.8140 C.3       4 GLP5        0.0000 
     13 CA         40.2640   14.2890    7.2725 C.3       2 GLC5        0.0000 
     14 CA         39.0090   13.7500    8.9000 C.3       4 GLP5        0.0000 
     15 CA         38.5895   12.5320    5.9290 C.3       2 GLC5        0.0000 
     16 CA         40.0420   13.5180    4.8020 C.3       6 GLL5        0.0000 
     17 CA         37.1370   11.5460    7.0560 C.3       4 GLP5        0.0000 
     18 CA         39.5255   13.6340    6.8510 C.3       2 GLC5        0.0000 
     19 CA         44.2495   15.2400    6.0110 C.3       2 GLC5        0.0000 
     20 CA         44.5660   13.3180    5.2080 C.3       6 GLL5        0.0000 
     21 CA         44.7030   14.8300    3.7785 C.3       2 GLC5        0.0000 
     22 CA         44.8400   16.3420    2.3490 C.3       4 GLP5        0.0000 
     23 CA         45.9950   14.9735    5.1155 C.3       2 GLC5        0.0000 
     24 CA         47.4240   16.6290    5.0230 C.3       4 GLP5        0.0000 
     25 CA         47.2980   13.8960    4.5780 C.3       2 GLC5        0.0000 
     26 CA         45.8680   12.9110    5.4870 C.3       6 GLL5        0.0000 
     27 CA         48.7280   14.8810    3.6690 C.3       4 GLP5        0.0000 
     28 CA         48.5605   13.5250    5.1160 C.3       2 GLC5        0.0000 
     29 CA         48.3930   12.1690    6.5630 C.3       6 GLL5        0.0000 
     30 CA         51.0590   10.7960    8.2580 C.3       2 GLC5        0.0000 
     31 CA         49.1680   11.6520    7.7740 C.3       6 GLL5        0.0000 
     32 CA         52.9500    9.9400    8.7420 C.3       4 GLP5        0.0000 
     33 CA         46.3015   12.2975    8.8650 C.3       2 GLC5        0.0000 
     34 CA         48.1100   11.2750    8.8110 C.3       6 GLL5        0.0000 
     35 CA         44.4930   13.3200    8.9190 C.3       4 GLP5        0.0000 
     36 CA         46.1220   12.2300    9.9830 C.3       2 GLC5        0.0000 
     37 CA         47.7510   11.1400   11.0470 C.3       6 GLL5        0.0000 
     38 CA         47.6725   13.9090   10.3225 C.3       2 GLC5        0.0000 
     39 CA         47.1510   12.3140   11.4830 C.3       6 GLL5        0.0000 
     40 CA         48.1940   15.5040    9.1620 C.3       4 GLP5        0.0000 
     41 CA         42.8745   12.7430   14.4875 C.3       2 GLC5        0.0000 
     42 CA         44.6740   12.6300   13.9940 C.3       6 GLL5        0.0000 
     43 CA         41.0750   12.8560   14.9810 C.3       4 GLP5        0.0000 
     44 CA         42.6015   11.5865   14.8535 C.3       2 GLC5        0.0000 
     45 CA         44.1280   10.3170   14.7260 C.3       6 GLL5        0.0000 
     46 CA         43.2060    8.9075   13.9985 C.3       2 GLC5        0.0000 
     47 CA         42.2840    7.4980   13.2710 C.3       4 GLP5        0.0000 
     48 CA         42.7260    9.6280   15.7505 C.3       2 GLC5        0.0000 
     49 CA         41.3240    8.9390   16.7750 C.3       4 GLP5        0.0000 
     50 N          45.3495    9.6505   18.1480 N.am      1 SEC2        0.0000 
     51 N          44.7810   10.0750   17.0010 N.am      5 SEL2        0.0000 
     52 N          45.9180    9.2260   19.2950 N.am      3 SEP2        0.0000 
     53 CA         43.2090    7.9512    8.3460 C.3       2 GLC5        0.0000 
     54 CA         41.4100    7.0520    7.7820 C.3       4 GLP5        0.0000 
     55 CA         44.0630   12.5972    7.3857 C.3       2 GLC5        0.0000 
     56 CA         43.7610   11.2640    6.1610 C.3       6 GLL5        0.0000 
     57 CA         41.4688   13.2432    2.3715 C.3       2 GLC5        0.0000 
     58 CA         41.7270   14.0690    3.6010 C.3       6 GLL5        0.0000 
     59 CA         41.4020   12.5610    0.5210 C.3       4 GLP5        0.0000 
     60 CA         42.3702   15.0678    2.8850 C.3       2 GLC5        0.0000 
     61 CA         43.2050   16.2100    1.5480 C.3       4 GLP5        0.0000 
     62 CA         44.8550   13.2172    7.1333 C.3       2 GLC5        0.0000 
     63 CA         43.8798   11.7396    3.7066 C.3       2 GLC5        0.0000 
     64 CA         43.6600   10.8830    1.8830 C.3       4 GLP5        0.0000 
     65 CA         46.9093   11.7585    3.9935 C.3       2 GLC5        0.0000 
     66 CA         47.8270   11.2210    2.1960 C.3       4 GLP5        0.0000 
     67 CA         45.0673   12.1209    7.6755 C.3       2 GLC5        0.0000 
     68 CA         46.1150   11.6810    6.0950 C.3       6 GLL5        0.0000 
     69 CA         50.2118   10.7242    6.0437 C.3       2 GLC5        0.0000 
     70 CA         51.6430    9.5380    4.9190 C.3       4 GLP5        0.0000 
     71 CA         48.9455    9.5027    7.8262 C.3       2 GLC5        0.0000 
     72 CA         49.2520    7.5420    7.3600 C.3       4 GLP5        0.0000 
     73 CA         48.8826   13.3854    7.9159 C.3       2 GLC5        0.0000 
     74 CA         49.3200   15.1780    7.8420 C.3       4 GLP5        0.0000 
     75 CA         45.1120   12.4363   11.1540 C.3       2 GLC5        0.0000 
     76 CA         44.8178   11.5108   11.5478 C.3       2 GLC5        0.0000 
     77 CA         45.7620   11.0270   12.9780 C.3       6 GLL5        0.0000 
     78 CA         44.3220   12.7525   11.9413 C.3       2 GLC5        0.0000 
     79 CA         45.4680   13.2100   13.0930 C.3       6 GLL5        0.0000 
@<TRIPOS>BOND
@<TRIPOS>SUBSTRUCTURE
     1 SEC2       50 GROUP        1 X    SEC  0     ROOT SEC X 2
     2 GLC5        1 GROUP        1 X    GLC  0     **** GLC X 6
     3 SEP2       52 GROUP        1 Y    SEP  0     ROOT SEP Y 9
     4 GLP5        3 GROUP        1 Y    GLP  0     **** GLP Y 13
     5 SEL2       51 GROUP        1 Z    SEL  0     ROOT SEL Z 16
     6 GLL5        2 GROUP        1 Z    GLL  0     **** GLL Z 20
@<TRIPOS>SET

