#    Name: 2ath_3EA_2_ligand
#    Modification time : Mon Mar 24 19:37:41 2014

@<TRIPOS>MOLECULE
2ath_3EA_2_ligand
   56    59     1     0     0
SMALL
NO_CHARGES


@<TRIPOS>ATOM
      1 C13        44.9810    8.1490    9.2130 C.3       1 3EA1002     0.0000 
      2 C12        45.0350    9.5520    8.6070 C.3       1 3EA1002     0.0000 
      3 C11        45.2780    9.4800    7.0970 C.3       1 3EA1002     0.0000 
      4 C10        45.0580   10.8450    6.4410 C.ar      1 3EA1002     0.0000 
      5 C5         43.7610   11.2640    6.1610 C.ar      1 3EA1002     0.0000 
      6 O4         42.5600   10.6610    6.4030 O.3       1 3EA1002     0.0000 
      7 N3         41.5410   11.5080    5.9210 N.2       1 3EA1002     0.0000 
      8 C2         42.1240   12.5920    5.4150 C.2       1 3EA1002     0.0000 
      9 C1         41.3440   13.7820    4.8430 C.3       1 3EA1002     0.0000 
     10 F34        41.5190   14.8280    5.6450 F         1 3EA1002     0.0000 
     11 F33        41.7270   14.0690    3.6010 F         1 3EA1002     0.0000 
     12 F32        40.0420   13.5180    4.8020 F         1 3EA1002     0.0000 
     13 C6         43.5050   12.4850    5.5440 C.ar      1 3EA1002     0.0000 
     14 C7         44.5660   13.3180    5.2080 C.ar      1 3EA1002     0.0000 
     15 C8         45.8680   12.9110    5.4870 C.ar      1 3EA1002     0.0000 
     16 C9         46.1150   11.6810    6.0950 C.ar      1 3EA1002     0.0000 
     17 O14        47.3780   11.1970    6.2660 O.3       1 3EA1002     0.0000 
     18 C15        48.3930   12.1690    6.5630 C.3       1 3EA1002     0.0000 
     19 C16        49.1680   11.6520    7.7740 C.3       1 3EA1002     0.0000 
     20 C17        48.1100   11.2750    8.8110 C.3       1 3EA1002     0.0000 
     21 O18        48.7260   11.2110   10.1020 O.3       1 3EA1002     0.0000 
     22 C19        47.7510   11.1400   11.0470 C.ar      1 3EA1002     0.0000 
     23 C20        47.1510   12.3140   11.4830 C.ar      1 3EA1002     0.0000 
     24 C24        47.3640    9.9050   11.5660 C.ar      1 3EA1002     0.0000 
     25 C23        46.3630    9.8460   12.5350 C.ar      1 3EA1002     0.0000 
     26 C22        45.7620   11.0270   12.9780 C.ar      1 3EA1002     0.0000 
     27 C21        46.1510   12.2610   12.4550 C.ar      1 3EA1002     0.0000 
     28 C25        45.4680   13.2100   13.0930 C.2       1 3EA1002     0.0000 
     29 C26        44.6740   12.6300   13.9940 C.2       1 3EA1002     0.0000 
     30 N27        44.8570   11.3100   13.9160 N.pl3     1 3EA1002     0.0000 
     31 C28        44.1280   10.3170   14.7260 C.3       1 3EA1002     0.0000 
     32 C29        45.0770    9.8090   15.8140 C.2       1 3EA1002     0.0000 
     33 O31        46.0830    9.1810   15.4090 O.co2     1 3EA1002     0.0000 
     34 O30        44.7810   10.0750   17.0010 O.co2     1 3EA1002     0.0000 
     35 H          45.8412   10.1140    9.0730 H         1 3EA1002     0.0000 
     36 H          44.0921   10.0608    8.7940 H         1 3EA1002     0.0000 
     37 H          44.5931    8.7564    6.6580 H         1 3EA1002     0.0000 
     38 H          46.3007    9.1546    6.9139 H         1 3EA1002     0.0000 
     39 H          44.3929   14.2218    4.7599 H         1 3EA1002     0.0000 
     40 H          46.6598   13.5264    5.2412 H         1 3EA1002     0.0000 
     41 H          47.9667   13.1319    6.8211 H         1 3EA1002     0.0000 
     42 H          49.0906   12.2881    5.7417 H         1 3EA1002     0.0000 
     43 H          49.7903   12.4281    8.1612 H         1 3EA1002     0.0000 
     44 H          49.7276   10.7852    7.5000 H         1 3EA1002     0.0000 
     45 H          47.6812   10.3139    8.5183 H         1 3EA1002     0.0000 
     46 H          47.3213   12.0299    8.7751 H         1 3EA1002     0.0000 
     47 H          47.4396   13.2185   11.0940 H         1 3EA1002     0.0000 
     48 H          47.8131    9.0446   11.2368 H         1 3EA1002     0.0000 
     49 H          46.0696    8.9442   12.9199 H         1 3EA1002     0.0000 
     50 H          45.5363   14.1671   12.9297 H         1 3EA1002     0.0000 
     51 H          44.0701   13.0859   14.5992 H         1 3EA1002     0.0000 
     52 H          43.8174    9.4765   14.1186 H         1 3EA1002     0.0000 
     53 H          43.2653   10.7655   15.2019 H         1 3EA1002     0.0000 
     54 H          45.8327    7.6468    9.0634 H         1 3EA1002     0.0000 
     55 H          44.8267    8.1767   10.2006 H         1 3EA1002     0.0000 
     56 H          44.2443    7.6013    8.8165 H         1 3EA1002     0.0000 
@<TRIPOS>BOND
     1    2    1 1    
     2   54    1 1    
     3   55    1 1    
     4   56    1 1    
     5    3    2 1    
     6   35    2 1    
     7   36    2 1    
     8    4    3 1    
     9   37    3 1    
    10   38    3 1    
    11    5    4 ar   
    12   16    4 ar   
    13    6    5 1    
    14   13    5 ar   
    15    7    6 1    
    16    8    7 2    
    17    9    8 1    
    18   13    8 1    
    19   10    9 1    
    20   11    9 1    
    21   12    9 1    
    22   14   13 ar   
    23   15   14 ar   
    24   39   14 1    
    25   16   15 ar   
    26   40   15 1    
    27   17   16 1    
    28   18   17 1    
    29   19   18 1    
    30   41   18 1    
    31   42   18 1    
    32   20   19 1    
    33   43   19 1    
    34   44   19 1    
    35   21   20 1    
    36   45   20 1    
    37   46   20 1    
    38   22   21 1    
    39   23   22 ar   
    40   24   22 ar   
    41   27   23 ar   
    42   47   23 1    
    43   25   24 ar   
    44   48   24 1    
    45   26   25 ar   
    46   49   25 1    
    47   27   26 ar   
    48   30   26 1    
    49   28   27 1    
    50   29   28 2    
    51   50   28 1    
    52   30   29 1    
    53   51   29 1    
    54   31   30 1    
    55   32   31 1    
    56   52   31 1    
    57   53   31 1    
    58   33   32 ar   
    59   34   32 ar   
@<TRIPOS>SUBSTRUCTURE
     1 3EA1002     1 GROUP   
@<TRIPOS>SET

