#    Name: 2x0f_TRH_2_INTS_M
#    Modification time : Tue Mar 25 04:56:07 2014

@<TRIPOS>MOLECULE
2x0f_TRH_2_INTS_M
   43     0     9     0     0
SMALL
NO_CHARGES


@<TRIPOS>ATOM
      1 CA        -17.7875    5.8170   33.5600 C.3       3 GLC5        0.0000 
      2 CA        -17.5130    7.0020   35.0120 C.3       9 GLL5        0.0000 
      3 CA        -18.0620    4.6320   32.1080 C.3       6 GLP5        0.0000 
      4 CA        -19.5015    5.4395   34.3600 C.3       3 GLC5        0.0000 
      5 CA        -18.6550    6.4440   35.8640 C.3       9 GLL5        0.0000 
      6 CA        -20.3480    4.4350   32.8560 C.3       6 GLP5        0.0000 
      7 CA        -18.4165    4.0955   35.1890 C.3       3 GLC5        0.0000 
      8 CA        -18.1710    5.2940   36.7350 C.3       9 GLL5        0.0000 
      9 CA        -18.6620    2.8970   33.6430 C.3       6 GLP5        0.0000 
     10 O         -19.3360    3.4935   37.9925 O.2       1 ALC1        0.0000 
     11 O         -19.1730    4.9560   37.6800 O.2       7 ALL1        0.0000 
     12 O         -19.4990    2.0310   38.3050 O.2       4 ALP1        0.0000 
     13 O         -22.4065    7.2480   35.5675 O.2       1 ALC1        0.0000 
     14 O         -21.3900    8.0380   35.4240 O.2       7 ALL1        0.0000 
     15 O         -23.4230    6.4580   35.7110 O.2       4 ALP1        0.0000 
     16 CA        -24.5140    9.9870   35.9645 C.3       3 GLC5        0.0000 
     17 CA        -22.5150   10.1380   35.7780 C.3       9 GLL5        0.0000 
     18 CA        -26.5130    9.8360   36.1510 C.3       6 GLP5        0.0000 
     19 CA        -21.3595   13.4860   34.9720 C.3       3 GLC5        0.0000 
     20 CA        -22.0750   11.4890   35.2180 C.3       9 GLL5        0.0000 
     21 CA        -20.6440   15.4830   34.7260 C.3       6 GLP5        0.0000 
     22 O         -24.4420   15.3965   36.4680 O.2       1 ALC1        0.0000 
     23 O         -24.4480   14.3460   35.4860 O.2       7 ALL1        0.0000 
     24 O         -24.4360   16.4470   37.4500 O.2       4 ALP1        0.0000 
     25 N         -26.1680   16.2400   34.9225 N.am      2 SEC2        0.0000 
     26 N         -26.3890   14.8950   34.3340 N.am      8 SEL2        0.0000 
     27 N         -25.9470   17.5850   35.5110 N.am      5 SEP2        0.0000 
     28 CA        -26.3305   11.3695   34.4540 C.3       3 GLC5        0.0000 
     29 CA        -25.2180   12.9150   33.7720 C.3       9 GLL5        0.0000 
     30 CA        -27.4430    9.8240   35.1360 C.3       6 GLP5        0.0000 
     31 CA        -25.4750   11.9400   31.0580 C.3       3 GLC5        0.0000 
     32 CA        -26.2420   12.5860   32.6950 C.3       9 GLL5        0.0000 
     33 CA        -24.7080   11.2940   29.4210 C.3       6 GLP5        0.0000 
     34 CA        -27.9165   12.9955   32.2155 C.3       3 GLC5        0.0000 
     35 CA        -29.5910   13.4050   31.7360 C.3       6 GLP5        0.0000 
     36 CA        -27.3295   11.6930   33.8815 C.3       3 GLC5        0.0000 
     37 CA        -28.4170   10.8000   35.0680 C.3       6 GLP5        0.0000 
     38 CA        -25.3315   10.9505   35.0675 C.3       3 GLC5        0.0000 
     39 CA        -24.1500   12.0650   33.9840 C.3       9 GLL5        0.0000 
     40 CA        -22.4825   11.2357   37.3610 C.3       3 GLC5        0.0000 
     41 CA        -22.6700   11.6580   39.2240 C.3       6 GLP5        0.0000 
     42 CA        -25.4900   13.9942   31.7347 C.3       3 GLC5        0.0000 
     43 CA        -25.2500   15.2380   30.2360 C.3       6 GLP5        0.0000 
@<TRIPOS>BOND
@<TRIPOS>SUBSTRUCTURE
     1 ALC1       10 GROUP        1 X    ALC  0     ROOT ALC X 1
     2 SEC2       25 GROUP        1 X    SEC  0     **** SEC X 2
     3 GLC5        1 GROUP        1 X    GLC  0     **** GLC X 6
     4 ALP1       12 GROUP        1 Y    ALP  0     ROOT ALP Y 8
     5 SEP2       27 GROUP        1 Y    SEP  0     **** SEP Y 9
     6 GLP5        3 GROUP        1 Y    GLP  0     **** GLP Y 13
     7 ALL1       11 GROUP        1 Z    ALL  0     ROOT ALL Z 15
     8 SEL2       26 GROUP        1 Z    SEL  0     **** SEL Z 16
     9 GLL5        2 GROUP        1 Z    GLL  0     **** GLL Z 20
@<TRIPOS>SET

