#    Name: 2x0f_TRH_2_ligand
#    Modification time : Tue Mar 25 04:56:07 2014

@<TRIPOS>MOLECULE
2x0f_TRH_2_ligand
   59    61     1     0     0
SMALL
NO_CHARGES


@<TRIPOS>ATOM
      1 O4P       -15.8290    8.4820   33.0990 O.co2     1 TRH415      0.0000 
      2 P2        -17.2370    8.8810   33.2310 P.3       1 TRH415      0.0000 
      3 O3P       -17.4290   10.4580   33.3920 O.co2     1 TRH415      0.0000 
      4 O1        -17.9550    8.2430   34.4900 O.3       1 TRH415      0.0000 
      5 C1        -17.5130    7.0020   35.0120 C.3       1 TRH415      0.0000 
      6 C2        -18.6550    6.4440   35.8640 C.3       1 TRH415      0.0000 
      7 O2        -19.1840    7.4790   36.6880 O.3       1 TRH415      0.0000 
      8 C3        -18.1710    5.2940   36.7350 C.3       1 TRH415      0.0000 
      9 O3        -19.1730    4.9560   37.6800 O.3       1 TRH415      0.0000 
     10 C4        -16.9010    5.7090   37.4580 C.3       1 TRH415      0.0000 
     11 O4        -16.4150    4.6270   38.2410 O.3       1 TRH415      0.0000 
     12 C5        -15.8520    6.1240   36.4370 C.3       1 TRH415      0.0000 
     13 O5        -16.3530    7.2910   35.7920 O.3       1 TRH415      0.0000 
     14 C6        -14.5500    6.4730   37.1550 C.3       1 TRH415      0.0000 
     15 OPP       -18.1130    8.4420   31.9890 O.3       1 TRH415      0.0000 
     16 P         -18.7740    9.5090   31.0320 P.3       1 TRH415      0.0000 
     17 O1P       -17.8160   10.5030   30.5360 O.co2     1 TRH415      0.0000 
     18 O2P       -19.4390    8.6410   29.8750 O.co2     1 TRH415      0.0000 
     19 O5'       -19.9820   10.1580   31.8160 O.3       1 TRH415      0.0000 
     20 C5'       -20.8490    9.3510   32.5860 C.3       1 TRH415      0.0000 
     21 C4'       -20.9830    9.9090   33.9940 C.3       1 TRH415      0.0000 
     22 O4'       -21.5320   11.2140   33.9220 O.3       1 TRH415      0.0000 
     23 C3'       -22.0250    9.1230   34.7580 C.3       1 TRH415      0.0000 
     24 O3'       -21.3900    8.0380   35.4240 O.3       1 TRH415      0.0000 
     25 C2'       -22.5150   10.1380   35.7780 C.3       1 TRH415      0.0000 
     26 C1'       -22.0750   11.4890   35.2180 C.3       1 TRH415      0.0000 
     27 N11       -23.2280   12.3800   34.9780 N.am      1 TRH415      0.0000 
     28 C21       -23.4010   13.5460   35.7210 C.2       1 TRH415      0.0000 
     29 O21       -22.5100   13.8740   36.6890 O.2       1 TRH415      0.0000 
     30 N31       -24.4480   14.3460   35.4860 N.am      1 TRH415      0.0000 
     31 C41       -25.3460   14.0610   34.5390 C.2       1 TRH415      0.0000 
     32 O41       -26.3890   14.8950   34.3340 O.2       1 TRH415      0.0000 
     33 C51       -25.2180   12.9150   33.7720 C.2       1 TRH415      0.0000 
     34 C5A       -26.2420   12.5860   32.6950 C.3       1 TRH415      0.0000 
     35 C61       -24.1500   12.0650   33.9840 C.2       1 TRH415      0.0000 
     36 H         -17.3044    6.3140   34.2282 H         1 TRH415      0.0000 
     37 H         -19.4142    6.0611   35.1914 H         1 TRH415      0.0000 
     38 H         -17.9358    4.4617   36.0911 H         1 TRH415      0.0000 
     39 H         -17.1296    6.5685   38.0711 H         1 TRH415      0.0000 
     40 H         -15.6871    5.3302   35.7631 H         1 TRH415      0.0000 
     41 H         -20.4809    8.3161   32.6712 H         1 TRH415      0.0000 
     42 H         -21.8595    9.3000   32.1501 H         1 TRH415      0.0000 
     43 H         -20.0729    9.8773   34.4987 H         1 TRH415      0.0000 
     44 H         -22.8009    8.8609   34.1243 H         1 TRH415      0.0000 
     45 H         -22.0417    9.9679   36.7159 H         1 TRH415      0.0000 
     46 H         -23.5769   10.1054   35.8416 H         1 TRH415      0.0000 
     47 H         -21.3682   11.9282   35.8483 H         1 TRH415      0.0000 
     48 H         -24.5659   15.2228   36.0633 H         1 TRH415      0.0000 
     49 H         -24.0346   11.2187   33.4235 H         1 TRH415      0.0000 
     50 H         -14.1946    5.6978   37.6773 H         1 TRH415      0.0000 
     51 H         -13.8338    6.7470   36.5131 H         1 TRH415      0.0000 
     52 H         -14.6717    7.2288   37.7984 H         1 TRH415      0.0000 
     53 H         -26.2889   13.3001   31.9965 H         1 TRH415      0.0000 
     54 H         -26.0250   11.7303   32.2252 H         1 TRH415      0.0000 
     55 H         -27.1617   12.4868   33.0749 H         1 TRH415      0.0000 
     56 H         -19.7372    8.0415   36.0735 H         1 TRH415      0.0000 
     57 H         -19.1538    3.9575   37.7315 H         1 TRH415      0.0000 
     58 H         -17.0135    4.5977   39.0416 H         1 TRH415      0.0000 
     59 H         -21.9294    7.2325   35.1786 H         1 TRH415      0.0000 
@<TRIPOS>BOND
     1    2    1 ar   
     2    3    2 ar   
     3    4    2 1    
     4   15    2 1    
     5    5    4 1    
     6    6    5 1    
     7   13    5 1    
     8   36    5 1    
     9    7    6 1    
    10    8    6 1    
    11   37    6 1    
    12   56    7 1    
    13    9    8 1    
    14   10    8 1    
    15   38    8 1    
    16   57    9 1    
    17   11   10 1    
    18   12   10 1    
    19   39   10 1    
    20   58   11 1    
    21   13   12 1    
    22   14   12 1    
    23   40   12 1    
    24   50   14 1    
    25   51   14 1    
    26   52   14 1    
    27   16   15 1    
    28   17   16 ar   
    29   18   16 ar   
    30   19   16 1    
    31   20   19 1    
    32   21   20 1    
    33   41   20 1    
    34   42   20 1    
    35   22   21 1    
    36   23   21 1    
    37   43   21 1    
    38   26   22 1    
    39   24   23 1    
    40   25   23 1    
    41   44   23 1    
    42   59   24 1    
    43   26   25 1    
    44   45   25 1    
    45   46   25 1    
    46   27   26 1    
    47   47   26 1    
    48   28   27 1    
    49   35   27 1    
    50   29   28 2    
    51   30   28 1    
    52   31   30 1    
    53   48   30 1    
    54   32   31 2    
    55   33   31 1    
    56   34   33 1    
    57   35   33 2    
    58   53   34 1    
    59   54   34 1    
    60   55   34 1    
    61   49   35 1    
@<TRIPOS>SUBSTRUCTURE
     1 TRH415      1 GROUP   
@<TRIPOS>SET

