#    Name: 1wbm_BLL_1_INTS_M
#    Modification time : Tue Mar 25 08:52:55 2014

@<TRIPOS>MOLECULE
1wbm_BLL_1_INTS_M
  118     0     9     0     0
SMALL
NO_CHARGES


@<TRIPOS>ATOM
      1 CA          9.6820   21.5050    2.7825 C.3       3 GLC5        0.0000 
      2 CA          8.3680   23.1770    2.6560 C.3       9 GLL5        0.0000 
      3 CA         10.9960   19.8330    2.9090 C.3       6 GLP5        0.0000 
      4 CA          8.5955   23.3910    0.4860 C.3       3 GLC5        0.0000 
      5 CA          8.8230   23.6050   -1.6840 C.3       6 GLP5        0.0000 
      6 CA         17.9610   24.2385    8.4905 C.3       3 GLC5        0.0000 
      7 CA         16.4420   23.2780    8.5280 C.3       9 GLL5        0.0000 
      8 CA         19.4800   25.1990    8.4530 C.3       6 GLP5        0.0000 
      9 CA         17.1090   23.0200   10.3945 C.3       3 GLC5        0.0000 
     10 CA         17.7760   22.7620   12.2610 C.3       6 GLP5        0.0000 
     11 O          11.0805   26.2850    4.1365 O.2       1 ALC1        0.0000 
     12 O          10.4190   25.0830    4.9600 O.2       7 ALL1        0.0000 
     13 O          11.7420   27.4870    3.3130 O.2       4 ALP1        0.0000 
     14 CA         11.2375   25.4930    0.6280 C.3       3 GLC5        0.0000 
     15 CA         10.6900   24.1470    1.7260 C.3       9 GLL5        0.0000 
     16 CA         11.7850   26.8390   -0.4700 C.3       6 GLP5        0.0000 
     17 CA          9.7565   23.8760    0.0210 C.3       3 GLC5        0.0000 
     18 O          14.5485   23.6550    2.5255 O.2       1 ALC1        0.0000 
     19 O          14.3430   22.6470    3.3030 O.2       7 ALL1        0.0000 
     20 O          14.7540   24.6630    1.7480 O.2       4 ALP1        0.0000 
     21 N          15.2995   25.6505    5.6590 N.am      2 SEC2        0.0000 
     22 N          14.7720   24.9260    4.7310 N.am      8 SEL2        0.0000 
     23 N          15.8270   26.3750    6.5870 N.am      5 SEP2        0.0000 
     24 O          15.6170   25.4165    3.5545 O.2       1 ALC1        0.0000 
     25 O          14.7720   24.9260    4.7310 O.2       7 ALL1        0.0000 
     26 O          16.4620   25.9070    2.3780 O.2       4 ALP1        0.0000 
     27 O          14.7630   24.7945    3.2395 O.2       1 ALC1        0.0000 
     28 O          17.4265   22.0085    5.4160 O.2       1 ALC1        0.0000 
     29 O          16.3510   20.9540    5.6220 O.2       7 ALL1        0.0000 
     30 O          18.5020   23.0630    5.2100 O.2       4 ALP1        0.0000 
     31 CA         16.6435   15.9885    3.5690 C.3       3 GLC5        0.0000 
     32 CA         17.3630   18.0540    3.6470 C.3       9 GLL5        0.0000 
     33 CA         15.9240   13.9230    3.4910 C.3       6 GLP5        0.0000 
     34 CA         13.4535   19.0265    3.0390 C.3       3 GLC5        0.0000 
     35 CA         15.5640   19.6440    2.8640 C.3       9 GLL5        0.0000 
     36 CA         11.3430   18.4090    3.2140 C.3       6 GLP5        0.0000 
     37 CA         13.9500   20.1710    0.7085 C.3       3 GLC5        0.0000 
     38 CA         15.6610   19.0670    1.5210 C.3       9 GLL5        0.0000 
     39 CA         12.2390   21.2750   -0.1040 C.3       6 GLP5        0.0000 
     40 N          19.6205   20.2460    4.1545 N.am      2 SEC2        0.0000 
     41 N          18.9200   19.9280    5.5750 N.am      8 SEL2        0.0000 
     42 N          20.3210   20.5640    2.7340 N.am      5 SEP2        0.0000 
     43 O          20.3365   19.1970    5.5975 O.2       1 ALC1        0.0000 
     44 O          18.9200   19.9280    5.5750 O.2       7 ALL1        0.0000 
     45 O          21.7530   18.4660    5.6200 O.2       4 ALP1        0.0000 
     46 CA         17.2255   15.5060    2.3860 C.3       3 GLC5        0.0000 
     47 CA         17.4690   17.4740    2.3180 C.3       9 GLL5        0.0000 
     48 CA         16.9820   13.5380    2.4540 C.3       6 GLP5        0.0000 
     49 CA         20.0675   18.2685    4.0930 C.3       3 GLC5        0.0000 
     50 CA         18.1310   17.6940    4.8840 C.3       9 GLL5        0.0000 
     51 CA         22.0040   18.8430    3.3020 C.3       6 GLP5        0.0000 
     52 CA          8.7030   23.4805    6.0410 C.3       3 GLC5        0.0000 
     53 CA          9.3350   25.5570    5.7860 C.3       9 GLL5        0.0000 
     54 CA          8.0710   21.4040    6.2960 C.3       6 GLP5        0.0000 
     55 CA         12.6765   25.9765   10.0405 C.3       3 GLC5        0.0000 
     56 CA         10.9470   26.7260    9.1930 C.3       9 GLL5        0.0000 
     57 CA         14.4060   25.2270   10.8880 C.3       6 GLP5        0.0000 
     58 CA         10.7040   25.1785   10.6490 C.3       3 GLC5        0.0000 
     59 CA         10.4610   23.6310   12.1050 C.3       6 GLP5        0.0000 
     60 N           9.3505   28.8165    5.2595 N.am      2 SEC2        0.0000 
     61 N           8.6120   27.3940    4.8880 N.am      8 SEL2        0.0000 
     62 N          10.0890   30.2390    5.6310 N.am      5 SEP2        0.0000 
     63 O           7.6300   28.5230    4.4260 O.2       1 ALC1        0.0000 
     64 O           8.6120   27.3940    4.8880 O.2       7 ALL1        0.0000 
     65 O           6.6480   29.6520    3.9640 O.2       4 ALP1        0.0000 
     66 CA         10.3035   25.8475    0.6855 C.3       3 GLC5        0.0000 
     67 CA          8.4700   25.4670    1.6620 C.3       9 GLL5        0.0000 
     68 CA          8.3777   24.4305    0.0940 C.3       3 GLC5        0.0000 
     69 CA          7.8625   22.3328    4.5393 C.3       3 GLC5        0.0000 
     70 CA          6.9400   23.3460    2.9090 C.3       9 GLL5        0.0000 
     71 CA          6.6214   22.1486    1.7306 C.3       3 GLC5        0.0000 
     72 CA          5.7550   20.7250    0.7730 C.3       6 GLP5        0.0000 
     73 CA         18.4402   23.3897    8.7425 C.3       3 GLC5        0.0000 
     74 CA         16.7310   21.8720    9.1080 C.3       9 GLL5        0.0000 
     75 CA         16.9933   22.1197   10.8605 C.3       3 GLC5        0.0000 
     76 CA         15.3083   23.3523   10.1740 C.3       3 GLC5        0.0000 
     77 CA         14.4973   19.2890    9.0633 C.3       3 GLC5        0.0000 
     78 CA         16.0030   19.7570   10.3370 C.3       9 GLL5        0.0000 
     79 CA         13.1480   18.1580    8.0520 C.3       6 GLP5        0.0000 
     80 CA         17.2235   21.1205   11.2583 C.3       3 GLC5        0.0000 
     81 CA         15.9109   19.5742   11.8691 C.3       3 GLC5        0.0000 
     82 CA         15.6900   21.0830    9.8120 C.3       9 GLL5        0.0000 
     83 CA         15.2290   19.3380   13.6140 C.3       6 GLP5        0.0000 
     84 CA         17.9982   21.6947   10.7410 C.3       3 GLC5        0.0000 
     85 CA         18.3710   19.9660    9.4860 C.3       9 GLL5        0.0000 
     86 CA         15.1110   24.2940    9.5130 C.3       3 GLC5        0.0000 
     87 CA         11.8895   21.6265    3.4910 C.3       3 GLC5        0.0000 
     88 CA         13.4130   23.0040    4.3350 C.3       9 GLL5        0.0000 
     89 CA         11.0493   21.7685    2.5305 C.3       3 GLC5        0.0000 
     90 CA         11.5150   23.2610    2.5780 C.3       9 GLL5        0.0000 
     91 CA         11.6708   22.4895    1.0240 C.3       3 GLC5        0.0000 
     92 CA         17.7324   20.4546    3.3528 C.3       3 GLC5        0.0000 
     93 CA         16.4250   19.1310    3.9340 C.3       9 GLL5        0.0000 
     94 CA         18.5440   22.2150    2.5510 C.3       6 GLP5        0.0000 
     95 CA         15.2292   16.7340    1.5922 C.3       3 GLC5        0.0000 
     96 CA         16.6120   17.9890    1.2600 C.3       9 GLL5        0.0000 
     97 CA         14.3220   14.9400    1.7940 C.3       6 GLP5        0.0000 
     98 CA         16.8491   20.4166    1.5431 C.3       3 GLC5        0.0000 
     99 CA         17.5860   22.1610    1.3600 C.3       6 GLP5        0.0000 
    100 CA         18.4648   17.2263    0.6300 C.3       3 GLC5        0.0000 
    101 CA         19.8890   16.7210   -0.5290 C.3       6 GLP5        0.0000 
    102 CA         15.9674   17.2205    0.2466 C.3       3 GLC5        0.0000 
    103 CA         15.1320   16.4400   -1.3610 C.3       6 GLP5        0.0000 
    104 CA         10.5834   27.7324    6.3376 C.3       3 GLC5        0.0000 
    105 CA         12.1590   28.9490    5.6530 C.3       6 GLP5        0.0000 
    106 CA         11.1582   27.0538   11.2245 C.3       3 GLC5        0.0000 
    107 CA         11.8960   26.9270   13.0220 C.3       6 GLP5        0.0000 
    108 CA         11.6651   27.8971    8.0385 C.3       3 GLC5        0.0000 
    109 CA          9.8940   27.6350    9.6610 C.3       9 GLL5        0.0000 
    110 CA         12.9450   28.7910    6.9680 C.3       6 GLP5        0.0000 
    111 CA          8.7710   29.6365    9.7648 C.3       3 GLC5        0.0000 
    112 CA          8.2520   31.5320   10.2680 C.3       6 GLP5        0.0000 
    113 CA          8.4425   26.7285   10.8133 C.3       3 GLC5        0.0000 
    114 CA          8.6860   27.8470    8.8620 C.3       9 GLL5        0.0000 
    115 CA          7.5950   25.7160   12.3650 C.3       6 GLP5        0.0000 
    116 CA          7.8440   29.0405    5.7915 C.3       3 GLC5        0.0000 
    117 CA          7.6160   27.1800    6.7720 C.3       9 GLL5        0.0000 
    118 CA          7.7960   31.1440    5.4070 C.3       6 GLP5        0.0000 
@<TRIPOS>BOND
@<TRIPOS>SUBSTRUCTURE
     1 ALC1       11 GROUP        1 X    ALC  0     ROOT ALC X 1
     2 SEC2       21 GROUP        1 X    SEC  0     **** SEC X 2
     3 GLC5        1 GROUP        1 X    GLC  0     **** GLC X 6
     4 ALP1       13 GROUP        1 Y    ALP  0     ROOT ALP Y 8
     5 SEP2       23 GROUP        1 Y    SEP  0     **** SEP Y 9
     6 GLP5        3 GROUP        1 Y    GLP  0     **** GLP Y 13
     7 ALL1       12 GROUP        1 Z    ALL  0     ROOT ALL Z 15
     8 SEL2       22 GROUP        1 Z    SEL  0     **** SEL Z 16
     9 GLL5        2 GROUP        1 Z    GLL  0     **** GLL Z 20
@<TRIPOS>SET

