#    Name: 1wbm_BLL_1_ligand
#    Modification time : Tue Mar 25 08:52:55 2014

@<TRIPOS>MOLECULE
1wbm_BLL_1_ligand
   92    97     1     0     0
SMALL
NO_CHARGES


@<TRIPOS>ATOM
      1 C01         9.1740   24.2450    2.0200 C.ar      1 BLL1100     0.0000 
      2 C02         8.4700   25.4670    1.6620 C.ar      1 BLL1100     0.0000 
      3 C03         7.0430   25.6560    1.9030 C.ar      1 BLL1100     0.0000 
      4 C04         6.2750   24.5890    2.5320 C.ar      1 BLL1100     0.0000 
      5 C05         6.9400   23.3460    2.9090 C.ar      1 BLL1100     0.0000 
      6 C06         8.3680   23.1770    2.6560 C.ar      1 BLL1100     0.0000 
      7 C07        16.7310   21.8720    9.1080 C.ar      1 BLL1100     0.0000 
      8 C08        15.6900   21.0830    9.8120 C.ar      1 BLL1100     0.0000 
      9 C09        16.0030   19.7570   10.3370 C.ar      1 BLL1100     0.0000 
     10 C10        17.3390   19.2010   10.1740 C.ar      1 BLL1100     0.0000 
     11 C11        18.3710   19.9660    9.4860 C.ar      1 BLL1100     0.0000 
     12 C12        18.0700   21.2890    8.9560 C.ar      1 BLL1100     0.0000 
     13 C13        16.4420   23.2780    8.5280 C.3       1 BLL1100     0.0000 
     14 C14        15.1900   23.4440    7.7480 C.3       1 BLL1100     0.0000 
     15 C15        15.2500   23.0440    6.3270 C.3       1 BLL1100     0.0000 
     16 C16        14.1880   23.7430    5.3820 C.3       1 BLL1100     0.0000 
     17 C17        13.4130   23.0040    4.3350 C.3       1 BLL1100     0.0000 
     18 C18        12.1530   23.8360    3.8110 C.3       1 BLL1100     0.0000 
     19 C19        11.0630   23.8870    4.9120 C.2       1 BLL1100     0.0000 
     20 O20        10.7720   22.9520    5.6550 O.2       1 BLL1100     0.0000 
     21 N21        10.4190   25.0830    4.9600 N.am      1 BLL1100     0.0000 
     22 C22        11.5150   23.2610    2.5780 C.3       1 BLL1100     0.0000 
     23 C23        10.6900   24.1470    1.7260 C.3       1 BLL1100     0.0000 
     24 O24        14.3430   22.6470    3.3030 O.3       1 BLL1100     0.0000 
     25 O25        14.7720   24.9260    4.7310 O.3       1 BLL1100     0.0000 
     26 C26        15.2190   21.5440    6.1200 C.2       1 BLL1100     0.0000 
     27 O27        14.1950   20.9220    6.4410 O.2       1 BLL1100     0.0000 
     28 N28        16.3510   20.9540    5.6220 N.am      1 BLL1100     0.0000 
     29 C29        16.5320   19.5380    5.3900 C.3       1 BLL1100     0.0000 
     30 C30        16.4250   19.1310    3.9340 C.ar      1 BLL1100     0.0000 
     31 C31        17.3630   18.0540    3.6470 C.ar      1 BLL1100     0.0000 
     32 C32        15.5640   19.6440    2.8640 C.ar      1 BLL1100     0.0000 
     33 C33        15.6610   19.0670    1.5210 C.ar      1 BLL1100     0.0000 
     34 C34        16.6120   17.9890    1.2600 C.ar      1 BLL1100     0.0000 
     35 C35        17.9010   18.9420    5.7640 C.3       1 BLL1100     0.0000 
     36 O36        18.9200   19.9280    5.5750 O.3       1 BLL1100     0.0000 
     37 C37        17.4690   17.4740    2.3180 C.ar      1 BLL1100     0.0000 
     38 C38        18.1310   17.6940    4.8840 C.3       1 BLL1100     0.0000 
     39 C39         9.3350   25.5570    5.7860 C.3       1 BLL1100     0.0000 
     40 C40         9.5900   26.2320    7.1170 C.ar      1 BLL1100     0.0000 
     41 C41         8.5530   27.1370    7.5930 C.ar      1 BLL1100     0.0000 
     42 C42        10.8060   26.0170    7.9210 C.ar      1 BLL1100     0.0000 
     43 C43        10.9470   26.7260    9.1930 C.ar      1 BLL1100     0.0000 
     44 C44         9.8940   27.6350    9.6610 C.ar      1 BLL1100     0.0000 
     45 C45         8.6860   27.8470    8.8620 C.ar      1 BLL1100     0.0000 
     46 C46         8.1680   26.6940    5.5800 C.3       1 BLL1100     0.0000 
     47 O47         8.6120   27.3940    4.8880 O.3       1 BLL1100     0.0000 
     48 C48         7.6160   27.1800    6.7720 C.3       1 BLL1100     0.0000 
     49 H           8.9975   26.2294    1.2213 H         1 BLL1100     0.0000 
     50 H           6.5960   26.5123    1.6379 H         1 BLL1100     0.0000 
     51 H           5.2940   24.7076    2.7053 H         1 BLL1100     0.0000 
     52 H           6.4156   22.6064    3.3426 H         1 BLL1100     0.0000 
     53 H           8.8267   22.3126    2.9182 H         1 BLL1100     0.0000 
     54 H          14.7719   21.4707    9.9223 H         1 BLL1100     0.0000 
     55 H          15.2914   19.2264   10.8132 H         1 BLL1100     0.0000 
     56 H          17.5507   18.2858   10.5374 H         1 BLL1100     0.0000 
     57 H          19.2944   19.5789    9.3768 H         1 BLL1100     0.0000 
     58 H          18.7871   21.8153    8.4777 H         1 BLL1100     0.0000 
     59 H          17.3219   23.5669    7.8993 H         1 BLL1100     0.0000 
     60 H          16.4553   24.0007    9.3827 H         1 BLL1100     0.0000 
     61 H          14.8621   24.5153    7.8139 H         1 BLL1100     0.0000 
     62 H          14.3689   22.8717    8.2558 H         1 BLL1100     0.0000 
     63 H          16.2521   23.3845    5.9118 H         1 BLL1100     0.0000 
     64 H          13.4043   24.1886    6.1047 H         1 BLL1100     0.0000 
     65 H          13.0088   22.0945    4.8036 H         1 BLL1100     0.0000 
     66 H          12.4762   24.8455    3.6265 H         1 BLL1100     0.0000 
     67 H          10.7711   25.8546    4.2436 H         1 BLL1100     0.0000 
     68 H          10.8936   22.3678    2.8885 H         1 BLL1100     0.0000 
     69 H          12.3302   22.7978    1.9445 H         1 BLL1100     0.0000 
     70 H          11.1019   25.1940    1.7565 H         1 BLL1100     0.0000 
     71 H          10.7996   23.8457    0.6471 H         1 BLL1100     0.0000 
     72 H          17.1857   21.5656    5.3755 H         1 BLL1100     0.0000 
     73 H          15.7878   18.9299    5.9237 H         1 BLL1100     0.0000 
     74 H          14.9158   20.3819    3.0499 H         1 BLL1100     0.0000 
     75 H          15.0753   19.4123    0.7837 H         1 BLL1100     0.0000 
     76 H          16.6742   17.5959    0.3288 H         1 BLL1100     0.0000 
     77 H          17.8397   18.6156    6.7900 H         1 BLL1100     0.0000 
     78 H          18.1160   16.7376    2.1340 H         1 BLL1100     0.0000 
     79 H          19.1594   17.6050    4.6752 H         1 BLL1100     0.0000 
     80 H          17.7067   16.8551    5.3589 H         1 BLL1100     0.0000 
     81 H           8.6397   24.6878    6.1739 H         1 BLL1100     0.0000 
     82 H          11.5161   25.3995    7.6004 H         1 BLL1100     0.0000 
     83 H          11.7729   26.5905    9.7537 H         1 BLL1100     0.0000 
     84 H          10.0050   28.1158   10.5388 H         1 BLL1100     0.0000 
     85 H           7.9716   28.4622    9.1783 H         1 BLL1100     0.0000 
     86 H           7.3572   26.0005    5.0953 H         1 BLL1100     0.0000 
     87 H           6.7345   26.5513    7.0335 H         1 BLL1100     0.0000 
     88 H           7.2068   28.1981    6.5808 H         1 BLL1100     0.0000 
     89 H          14.8242   23.4957    3.0835 H         1 BLL1100     0.0000 
     90 H          15.0712   24.6054    3.8323 H         1 BLL1100     0.0000 
     91 H          19.7819   19.4255    5.6426 H         1 BLL1100     0.0000 
     92 H           7.8740   28.0252    4.6493 H         1 BLL1100     0.0000 
@<TRIPOS>BOND
     1    2    1 ar   
     2    6    1 ar   
     3   23    1 1    
     4    3    2 ar   
     5   49    2 1    
     6    4    3 ar   
     7   50    3 1    
     8    5    4 ar   
     9   51    4 1    
    10    6    5 ar   
    11   52    5 1    
    12   53    6 1    
    13    8    7 ar   
    14   12    7 ar   
    15   13    7 1    
    16    9    8 ar   
    17   54    8 1    
    18   10    9 ar   
    19   55    9 1    
    20   11   10 ar   
    21   56   10 1    
    22   12   11 ar   
    23   57   11 1    
    24   58   12 1    
    25   14   13 1    
    26   59   13 1    
    27   60   13 1    
    28   15   14 1    
    29   61   14 1    
    30   62   14 1    
    31   16   15 1    
    32   26   15 1    
    33   63   15 1    
    34   17   16 1    
    35   25   16 1    
    36   64   16 1    
    37   18   17 1    
    38   24   17 1    
    39   65   17 1    
    40   19   18 1    
    41   22   18 1    
    42   66   18 1    
    43   20   19 2    
    44   21   19 am   
    45   39   21 1    
    46   67   21 1    
    47   23   22 1    
    48   68   22 1    
    49   69   22 1    
    50   70   23 1    
    51   71   23 1    
    52   89   24 1    
    53   90   25 1    
    54   27   26 2    
    55   28   26 am   
    56   29   28 1    
    57   72   28 1    
    58   30   29 1    
    59   35   29 1    
    60   73   29 1    
    61   31   30 ar   
    62   32   30 ar   
    63   37   31 ar   
    64   38   31 1    
    65   33   32 ar   
    66   74   32 1    
    67   34   33 ar   
    68   75   33 1    
    69   37   34 ar   
    70   76   34 1    
    71   36   35 1    
    72   38   35 1    
    73   77   35 1    
    74   91   36 1    
    75   78   37 1    
    76   79   38 1    
    77   80   38 1    
    78   40   39 1    
    79   46   39 1    
    80   81   39 1    
    81   41   40 ar   
    82   42   40 ar   
    83   45   41 ar   
    84   48   41 1    
    85   43   42 ar   
    86   82   42 1    
    87   44   43 ar   
    88   83   43 1    
    89   45   44 ar   
    90   84   44 1    
    91   85   45 1    
    92   47   46 1    
    93   48   46 1    
    94   86   46 1    
    95   92   47 1    
    96   87   48 1    
    97   88   48 1    
@<TRIPOS>SUBSTRUCTURE
     1 BLL1100     1 GROUP   
@<TRIPOS>SET

