#    Name: 3fmw_FAD_1_INTS_M
#    Modification time : Tue Mar 25 06:06:44 2014

@<TRIPOS>MOLECULE
3fmw_FAD_1_INTS_M
  111     0     9     0     0
SMALL
NO_CHARGES


@<TRIPOS>ATOM
      1 CA         24.8425  -12.7405   31.4250 C.3       3 GLC5        0.0000 
      2 CA         23.9050  -14.2600   32.1720 C.3       9 GLL5        0.0000 
      3 CA         25.7800  -11.2210   30.6780 C.3       6 GLP5        0.0000 
      4 CA         24.0965  -14.9645   35.0855 C.3       3 GLC5        0.0000 
      5 CA         23.3200  -14.6500   33.3590 C.3       9 GLL5        0.0000 
      6 CA         24.8730  -15.2790   36.8120 C.3       6 GLP5        0.0000 
      7 O          19.9885  -15.5690   33.7655 O.2       1 ALC1        0.0000 
      8 O          20.7380  -15.5120   32.4980 O.2       7 ALL1        0.0000 
      9 O          19.2390  -15.6260   35.0330 O.2       4 ALP1        0.0000 
     10 CA         19.4045  -12.9850   33.5550 C.3       3 GLC5        0.0000 
     11 CA         21.4300  -13.1690   33.9170 C.3       9 GLL5        0.0000 
     12 CA         17.3790  -12.8010   33.1930 C.3       6 GLP5        0.0000 
     13 CA         23.7585  -13.9460   35.4325 C.3       3 GLC5        0.0000 
     14 CA         22.6440  -12.6130   34.0530 C.3       9 GLL5        0.0000 
     15 CA         24.3065  -11.9685   34.4505 C.3       3 GLC5        0.0000 
     16 CA         25.9690  -11.3240   34.8480 C.3       6 GLP5        0.0000 
     17 CA         24.2295  -10.4780   38.9025 C.3       3 GLC5        0.0000 
     18 CA         22.6550   -9.4110   37.9240 C.3       9 GLL5        0.0000 
     19 CA         25.8040  -11.5450   39.8810 C.3       6 GLP5        0.0000 
     20 CA         21.0605   -8.6815   38.4610 C.3       3 GLC5        0.0000 
     21 CA         19.4660   -7.9520   38.9980 C.3       6 GLP5        0.0000 
     22 O          24.1895   -7.3000   38.1550 O.2       1 ALC1        0.0000 
     23 O          22.8760   -7.9850   38.1820 O.2       7 ALL1        0.0000 
     24 O          25.5030   -6.6150   38.1280 O.2       4 ALP1        0.0000 
     25 N          21.9635   -9.4270   40.1630 N.am      2 SEC2        0.0000 
     26 N          22.3870  -10.1920   38.8720 N.am      8 SEL2        0.0000 
     27 N          21.5400   -8.6620   41.4540 N.am      5 SEP2        0.0000 
     28 CA         23.9835  -11.6155   39.2325 C.3       3 GLC5        0.0000 
     29 CA         22.1630  -11.6860   38.5840 C.3       9 GLL5        0.0000 
     30 CA         21.4690  -13.6340   38.6975 C.3       3 GLC5        0.0000 
     31 CA         20.7750  -15.5820   38.8110 C.3       6 GLP5        0.0000 
     32 CA         20.7125  -11.5915   37.6190 C.3       3 GLC5        0.0000 
     33 CA         19.2620  -11.4970   36.6540 C.3       6 GLP5        0.0000 
     34 CA         20.7995  -10.7055   39.7105 C.3       3 GLC5        0.0000 
     35 CA         19.4360   -9.7250   40.8370 C.3       6 GLP5        0.0000 
     36 N          21.0355  -12.8425   37.6400 N.am      2 SEC2        0.0000 
     37 N          22.2480  -12.1570   37.3580 N.am      8 SEL2        0.0000 
     38 N          19.8230  -13.5280   37.9220 N.am      5 SEP2        0.0000 
     39 N          29.6255  -19.2520   22.6515 N.am      2 SEC2        0.0000 
     40 N          28.8710  -19.4230   21.4700 N.am      8 SEL2        0.0000 
     41 N          30.3800  -19.0810   23.8330 N.am      5 SEP2        0.0000 
     42 N          31.2000  -21.2495   22.8430 N.am      2 SEC2        0.0000 
     43 N          30.3640  -21.2520   21.6390 N.am      8 SEL2        0.0000 
     44 N          32.0360  -21.2470   24.0470 N.am      5 SEP2        0.0000 
     45 O          29.4035  -23.0380   19.9395 O.2       1 ALC1        0.0000 
     46 O          28.8810  -21.4910   19.8730 O.2       7 ALL1        0.0000 
     47 O          29.9260  -24.5850   20.0060 O.2       4 ALP1        0.0000 
     48 CA         20.9995  -15.0890   17.4620 C.3       3 GLC5        0.0000 
     49 CA         22.6620  -15.1660   18.1340 C.3       9 GLL5        0.0000 
     50 CA         19.3370  -15.0120   16.7900 C.3       6 GLP5        0.0000 
     51 CA         21.8115  -13.7205   18.4925 C.3       3 GLC5        0.0000 
     52 CA         20.9610  -12.2750   18.8510 C.3       6 GLP5        0.0000 
     53 CA         22.8185  -12.4255   20.7200 C.3       3 GLC5        0.0000 
     54 CA         23.8780  -13.6400   20.6040 C.3       9 GLL5        0.0000 
     55 CA         21.7590  -11.2110   20.8360 C.3       6 GLP5        0.0000 
     56 CA         25.1750  -13.2200   19.1385 C.3       3 GLC5        0.0000 
     57 CA         26.4720  -12.8000   17.6730 C.3       6 GLP5        0.0000 
     58 CA         24.1895  -15.5495   22.0515 C.3       3 GLC5        0.0000 
     59 CA         25.4840  -15.5250   20.8730 C.3       9 GLL5        0.0000 
     60 CA         22.8950  -15.5740   23.2300 C.3       6 GLP5        0.0000 
     61 CA         24.2295  -17.3135   21.1480 C.3       3 GLC5        0.0000 
     62 CA         26.1030  -16.9610   20.4200 C.3       9 GLL5        0.0000 
     63 CA         22.3560  -17.6660   21.8760 C.3       6 GLP5        0.0000 
     64 CA         29.5690  -17.0815   22.4825 C.3       3 GLC5        0.0000 
     65 CA         27.8360  -16.9140   22.3990 C.3       9 GLL5        0.0000 
     66 CA         31.3020  -17.2490   22.5660 C.3       6 GLP5        0.0000 
     67 CA         24.8435  -16.3300   23.3870 C.3       3 GLC5        0.0000 
     68 CA         26.7920  -17.0860   23.5440 C.3       9 GLL5        0.0000 
     69 CA         27.8695  -18.9440   24.1830 C.3       3 GLC5        0.0000 
     70 CA         28.9470  -20.8020   24.8220 C.3       6 GLP5        0.0000 
     71 CA         29.3940  -16.8830   23.6940 C.3       3 GLC5        0.0000 
     72 CA         27.4860  -16.5170   24.8220 C.3       9 GLL5        0.0000 
     73 CA         28.8500  -18.2375   24.9035 C.3       3 GLC5        0.0000 
     74 CA         30.2140  -19.9580   24.9850 C.3       6 GLP5        0.0000 
     75 O          29.3180  -15.4430   25.5065 O.2       1 ALC1        0.0000 
     76 O          28.8800  -16.6860   24.7430 O.2       7 ALL1        0.0000 
     77 O          29.7560  -14.2000   26.2700 O.2       4 ALP1        0.0000 
     78 CA         27.9440  -18.9765   25.4900 C.3       3 GLC5        0.0000 
     79 CA         26.9410  -17.1510   26.1580 C.3       9 GLL5        0.0000 
     80 N          24.8145  -18.0505   26.4070 N.am      2 SEC2        0.0000 
     81 N          25.5470  -16.9610   26.2520 N.am      8 SEL2        0.0000 
     82 N          24.0820  -19.1400   26.5620 N.am      5 SEP2        0.0000 
     83 CA         28.3685  -14.5010   27.6290 C.3       3 GLC5        0.0000 
     84 CA         27.6400  -16.3630   27.3160 C.3       9 GLL5        0.0000 
     85 CA         29.0970  -12.6390   27.9420 C.3       6 GLP5        0.0000 
     86 N          29.8675  -14.8710   29.7165 N.am      2 SEC2        0.0000 
     87 N          28.8060  -15.8570   30.4260 N.am      8 SEL2        0.0000 
     88 N          30.9290  -13.8850   29.0070 N.am      5 SEP2        0.0000 
     89 N          27.7145  -18.7630   31.2680 N.am      2 SEC2        0.0000 
     90 N          26.9250  -17.2560   30.9110 N.am      8 SEL2        0.0000 
     91 N          28.5040  -20.2700   31.6250 N.am      5 SEP2        0.0000 
     92 CA         23.9962  -16.5100   32.6718 C.3       3 GLC5        0.0000 
     93 CA         24.3800  -18.5650   32.5780 C.3       6 GLP5        0.0000 
     94 CA         25.0373  -13.5245   33.4583 C.3       3 GLC5        0.0000 
     95 CA         26.4620  -12.5940   34.1510 C.3       6 GLP5        0.0000 
     96 CA         20.6495  -12.1940   35.3195 C.3       3 GLC5        0.0000 
     97 CA         24.3122  -10.9668   35.6130 C.3       3 GLC5        0.0000 
     98 CA         22.5580  -11.2690   36.2500 C.3       9 GLL5        0.0000 
     99 CA         20.9465  -10.9859   36.6932 C.3       3 GLC5        0.0000 
    100 CA         23.4765  -17.7722   19.7112 C.3       3 GLC5        0.0000 
    101 CA         25.5750  -17.6360   19.3240 C.3       9 GLL5        0.0000 
    102 CA         21.9770  -18.2240   20.4970 C.3       6 GLP5        0.0000 
    103 CA         22.6148  -16.8440   19.5117 C.3       3 GLC5        0.0000 
    104 CA         23.8430  -15.7620   18.9190 C.3       9 GLL5        0.0000 
    105 CA         25.0667  -14.8285   17.9123 C.3       3 GLC5        0.0000 
    106 CA         26.8810  -14.1930   17.2980 C.3       6 GLP5        0.0000 
    107 CA         23.1880  -15.2305   21.1880 C.3       3 GLC5        0.0000 
    108 CA         24.4480  -14.9880   20.1720 C.3       9 GLL5        0.0000 
    109 CA         22.2130  -16.1470   21.9880 C.3       6 GLP5        0.0000 
    110 CA         25.9235  -14.7248   18.9102 C.3       3 GLC5        0.0000 
    111 CA         26.2103  -15.6669   18.4854 C.3       3 GLC5        0.0000 
@<TRIPOS>BOND
@<TRIPOS>SUBSTRUCTURE
     1 ALC1        7 GROUP        1 X    ALC  0     ROOT ALC X 1
     2 SEC2       25 GROUP        1 X    SEC  0     **** SEC X 2
     3 GLC5        1 GROUP        1 X    GLC  0     **** GLC X 6
     4 ALP1        9 GROUP        1 Y    ALP  0     ROOT ALP Y 8
     5 SEP2       27 GROUP        1 Y    SEP  0     **** SEP Y 9
     6 GLP5        3 GROUP        1 Y    GLP  0     **** GLP Y 13
     7 ALL1        8 GROUP        1 Z    ALL  0     ROOT ALL Z 15
     8 SEL2       26 GROUP        1 Z    SEL  0     **** SEL Z 16
     9 GLL5        2 GROUP        1 Z    GLL  0     **** GLL Z 20
@<TRIPOS>SET

