#    Name: 3fmw_FAD_1_ligand
#    Modification time : Tue Mar 25 06:06:44 2014

@<TRIPOS>MOLECULE
3fmw_FAD_1_ligand
   84    89     1     0     0
SMALL
NO_CHARGES


@<TRIPOS>ATOM
      1 PA         24.8460  -15.2800   29.8660 P.3       1 FAD534      0.0000 
      2 O1A        24.4860  -16.5490   29.2390 O.co2     1 FAD534      0.0000 
      3 O2A        24.1050  -14.2040   29.2080 O.co2     1 FAD534      0.0000 
      4 O5B        24.4930  -15.3570   31.4910 O.3       1 FAD534      0.0000 
      5 C5B        23.9050  -14.2600   32.1720 C.3       1 FAD534      0.0000 
      6 C4B        23.3200  -14.6500   33.3590 C.3       1 FAD534      0.0000 
      7 O4B        23.6430  -13.7950   34.4430 O.3       1 FAD534      0.0000 
      8 C3B        21.8130  -14.5270   33.4090 C.3       1 FAD534      0.0000 
      9 O3B        20.7380  -15.5120   32.4980 O.3       1 FAD534      0.0000 
     10 C2B        21.4300  -13.1690   33.9170 C.3       1 FAD534      0.0000 
     11 O2B        20.6660  -12.4910   33.0510 O.3       1 FAD534      0.0000 
     12 C1B        22.6440  -12.6130   34.0530 C.3       1 FAD534      0.0000 
     13 N9A        22.7170  -11.4710   34.8040 N.pl3     1 FAD534      0.0000 
     14 C8A        23.0310  -10.1440   34.2180 C.2       1 FAD534      0.0000 
     15 N7A        23.0590   -9.2440   35.1990 N.2       1 FAD534      0.0000 
     16 C5A        22.7530   -9.9500   36.5060 C.ar      1 FAD534      0.0000 
     17 C6A        22.6550   -9.4110   37.9240 C.ar      1 FAD534      0.0000 
     18 N6A        22.8760   -7.9850   38.1820 N.pl3     1 FAD534      0.0000 
     19 N1A        22.3870  -10.1920   38.8720 N.ar      1 FAD534      0.0000 
     20 C2A        22.1630  -11.6860   38.5840 C.ar      1 FAD534      0.0000 
     21 N3A        22.2480  -12.1570   37.3580 N.ar      1 FAD534      0.0000 
     22 C4A        22.5580  -11.2690   36.2500 C.ar      1 FAD534      0.0000 
     23 N1         28.8710  -19.4230   21.4700 N.2       1 FAD534      0.0000 
     24 C2         29.4550  -20.7820   21.0400 C.2       1 FAD534      0.0000 
     25 O2         30.3640  -21.2520   21.6390 O.2       1 FAD534      0.0000 
     26 N3         28.8810  -21.4910   19.8730 N.am      1 FAD534      0.0000 
     27 C4         27.8020  -20.9350   19.1460 C.2       1 FAD534      0.0000 
     28 O4         27.3520  -21.5120   18.2190 O.2       1 FAD534      0.0000 
     29 C4X        27.2270  -19.5990   19.5690 C.2       1 FAD534      0.0000 
     30 N5         26.1790  -19.0420   18.8750 N.2       1 FAD534      0.0000 
     31 C5X        25.5750  -17.6360   19.3240 C.ar      1 FAD534      0.0000 
     32 C6         24.3770  -17.0050   18.5270 C.ar      1 FAD534      0.0000 
     33 C7         23.8430  -15.7620   18.9190 C.ar      1 FAD534      0.0000 
     34 C7M        22.6620  -15.1660   18.1340 C.3       1 FAD534      0.0000 
     35 C8         24.4480  -14.9880   20.1720 C.ar      1 FAD534      0.0000 
     36 C8M        23.8780  -13.6400   20.6040 C.3       1 FAD534      0.0000 
     37 C9         25.4840  -15.5250   20.8730 C.ar      1 FAD534      0.0000 
     38 C9A        26.1030  -16.9610   20.4200 C.ar      1 FAD534      0.0000 
     39 N10        27.2980  -17.5880   21.2000 N.pl3     1 FAD534      0.0000 
     40 C10        27.8380  -18.8750   20.7870 C.2       1 FAD534      0.0000 
     41 C1'        27.8360  -16.9140   22.3990 C.3       1 FAD534      0.0000 
     42 C2'        26.7920  -17.0860   23.5440 C.3       1 FAD534      0.0000 
     43 O2'        26.3140  -18.1600   23.6730 O.3       1 FAD534      0.0000 
     44 C3'        27.4860  -16.5170   24.8220 C.3       1 FAD534      0.0000 
     45 O3'        28.8800  -16.6860   24.7430 O.3       1 FAD534      0.0000 
     46 C4'        26.9410  -17.1510   26.1580 C.3       1 FAD534      0.0000 
     47 O4'        25.5470  -16.9610   26.2520 O.3       1 FAD534      0.0000 
     48 C5'        27.6400  -16.3630   27.3160 C.3       1 FAD534      0.0000 
     49 O5'        27.7410  -17.1420   28.5000 O.3       1 FAD534      0.0000 
     50 P          27.5150  -16.3400   29.9450 P.3       1 FAD534      0.0000 
     51 O1P        28.8060  -15.8570   30.4260 O.co2     1 FAD534      0.0000 
     52 O2P        26.9250  -17.2560   30.9110 O.co2     1 FAD534      0.0000 
     53 O3P        26.4780  -15.0580   29.6500 O.3       1 FAD534      0.0000 
     54 H          23.1559  -13.7644   31.5004 H         1 FAD534      0.0000 
     55 H          24.6837  -13.4725   32.3493 H         1 FAD534      0.0000 
     56 H          23.5457  -15.6706   33.6528 H         1 FAD534      0.0000 
     57 H          21.6439  -15.1680   34.5464 H         1 FAD534      0.0000 
     58 H          20.9720  -13.3309   34.8846 H         1 FAD534      0.0000 
     59 H          23.0216  -12.3716   32.9742 H         1 FAD534      0.0000 
     60 H          23.1736  -10.0439   33.2877 H         1 FAD534      0.0000 
     61 H          22.0635   -7.4025   38.1586 H         1 FAD534      0.0000 
     62 H          23.8211   -7.7114   38.3603 H         1 FAD534      0.0000 
     63 H          21.9502  -12.2419   39.4208 H         1 FAD534      0.0000 
     64 H          29.2868  -22.3852   19.6144 H         1 FAD534      0.0000 
     65 H          24.0437  -17.5407   17.7526 H         1 FAD534      0.0000 
     66 H          25.9403  -15.1364   21.6705 H         1 FAD534      0.0000 
     67 H          27.9707  -15.8583   22.2275 H         1 FAD534      0.0000 
     68 H          28.7602  -17.3661   22.7208 H         1 FAD534      0.0000 
     69 H          26.0443  -16.2375   23.3019 H         1 FAD534      0.0000 
     70 H          27.2308  -15.4447   24.8676 H         1 FAD534      0.0000 
     71 H          27.2572  -18.1490   26.2013 H         1 FAD534      0.0000 
     72 H          27.0515  -15.4435   27.4694 H         1 FAD534      0.0000 
     73 H          28.6266  -16.0535   26.9337 H         1 FAD534      0.0000 
     74 H          22.8934  -15.0148   17.1730 H         1 FAD534      0.0000 
     75 H          21.8630  -15.7670   18.1520 H         1 FAD534      0.0000 
     76 H          22.3742  -14.2845   18.5084 H         1 FAD534      0.0000 
     77 H          24.3571  -13.2724   21.4011 H         1 FAD534      0.0000 
     78 H          23.9500  -12.9564   19.8777 H         1 FAD534      0.0000 
     79 H          22.9107  -13.7070   20.8486 H         1 FAD534      0.0000 
     80 H          20.0057  -15.7533   33.1348 H         1 FAD534      0.0000 
     81 H          21.2828  -11.8292   32.6249 H         1 FAD534      0.0000 
     82 H          25.8995  -18.1511   24.5830 H         1 FAD534      0.0000 
     83 H          29.2635  -15.9097   25.2433 H         1 FAD534      0.0000 
     84 H          25.3609  -16.8917   27.2321 H         1 FAD534      0.0000 
@<TRIPOS>BOND
     1    2    1 ar   
     2    3    1 ar   
     3    4    1 1    
     4   53    1 1    
     5    5    4 1    
     6    6    5 1    
     7   54    5 1    
     8   55    5 1    
     9    7    6 1    
    10    8    6 1    
    11   56    6 1    
    12   12    7 1    
    13    9    8 1    
    14   10    8 1    
    15   57    8 1    
    16   80    9 1    
    17   11   10 1    
    18   12   10 1    
    19   58   10 1    
    20   81   11 1    
    21   13   12 1    
    22   59   12 1    
    23   14   13 1    
    24   22   13 1    
    25   15   14 2    
    26   60   14 1    
    27   16   15 1    
    28   17   16 ar   
    29   22   16 ar   
    30   18   17 1    
    31   19   17 ar   
    32   61   18 1    
    33   62   18 1    
    34   20   19 ar   
    35   21   20 ar   
    36   63   20 1    
    37   22   21 ar   
    38   24   23 1    
    39   40   23 2    
    40   25   24 2    
    41   26   24 am   
    42   27   26 am   
    43   64   26 1    
    44   28   27 2    
    45   29   27 1    
    46   30   29 2    
    47   40   29 1    
    48   31   30 1    
    49   32   31 ar   
    50   38   31 ar   
    51   33   32 ar   
    52   65   32 1    
    53   34   33 1    
    54   35   33 ar   
    55   74   34 1    
    56   75   34 1    
    57   76   34 1    
    58   36   35 1    
    59   37   35 ar   
    60   77   36 1    
    61   78   36 1    
    62   79   36 1    
    63   38   37 ar   
    64   66   37 1    
    65   39   38 1    
    66   40   39 1    
    67   41   39 1    
    68   42   41 1    
    69   67   41 1    
    70   68   41 1    
    71   43   42 1    
    72   44   42 1    
    73   69   42 1    
    74   82   43 1    
    75   45   44 1    
    76   46   44 1    
    77   70   44 1    
    78   83   45 1    
    79   47   46 1    
    80   48   46 1    
    81   71   46 1    
    82   84   47 1    
    83   49   48 1    
    84   72   48 1    
    85   73   48 1    
    86   50   49 1    
    87   51   50 ar   
    88   52   50 ar   
    89   53   50 1    
@<TRIPOS>SUBSTRUCTURE
     1 FAD534      1 GROUP   
@<TRIPOS>SET

