#    Name: 2A2D_1_CAVITY_N1_ALL.mol2
#    Modification time : Tue Mar 11 00:15:22 2014

@<TRIPOS>MOLECULE
2A2D_1_CAVITY_N1_ALL.mol2
  109     0     6     0     0
SMALL
NO_CHARGES


@<TRIPOS>ATOM
      1 CA          7.8175   61.1306   -2.3221 C.3       5 GLY6        0.0000 
      2 DU          7.2959   70.5527  -10.0326 H         6 CUB7        0.0000 
      3 DU          6.9420   69.9462   -8.7071 H         6 CUB7        0.0000 
      4 DU          8.6618   70.0752  -11.5839 H         6 CUB7        0.0000 
      5 CZ          8.3079   69.4688  -10.2584 C.ar      4 PHE5        0.0000 
      6 CZ          7.9540   68.8623   -8.9329 C.ar      4 PHE5        0.0000 
      7 O           6.8427   64.1395   -1.2056 O.2       2 ALA2        0.0000 
      8 O           7.8547   63.0555   -1.4314 O.2       2 ALA2        0.0000 
      9 CA          9.2205   62.5781   -2.9827 C.3       5 GLY6        0.0000 
     10 N           8.8666   61.9716   -1.6572 N.2       2 ALA2        0.0000 
     11 N           8.5128   61.3651   -0.3317 N.2       2 ALA2        0.0000 
     12 DU          7.3330   72.4776   -9.1419 H         6 CUB7        0.0000 
     13 DU          6.9791   71.8711   -7.8164 H         6 CUB7        0.0000 
     14 NZ          6.6252   71.2647   -6.4909 N.2       3 LYS4        0.0000 
     15 DU          8.6989   72.0002  -10.6932 H         6 CUB7        0.0000 
     16 DU          8.3450   71.3937   -9.3677 H         6 CUB7        0.0000 
     17 DU          7.9911   70.7872   -8.0422 H         6 CUB7        0.0000 
     18 OG          7.6372   70.1807   -6.7167 O.2       1 SER1        0.0000 
     19 N           9.7109   70.9162  -10.9190 N.2       2 ALA2        0.0000 
     20 DU          9.3570   70.3098   -9.5935 H         6 CUB7        0.0000 
     21 CZ          9.0031   69.7033   -8.2680 C.ar      4 PHE5        0.0000 
     22 CA          7.5875   67.2774   -2.9660 C.3       5 GLY6        0.0000 
     23 CA          7.2337   66.6709   -1.6405 C.3       5 GLY6        0.0000 
     24 N          10.7229   69.8323  -11.1447 N.2       2 ALA2        0.0000 
     25 CZ         10.3690   69.2258   -9.8192 C.ar      4 PHE5        0.0000 
     26 CZ          8.5995   66.1934   -3.1917 C.ar      4 PHE5        0.0000 
     27 O           8.2457   65.5869   -1.8662 O.2       2 ALA2        0.0000 
     28 N           7.8918   64.9805   -0.5407 N.2       2 ALA2        0.0000 
     29 CZ          9.6115   65.1095   -3.4175 C.ar      4 PHE5        0.0000 
     30 N           9.2576   64.5030   -2.0920 N.2       2 ALA2        0.0000 
     31 N          10.2696   63.4191   -2.3178 N.2       2 ALA2        0.0000 
     32 N           8.7360   73.9251   -9.8025 N.2       2 ALA2        0.0000 
     33 N           8.3821   73.3186   -8.4770 N.2       2 ALA2        0.0000 
     34 OG          8.0282   72.7121   -7.1515 O.2       1 SER1        0.0000 
     35 N           9.7480   72.8412  -10.0283 N.2       2 ALA2        0.0000 
     36 N           9.3941   72.2347   -8.7028 N.2       2 ALA2        0.0000 
     37 OG          9.0402   71.6282   -7.3773 O.2       1 SER1        0.0000 
     38 OG          8.6863   71.0217   -6.0518 O.2       1 SER1        0.0000 
     39 N          10.7600   71.7572  -10.2541 N.2       2 ALA2        0.0000 
     40 N          10.4061   71.1508   -8.9286 N.2       2 ALA2        0.0000 
     41 OG         10.0522   70.5443   -7.6031 O.2       1 SER1        0.0000 
     42 N          11.4181   70.0668   -9.1543 N.2       2 ALA2        0.0000 
     43 CZ         11.0642   69.4604   -7.8288 C.ar      4 PHE5        0.0000 
     44 CA          9.6487   67.0344   -2.5268 C.3       5 GLY6        0.0000 
     45 N           9.2948   66.4279   -1.2013 N.2       2 ALA2        0.0000 
     46 N           8.9409   65.8215    0.1242 N.2       2 ALA2        0.0000 
     47 CA         12.4301   68.9829   -9.3801 C.3       5 GLY6        0.0000 
     48 CA         12.0762   68.3764   -8.0546 C.3       5 GLY6        0.0000 
     49 CZ         11.7223   67.7699   -6.7291 C.ar      4 PHE5        0.0000 
     50 OG         11.0145   66.5570   -4.0781 O.2       1 SER1        0.0000 
     51 CZ         10.6606   65.9505   -2.7526 C.ar      4 PHE5        0.0000 
     52 N          10.3068   65.3440   -1.4271 N.2       2 ALA2        0.0000 
     53 CA         12.7343   66.6860   -6.9549 C.3       5 GLY6        0.0000 
     54 CZ         12.3804   66.0795   -5.6294 C.ar      4 PHE5        0.0000 
     55 CZ         12.0265   65.4731   -4.3039 C.ar      4 PHE5        0.0000 
     56 CA         11.6726   64.8666   -2.9784 C.3       5 GLY6        0.0000 
     57 N          13.3924   64.9956   -5.8551 N.2       2 ALA2        0.0000 
     58 N          13.0385   64.3891   -4.5296 N.2       2 ALA2        0.0000 
     59 O          12.6846   63.7826   -3.2041 O.2       2 ALA2        0.0000 
     60 N          11.4552   71.9918   -8.2637 N.2       2 ALA2        0.0000 
     61 OG         11.1013   71.3853   -6.9382 O.2       1 SER1        0.0000 
     62 CA         10.7474   70.7788   -5.6127 C.3       5 GLY6        0.0000 
     63 CZ         12.8211   71.5143   -9.8149 C.ar      4 PHE5        0.0000 
     64 CZ         12.4672   70.9078   -8.4894 C.ar      4 PHE5        0.0000 
     65 DU         12.1133   70.3014   -7.1639 H         6 CUB7        0.0000 
     66 OG         11.7594   69.6949   -5.8384 O.2       1 SER1        0.0000 
     67 CA         11.4055   69.0884   -4.5129 C.3       5 GLY6        0.0000 
     68 N          10.6978   67.8754   -1.8619 N.2       2 ALA2        0.0000 
     69 CZ         13.4792   69.8239   -8.7152 C.ar      4 PHE5        0.0000 
     70 CZ         13.1253   69.2174   -7.3897 C.ar      4 PHE5        0.0000 
     71 OG         12.7714   68.6109   -6.0642 O.2       1 SER1        0.0000 
     72 OG         12.4175   68.0045   -4.7387 O.2       1 SER1        0.0000 
     73 OG         12.0636   67.3980   -3.4132 O.2       1 SER1        0.0000 
     74 N          11.7098   66.7915   -2.0877 N.2       2 ALA2        0.0000 
     75 N          11.3559   66.1850   -0.7622 N.2       2 ALA2        0.0000 
     76 CZ         14.1373   68.1335   -7.6155 C.ar      4 PHE5        0.0000 
     77 CA         13.7834   67.5270   -6.2900 C.3       5 GLY6        0.0000 
     78 CA         13.4295   66.9205   -4.9645 C.3       5 GLY6        0.0000 
     79 DU         13.0756   66.3141   -3.6390 H         6 CUB7        0.0000 
     80 CA         12.7218   65.7076   -2.3135 C.3       5 GLY6        0.0000 
     81 CA         14.4415   65.8366   -5.1902 C.3       5 GLY6        0.0000 
     82 CA         14.0876   65.2301   -3.8647 C.3       5 GLY6        0.0000 
     83 CA         13.7337   64.6236   -2.5392 C.3       5 GLY6        0.0000 
     84 CA         15.0996   64.1462   -4.0905 C.3       5 GLY6        0.0000 
     85 O          12.5043   72.8328   -7.5988 O.2       2 ALA2        0.0000 
     86 OG         12.1504   72.2263   -6.2733 O.2       1 SER1        0.0000 
     87 O          11.7965   71.6198   -4.9478 O.2       2 ALA2        0.0000 
     88 CZ         13.5163   71.7488   -7.8245 C.ar      4 PHE5        0.0000 
     89 CZ         13.1624   71.1424   -6.4990 C.ar      4 PHE5        0.0000 
     90 OG         12.8085   70.5359   -5.1735 O.2       1 SER1        0.0000 
     91 OG         12.4546   69.9294   -3.8480 O.2       1 SER1        0.0000 
     92 OG         12.1008   69.3229   -2.5225 O.2       1 SER1        0.0000 
     93 CZ         14.1744   70.0584   -6.7248 C.ar      4 PHE5        0.0000 
     94 OG         13.8205   69.4519   -5.3993 O.2       1 SER1        0.0000 
     95 OG         13.4666   68.8455   -4.0738 O.2       1 SER1        0.0000 
     96 CA         13.1128   68.2390   -2.7483 C.3       5 GLY6        0.0000 
     97 CA         12.7589   67.6325   -1.4228 C.3       5 GLY6        0.0000 
     98 CZ         15.1864   68.9745   -6.9506 C.ar      4 PHE5        0.0000 
     99 CA         14.8325   68.3680   -5.6251 C.3       5 GLY6        0.0000 
    100 N          14.4786   67.7615   -4.2996 N.2       2 ALA2        0.0000 
    101 N          14.1247   67.1551   -2.9741 N.2       2 ALA2        0.0000 
    102 CA         13.7709   66.5486   -1.6486 C.3       5 GLY6        0.0000 
    103 CA         15.4906   66.6776   -4.5253 C.3       5 GLY6        0.0000 
    104 CA         15.1367   66.0711   -3.1998 C.3       5 GLY6        0.0000 
    105 O          12.8457   72.4608   -4.2829 O.2       2 ALA2        0.0000 
    106 CA         14.2115   71.9834   -5.8341 C.3       5 GLY6        0.0000 
    107 OG         13.8576   71.3769   -4.5086 O.2       1 SER1        0.0000 
    108 CA         15.2235   70.8994   -6.0599 C.3       5 GLY6        0.0000 
    109 O          14.8696   70.2929   -4.7344 O.2       2 ALA2        0.0000 
@<TRIPOS>BOND
@<TRIPOS>SUBSTRUCTURE
     1 SER1       18 GROUP   
     2 ALA2        7 GROUP   
     3 LYS4       14 GROUP   
     4 PHE5        5 GROUP   
     5 GLY6        1 GROUP   
     6 CUB7        2 GROUP   
@<TRIPOS>SET

