#    Name: 2a2d_ANP_1_INTS_M
#    Modification time : Mon Mar 24 18:14:54 2014

@<TRIPOS>MOLECULE
2a2d_ANP_1_INTS_M
   63     0    12     0     0
SMALL
NO_CHARGES


@<TRIPOS>ATOM
      1 Zn         17.3420   76.3000   -2.8720 Zn        3 ZIC7        0.0000 
      2 Zn         17.1000   77.2140   -2.2950 Zn       11 ZIL7        0.0000 
      3 Zn         17.5840   75.3860   -3.4490 Zn        7 ZIP7        0.0000 
      4 NZ         14.3525   78.3435   -1.4795 N.4       2 LYC4        0.0000 
      5 NZ         15.7900   78.5950   -0.7160 N.4      10 LYL4        0.0000 
      6 NZ         12.9150   78.0920   -2.2430 N.4       6 LYP4        0.0000 
      7 N          15.8995   79.9620   -0.1715 N.am      1 SEC2        0.0000 
      8 N          15.7900   78.5950   -0.7160 N.am      9 SEL2        0.0000 
      9 N          16.0090   81.3290    0.3730 N.am      5 SEP2        0.0000 
     10 NZ         18.0640   76.9485    1.6680 N.4       2 LYC4        0.0000 
     11 NZ         17.2200   76.8330    0.1660 N.4      10 LYL4        0.0000 
     12 NZ         18.9080   77.0640    3.1700 N.4       6 LYP4        0.0000 
     13 N          18.0610   75.8875    0.5870 N.am      1 SEC2        0.0000 
     14 N          17.2200   76.8330    0.1660 N.am      9 SEL2        0.0000 
     15 N          18.9020   74.9420    1.0080 N.am      5 SEP2        0.0000 
     16 N          18.2150   75.9645   -0.9495 N.am      1 SEC2        0.0000 
     17 N          19.2100   75.0960   -2.0650 N.am      5 SEP2        0.0000 
     18 Zn         16.7305   74.7220   -2.8685 Zn        3 ZIC7        0.0000 
     19 Zn         15.8770   74.0580   -2.2880 Zn       11 ZIL7        0.0000 
     20 N          16.2620   72.6335   -2.6355 N.am      1 SEC2        0.0000 
     21 N          15.8770   74.0580   -2.2880 N.am      9 SEL2        0.0000 
     22 N          16.6470   71.2090   -2.9830 N.am      5 SEP2        0.0000 
     23 N          12.1745   74.5105   -0.9410 N.am      1 SEC2        0.0000 
     24 N          13.6820   73.8720   -1.1840 N.am      9 SEL2        0.0000 
     25 N          10.6670   75.1490   -0.6980 N.am      5 SEP2        0.0000 
     26 N          14.9735   73.8840   -0.0690 N.am      1 SEC2        0.0000 
     27 N          16.2650   73.8960    1.0460 N.am      5 SEP2        0.0000 
     28 N          14.8350   72.7115   -0.8220 N.am      1 SEC2        0.0000 
     29 N          15.9880   71.5510   -0.4600 N.am      5 SEP2        0.0000 
     30 N          13.7045   72.5300   -1.5560 N.am      1 SEC2        0.0000 
     31 N          13.7270   71.1880   -1.9280 N.am      5 SEP2        0.0000 
     32 N          13.6320   77.1430   -6.4625 N.am      1 SEC2        0.0000 
     33 N          13.9540   75.7960   -5.7200 N.am      9 SEL2        0.0000 
     34 N          13.3100   78.4900   -7.2050 N.am      5 SEP2        0.0000 
     35 Zn         16.8120   75.2440   -4.0985 Zn        3 ZIC7        0.0000 
     36 Zn         16.0400   75.1020   -4.7480 Zn       11 ZIL7        0.0000 
     37 CA         11.9520   73.7110   -4.2635 C.3       4 GLC5        0.0000 
     38 CA         13.1770   72.7530   -5.5230 C.3      12 GLL5        0.0000 
     39 CA         10.7270   74.6690   -3.0040 C.3       8 GLP5        0.0000 
     40 CA         10.9520   68.1365   -7.5710 C.3       4 GLC5        0.0000 
     41 CA         12.4050   69.6090   -7.3350 C.3      12 GLL5        0.0000 
     42 CA          9.4990   66.6640   -7.8070 C.3       8 GLP5        0.0000 
     43 CA         12.5425   67.9520   -8.6165 C.3       4 GLC5        0.0000 
     44 CA         12.6800   66.2950   -9.8980 C.3       8 GLP5        0.0000 
     45 CA         14.9740   69.5720   -7.8975 C.3       4 GLC5        0.0000 
     46 CA         13.6660   69.2910   -6.5440 C.3      12 GLL5        0.0000 
     47 CA         16.2820   69.8530   -9.2510 C.3       8 GLP5        0.0000 
     48 CA         15.1435   67.7480   -6.6855 C.3       4 GLC5        0.0000 
     49 CA         16.6210   66.2050   -6.8270 C.3       8 GLP5        0.0000 
     50 N          12.2390   63.2710   -5.9080 N.am      1 SEC2        0.0000 
     51 N          12.6040   64.5470   -5.4380 N.am      9 SEL2        0.0000 
     52 N          11.8740   61.9950   -6.3780 N.am      5 SEP2        0.0000 
     53 CA         12.7935   65.7090   -8.2630 C.3       4 GLC5        0.0000 
     54 CA         12.9070   65.1230   -6.6280 C.3      12 GLL5        0.0000 
     55 CA         14.7640   65.6640   -6.7275 C.3       4 GLC5        0.0000 
     56 CA         12.9030   66.6635   -7.7585 C.3       4 GLC5        0.0000 
     57 CA         13.1260   67.0320   -5.6190 C.3      12 GLL5        0.0000 
     58 CA         14.8735   66.6185   -6.2230 C.3       4 GLC5        0.0000 
     59 CA         15.2867   72.2570   -5.5570 C.3       4 GLC5        0.0000 
     60 CA         13.2740   71.5850   -6.4890 C.3      12 GLL5        0.0000 
     61 CA         17.3480   72.3450   -5.1080 C.3       8 GLP5        0.0000 
     62 CA         14.0522   70.7561   -8.1724 C.3       4 GLC5        0.0000 
     63 CA         15.5960   71.0680   -9.3470 C.3       8 GLP5        0.0000 
@<TRIPOS>BOND
@<TRIPOS>SUBSTRUCTURE
     1 SEC2        7 GROUP        1 X    SEC  0     ROOT SEC X 2
     2 LYC4        4 GROUP        1 X    LYC  0     **** LYC X 4
     3 ZIC7        1 GROUP        1 X    ZIC  0     **** ZIC X 5
     4 GLC5       37 GROUP        1 X    GLC  0     **** GLC X 6
     5 SEP2        9 GROUP        1 Y    SEP  0     ROOT SEP Y 9
     6 LYP4        6 GROUP        1 Y    LYP  0     **** LYP Y 11
     7 ZIP7        3 GROUP        1 Y    ZIP  0     **** ZIP Y 12
     8 GLP5       39 GROUP        1 Y    GLP  0     **** GLP Y 13
     9 SEL2        8 GROUP        1 Z    SEL  0     ROOT SEL Z 16
    10 LYL4        5 GROUP        1 Z    LYL  0     **** LYL Z 18
    11 ZIL7        2 GROUP        1 Z    ZIL  0     **** ZIL Z 19
    12 GLL5       38 GROUP        1 Z    GLL  0     **** GLL Z 20
@<TRIPOS>SET

