#    Name: 2a2d_ANP_1_ligand
#    Modification time : Mon Mar 24 18:14:54 2014

@<TRIPOS>MOLECULE
2a2d_ANP_1_ligand
   42    44     1     0     0
SMALL
NO_CHARGES


@<TRIPOS>ATOM
      1 PG         16.2610   77.1950   -1.0610 P.3       1 ANP461      0.0000 
      2 O1G        17.1000   77.2140   -2.2950 O.co2     1 ANP461      0.0000 
      3 O2G        15.7900   78.5950   -0.7160 O.co2     1 ANP461      0.0000 
      4 O3G        17.2200   76.8330    0.1660 O.co2     1 ANP461      0.0000 
      5 PB         14.5740   74.7460   -2.0300 P.3       1 ANP461      0.0000 
      6 O1B        15.8770   74.0580   -2.2880 O.co2     1 ANP461      0.0000 
      7 O2B        13.6820   73.8720   -1.1840 O.co2     1 ANP461      0.0000 
      8 N3B        14.9480   76.1750   -1.2690 N.4       1 ANP461      0.0000 
      9 PA         14.5730   74.7920   -4.8810 P.3       1 ANP461      0.0000 
     10 O1A        13.9540   75.7960   -5.7200 O.co2     1 ANP461      0.0000 
     11 O2A        16.0400   75.1020   -4.7480 O.co2     1 ANP461      0.0000 
     12 O3A        13.8640   74.8340   -3.4400 O.3       1 ANP461      0.0000 
     13 O5'        14.4140   73.4330   -5.6450 O.3       1 ANP461      0.0000 
     14 C5'        13.1770   72.7530   -5.5230 C.3       1 ANP461      0.0000 
     15 C4'        13.2740   71.5850   -6.4890 C.3       1 ANP461      0.0000 
     16 O4'        14.1260   70.4860   -6.0270 O.3       1 ANP461      0.0000 
     17 C3'        11.9500   70.9740   -6.8320 C.3       1 ANP461      0.0000 
     18 O3'        11.3420   71.8350   -7.8060 O.3       1 ANP461      0.0000 
     19 C2'        12.4050   69.6090   -7.3350 C.3       1 ANP461      0.0000 
     20 O2'        12.7180   69.7000   -8.7180 O.3       1 ANP461      0.0000 
     21 C1'        13.6660   69.2910   -6.5440 C.3       1 ANP461      0.0000 
     22 N9         13.3630   68.3710   -5.4580 N.pl3     1 ANP461      0.0000 
     23 C8         13.1910   68.6170   -4.1300 C.2       1 ANP461      0.0000 
     24 N7         12.8170   67.5390   -3.4340 N.2       1 ANP461      0.0000 
     25 C5         12.7800   66.5360   -4.3810 C.ar      1 ANP461      0.0000 
     26 C6         12.4820   65.1690   -4.2630 C.ar      1 ANP461      0.0000 
     27 N6         12.1580   64.4960   -3.2590 N.pl3     1 ANP461      0.0000 
     28 N1         12.6040   64.5470   -5.4380 N.ar      1 ANP461      0.0000 
     29 C2         12.9070   65.1230   -6.6280 C.ar      1 ANP461      0.0000 
     30 N3         13.2040   66.3750   -6.7730 N.ar      1 ANP461      0.0000 
     31 C4         13.1260   67.0320   -5.6190 C.ar      1 ANP461      0.0000 
     32 H          12.3394   73.3665   -5.8184 H         1 ANP461      0.0000 
     33 H          13.0208   72.3580   -4.5306 H         1 ANP461      0.0000 
     34 H          13.7028   71.9640   -7.4430 H         1 ANP461      0.0000 
     35 H          11.4059   70.8594   -5.9443 H         1 ANP461      0.0000 
     36 H          11.6662   68.8967   -7.1103 H         1 ANP461      0.0000 
     37 H          14.3717   68.8490   -7.2241 H         1 ANP461      0.0000 
     38 H          13.3336   69.5195   -3.7278 H         1 ANP461      0.0000 
     39 H          12.8928   64.4777   -7.4910 H         1 ANP461      0.0000 
     40 H          10.3683   71.8367   -7.5779 H         1 ANP461      0.0000 
     41 H          12.2153   70.5003   -9.0449 H         1 ANP461      0.0000 
     42 H          11.6575   63.7111   -3.6242 H         1 ANP461      0.0000 
@<TRIPOS>BOND
     1    2    1 ar   
     2    3    1 ar   
     3    4    1 ar   
     4    8    1 1    
     5    6    5 ar   
     6    7    5 ar   
     7    8    5 1    
     8   12    5 1    
     9   10    9 ar   
    10   11    9 ar   
    11   12    9 1    
    12   13    9 1    
    13   14   13 1    
    14   15   14 1    
    15   32   14 1    
    16   33   14 1    
    17   16   15 1    
    18   17   15 1    
    19   34   15 1    
    20   21   16 1    
    21   18   17 1    
    22   19   17 1    
    23   35   17 1    
    24   40   18 1    
    25   20   19 1    
    26   21   19 1    
    27   36   19 1    
    28   41   20 1    
    29   22   21 1    
    30   37   21 1    
    31   23   22 1    
    32   31   22 1    
    33   24   23 2    
    34   38   23 1    
    35   25   24 1    
    36   26   25 ar   
    37   31   25 ar   
    38   27   26 1    
    39   28   26 ar   
    40   42   27 1    
    41   29   28 ar   
    42   30   29 ar   
    43   39   29 1    
    44   31   30 ar   
@<TRIPOS>SUBSTRUCTURE
     1 ANP461      1 GROUP   
@<TRIPOS>SET

