#    Name: 2ati_IHU_1_INTS_M
#    Modification time : Mon Mar 24 19:38:31 2014

@<TRIPOS>MOLECULE
2ati_IHU_1_INTS_M
   65     0     9     0     0
SMALL
NO_CHARGES


@<TRIPOS>ATOM
      1 CA         20.1560   85.6435  102.0410 C.3       3 GLC5        0.0000 
      2 CA         18.6200   84.1510  102.6240 C.3       9 GLL5        0.0000 
      3 CA         21.6920   87.1360  101.4580 C.3       6 GLP5        0.0000 
      4 CA         17.5885   83.9780  100.6660 C.3       3 GLC5        0.0000 
      5 CA         16.5570   83.8050   98.7080 C.3       6 GLP5        0.0000 
      6 CA         16.4490   84.7820  100.6190 C.3       3 GLC5        0.0000 
      7 CA         16.3410   85.7590  102.5300 C.3       9 GLL5        0.0000 
      8 CA         13.1265   86.8385  104.9965 C.3       3 GLC5        0.0000 
      9 CA         14.9710   87.2270  103.8580 C.3       9 GLL5        0.0000 
     10 CA         11.2820   86.4500  106.1350 C.3       6 GLP5        0.0000 
     11 N          12.1385   88.0620  104.4395 N.am      2 SEC2        0.0000 
     12 N          13.7660   87.8140  104.0900 N.am      8 SEL2        0.0000 
     13 N          10.5110   88.3100  104.7890 N.am      5 SEP2        0.0000 
     14 O          13.8320   88.0860  105.6430 O.2       1 ALC1        0.0000 
     15 O          13.7660   87.8140  104.0900 O.2       7 ALL1        0.0000 
     16 O          13.8980   88.3580  107.1960 O.2       4 ALP1        0.0000 
     17 O          13.7015   88.8065  104.8340 O.2       1 ALC1        0.0000 
     18 O          13.6370   89.7990  105.5780 O.2       4 ALP1        0.0000 
     19 O          19.9875   88.5825  108.0145 O.2       1 ALC1        0.0000 
     20 O          19.6590   87.9350  106.8600 O.2       7 ALL1        0.0000 
     21 O          20.3160   89.2300  109.1690 O.2       4 ALP1        0.0000 
     22 CA         25.1830   87.4660  110.7290 C.3       3 GLC5        0.0000 
     23 CA         24.3610   87.3670  108.6740 C.3       9 GLL5        0.0000 
     24 CA         26.0050   87.5650  112.7840 C.3       6 GLP5        0.0000 
     25 CA         26.5795   88.2895  108.4490 C.3       3 GLC5        0.0000 
     26 CA         25.5140   87.3100  109.3690 C.3       9 GLL5        0.0000 
     27 CA         27.6450   89.2690  107.5290 C.3       6 GLP5        0.0000 
     28 CA         26.4570   87.5925  110.7830 C.3       3 GLC5        0.0000 
     29 CA         27.4000   87.8750  112.1970 C.3       6 GLP5        0.0000 
     30 CA         23.0420   89.7025  106.8080 C.3       3 GLC5        0.0000 
     31 CA         23.2630   88.5160  105.0220 C.3       9 GLL5        0.0000 
     32 CA         22.8210   90.8890  108.5940 C.3       6 GLP5        0.0000 
     33 CA         24.5045   89.4150  104.2620 C.3       3 GLC5        0.0000 
     34 CA         25.7460   90.3140  103.5020 C.3       6 GLP5        0.0000 
     35 CA         21.7415   89.9465  104.4395 C.3       3 GLC5        0.0000 
     36 CA         20.2200   91.3770  103.8570 C.3       6 GLP5        0.0000 
     37 CA         23.2285   87.9550  103.3660 C.3       3 GLC5        0.0000 
     38 CA         23.1940   87.3940  101.7100 C.3       6 GLP5        0.0000 
     39 CA         16.7832   86.0015  105.6402 C.3       3 GLC5        0.0000 
     40 CA         17.4350   86.0360  103.3460 C.3       9 GLL5        0.0000 
     41 CA         16.2000   85.5320  107.3950 C.3       6 GLP5        0.0000 
     42 CA         17.1460   86.9703  101.3635 C.3       3 GLC5        0.0000 
     43 CA         17.4040   88.0430   99.7890 C.3       6 GLP5        0.0000 
     44 CA         15.4008   84.8838  104.3928 C.3       3 GLC5        0.0000 
     45 CA         15.0770   83.7120  106.1280 C.3       6 GLP5        0.0000 
     46 CA         15.0793   87.9608  101.8537 C.3       3 GLC5        0.0000 
     47 CA         15.1080   86.3520  102.7850 C.3       9 GLL5        0.0000 
     48 CA         15.1190   89.1320  100.3860 C.3       6 GLP5        0.0000 
     49 CA         15.8587   86.4488  105.8310 C.3       3 GLC5        0.0000 
     50 CA         17.2650   89.2400  104.6803 C.3       3 GLC5        0.0000 
     51 CA         16.0640   87.5040  104.6760 C.3       9 GLL5        0.0000 
     52 CA         17.8490   91.2750  104.8100 C.3       6 GLP5        0.0000 
     53 CA         22.6588   88.7202  109.4702 C.3       3 GLC5        0.0000 
     54 CA         21.9940   86.9830  108.5100 C.3       9 GLL5        0.0000 
     55 CA         22.7360   90.4750  110.0580 C.3       6 GLP5        0.0000 
     56 CA         20.9763   86.0397  109.7038 C.3       3 GLC5        0.0000 
     57 CA         23.1690   86.9480  109.2550 C.3       9 GLL5        0.0000 
     58 CA         19.3710   85.1140  110.5250 C.3       6 GLP5        0.0000 
     59 CA         23.8368   88.9067  109.5398 C.3       3 GLC5        0.0000 
     60 CA         26.5757   86.3088  108.3453 C.3       3 GLC5        0.0000 
     61 CA         28.2140   85.2790  107.6690 C.3       6 GLP5        0.0000 
     62 CA         24.7983   85.5534  109.6214 C.3       3 GLC5        0.0000 
     63 CA         24.9570   83.8730  110.0760 C.3       6 GLP5        0.0000 
     64 CA         23.1550   89.3120  107.8639 C.3       3 GLC5        0.0000 
     65 CA         24.3770   87.8240  107.3610 C.3       9 GLL5        0.0000 
@<TRIPOS>BOND
@<TRIPOS>SUBSTRUCTURE
     1 ALC1       14 GROUP        1 X    ALC  0     ROOT ALC X 1
     2 SEC2       11 GROUP        1 X    SEC  0     **** SEC X 2
     3 GLC5        1 GROUP        1 X    GLC  0     **** GLC X 6
     4 ALP1       16 GROUP        1 Y    ALP  0     ROOT ALP Y 8
     5 SEP2       13 GROUP        1 Y    SEP  0     **** SEP Y 9
     6 GLP5        3 GROUP        1 Y    GLP  0     **** GLP Y 13
     7 ALL1       15 GROUP        1 Z    ALL  0     ROOT ALL Z 15
     8 SEL2       12 GROUP        1 Z    SEL  0     **** SEL Z 16
     9 GLL5        2 GROUP        1 Z    GLL  0     **** GLL Z 20
@<TRIPOS>SET

