#    Name: 2ati_IHU_1_ligand
#    Modification time : Mon Mar 24 19:38:32 2014

@<TRIPOS>MOLECULE
2ati_IHU_1_ligand
   35    36     1     0     0
SMALL
NO_CHARGES


@<TRIPOS>ATOM
      1 C51        18.6200   84.1510  102.6240 C.3       1 IHU848      0.0000 
      2 O54        18.6630   85.5030  103.0930 O.3       1 IHU848      0.0000 
      3 C19        17.4350   86.0360  103.3460 C.ar      1 IHU848      0.0000 
      4 C20        16.3410   85.7590  102.5300 C.ar      1 IHU848      0.0000 
      5 C21        15.1080   86.3520  102.7850 C.ar      1 IHU848      0.0000 
      6 C22        14.9710   87.2270  103.8580 C.ar      1 IHU848      0.0000 
      7 O55        13.7660   87.8140  104.0900 O.3       1 IHU848      0.0000 
      8 C23        16.0640   87.5040  104.6760 C.ar      1 IHU848      0.0000 
      9 C18        17.2980   86.9060  104.4250 C.ar      1 IHU848      0.0000 
     10 N17        18.3780   87.1190  105.1770 N.am      1 IHU848      0.0000 
     11 C15        18.4660   87.8760  106.2700 C.2       1 IHU848      0.0000 
     12 O16        17.4960   88.4630  106.7490 O.2       1 IHU848      0.0000 
     13 N14        19.6590   87.9350  106.8600 N.am      1 IHU848      0.0000 
     14 C12        20.7200   87.2970  106.3680 C.2       1 IHU848      0.0000 
     15 O13        20.7240   86.6670  105.3110 O.2       1 IHU848      0.0000 
     16 C3         22.0030   87.4310  107.1920 C.ar      1 IHU848      0.0000 
     17 C4         21.9940   86.9830  108.5100 C.ar      1 IHU848      0.0000 
     18 C5         23.1690   86.9480  109.2550 C.ar      1 IHU848      0.0000 
     19 C6         24.3610   87.3670  108.6740 C.ar      1 IHU848      0.0000 
     20 F10        25.5140   87.3100  109.3690 F         1 IHU848      0.0000 
     21 C1         24.3770   87.8240  107.3610 C.ar      1 IHU848      0.0000 
     22 C2         23.1990   87.8610  106.6210 C.ar      1 IHU848      0.0000 
     23 CL11       23.2630   88.5160  105.0220 Cl        1 IHU848      0.0000 
     24 H          16.4451   85.1130  101.7351 H         1 IHU848      0.0000 
     25 H          14.3027   86.1444  102.1835 H         1 IHU848      0.0000 
     26 H          15.9606   88.1522  105.4684 H         1 IHU848      0.0000 
     27 H          19.2993   86.6132  104.8595 H         1 IHU848      0.0000 
     28 H          19.7672   88.5063  107.7469 H         1 IHU848      0.0000 
     29 H          21.1073   86.6739  108.9387 H         1 IHU848      0.0000 
     30 H          23.1555   86.6160  110.2242 H         1 IHU848      0.0000 
     31 H          25.2603   88.1353  106.9355 H         1 IHU848      0.0000 
     32 H          19.5357   83.7894  102.4487 H         1 IHU848      0.0000 
     33 H          18.1862   83.5414  103.2875 H         1 IHU848      0.0000 
     34 H          18.1046   84.0701  101.7709 H         1 IHU848      0.0000 
     35 H          13.8509   88.2299  104.9954 H         1 IHU848      0.0000 
@<TRIPOS>BOND
     1    2    1 1    
     2   32    1 1    
     3   33    1 1    
     4   34    1 1    
     5    3    2 1    
     6    4    3 ar   
     7    9    3 ar   
     8    5    4 ar   
     9   24    4 1    
    10    6    5 ar   
    11   25    5 1    
    12    7    6 1    
    13    8    6 ar   
    14   35    7 1    
    15    9    8 ar   
    16   26    8 1    
    17   10    9 1    
    18   11   10 1    
    19   27   10 1    
    20   12   11 2    
    21   13   11 1    
    22   14   13 1    
    23   28   13 1    
    24   15   14 2    
    25   16   14 1    
    26   17   16 ar   
    27   22   16 ar   
    28   18   17 ar   
    29   29   17 1    
    30   19   18 ar   
    31   30   18 1    
    32   20   19 1    
    33   21   19 ar   
    34   22   21 ar   
    35   31   21 1    
    36   23   22 1    
@<TRIPOS>SUBSTRUCTURE
     1 IHU848      1 GROUP   
@<TRIPOS>SET

