#    Name: 2WWG_1_CAVITY_N1_ALL.mol2
#    Modification time : Mon Mar 10 21:18:33 2014

@<TRIPOS>MOLECULE
2WWG_1_CAVITY_N1_ALL.mol2
   93     0     7     0     0
SMALL
NO_CHARGES


@<TRIPOS>ATOM
      1 O          17.8388  -10.2750  -10.5255 O.2       2 ALA2        0.0000 
      2 O          16.6207  -10.8307   -7.8408 O.2       2 ALA2        0.0000 
      3 NZ         16.0117  -11.1086   -6.4985 N.2       4 LYS4        0.0000 
      4 OG         17.4470  -10.9106  -12.5110 O.2       1 SER1        0.0000 
      5 O          16.8379  -11.1885  -11.1687 O.2       2 ALA2        0.0000 
      6 O          16.2289  -11.4663   -9.8264 O.2       2 ALA2        0.0000 
      7 NZ         15.6198  -11.7442   -8.4840 N.2       4 LYS4        0.0000 
      8 CA         17.6641  -11.2683  -15.8389 C.3       6 GLY6        0.0000 
      9 OG         17.0551  -11.5462  -14.4966 O.2       1 SER1        0.0000 
     10 OG         16.4461  -11.8241  -13.1542 O.2       1 SER1        0.0000 
     11 OG         15.8370  -12.1020  -11.8119 O.2       1 SER1        0.0000 
     12 OD1        15.2280  -12.3798  -10.4696 O.3       3 ASP3        0.0000 
     13 NZ         14.6190  -12.6577   -9.1272 N.2       4 LYS4        0.0000 
     14 O          15.4452  -12.7376  -13.7975 O.2       2 ALA2        0.0000 
     15 OD1        14.8361  -13.0154  -12.4551 O.3       3 ASP3        0.0000 
     16 O          19.3845  -11.1539  -11.6823 O.2       2 ALA2        0.0000 
     17 DU         18.9926  -11.7895  -13.6679 H         7 CUB7        0.0000 
     18 O          18.3836  -12.0674  -12.3255 O.2       2 ALA2        0.0000 
     19 O          17.7746  -12.3453  -10.9832 O.2       2 ALA2        0.0000 
     20 OG         18.6008  -12.4251  -15.6534 O.2       1 SER1        0.0000 
     21 CA         17.9917  -12.7030  -14.3111 C.3       6 GLY6        0.0000 
     22 CA         17.3827  -12.9809  -12.9688 C.3       6 GLY6        0.0000 
     23 CA         16.7737  -13.2588  -11.6264 C.3       6 GLY6        0.0000 
     24 CA         16.9908  -13.6165  -14.9543 C.3       6 GLY6        0.0000 
     25 O          16.3818  -13.8944  -13.6120 O.2       2 ALA2        0.0000 
     26 OD1        15.7728  -14.1723  -12.2697 O.3       3 ASP3        0.0000 
     27 OG         20.9302  -12.0329  -12.8392 O.2       1 SER1        0.0000 
     28 CA         20.3211  -12.3108  -11.4968 C.3       6 GLY6        0.0000 
     29 OG         20.5383  -12.6685  -14.8247 O.2       1 SER1        0.0000 
     30 DU         19.9293  -12.9464  -13.4824 H         7 CUB7        0.0000 
     31 CA         19.3202  -13.2243  -12.1401 C.3       6 GLY6        0.0000 
     32 OG         19.5374  -13.5820  -15.4680 O.2       1 SER1        0.0000 
     33 O          18.9284  -13.8599  -14.1256 O.2       2 ALA2        0.0000 
     34 CA         18.3193  -14.1378  -12.7833 C.3       6 GLY6        0.0000 
     35 OG         21.8668  -13.1898  -12.6537 O.2       1 SER1        0.0000 
     36 CA         20.8659  -14.1032  -13.2969 C.3       6 GLY6        0.0000 
     37 CA         20.2569  -14.3811  -11.9546 C.3       6 GLY6        0.0000 
     38 O          19.8650  -15.0167  -13.9401 O.2       2 ALA2        0.0000 
     39 O          17.2940   -8.4825   -8.7254 O.2       2 ALA2        0.0000 
     40 O          16.6850   -8.7604   -7.3830 O.2       2 ALA2        0.0000 
     41 NZ         16.0760   -9.0383   -6.0407 N.2       4 LYS4        0.0000 
     42 O          16.9022   -9.1181  -10.7109 O.2       2 ALA2        0.0000 
     43 O          16.2931   -9.3960   -9.3686 O.2       2 ALA2        0.0000 
     44 OD1        15.6841   -9.6739   -8.0263 O.3       3 ASP3        0.0000 
     45 NZ         15.0751   -9.9518   -6.6839 N.2       4 LYS4        0.0000 
     46 OG         15.9013  -10.0316  -11.3542 O.2       1 SER1        0.0000 
     47 DU         15.2922  -10.3095  -10.0118 H         7 CUB7        0.0000 
     48 DU         14.6832  -10.5874   -8.6695 H         7 CUB7        0.0000 
     49 NZ         14.0742  -10.8653   -7.3272 N.2       4 LYS4        0.0000 
     50 NZ         13.4651  -11.1431   -5.9848 N.2       4 LYS4        0.0000 
     51 OG         14.9004  -10.9451  -11.9974 O.2       1 SER1        0.0000 
     52 OD1        14.2914  -11.2230  -10.6551 O.3       3 ASP3        0.0000 
     53 OD1        13.6823  -11.5009   -9.3127 O.3       3 ASP3        0.0000 
     54 NZ         13.0733  -11.7788   -7.9704 N.2       4 LYS4        0.0000 
     55 OG         13.8995  -11.8586  -12.6406 O.2       1 SER1        0.0000 
     56 O          11.8733   -7.1168   -9.2259 O.2       2 ALA2        0.0000 
     57 CZ         12.0905   -7.4745  -12.5538 C.ar      5 PHE5        0.0000 
     58 CZ         11.4814   -7.7524  -11.2115 C.ar      5 PHE5        0.0000 
     59 O          10.8724   -8.0303   -9.8692 O.2       2 ALA2        0.0000 
     60 CA         10.2634   -8.3082   -8.5268 C.3       6 GLY6        0.0000 
     61 CA         11.0896   -8.3880  -13.1970 C.3       6 GLY6        0.0000 
     62 CA         10.4805   -8.6659  -11.8547 C.3       6 GLY6        0.0000 
     63 N           9.8715   -8.9438  -10.5124 N.2       2 ALA2        0.0000 
     64 O          14.4199   -7.0823   -9.7396 O.2       2 ALA2        0.0000 
     65 DU         14.0280   -7.7179  -11.7251 H         7 CUB7        0.0000 
     66 O          13.4190   -7.9958  -10.3828 O.2       2 ALA2        0.0000 
     67 O          12.8099   -8.2737   -9.0405 O.2       2 ALA2        0.0000 
     68 OG         13.6361   -8.3535  -13.7107 O.2       1 SER1        0.0000 
     69 OG         13.0271   -8.6314  -12.3683 O.2       1 SER1        0.0000 
     70 DU         12.4181   -8.9093  -11.0260 H         7 CUB7        0.0000 
     71 O          11.8090   -9.1872   -9.6837 O.2       2 ALA2        0.0000 
     72 O          11.2000   -9.4650   -8.3413 O.2       2 ALA2        0.0000 
     73 NZ         12.0262   -9.5449  -13.0116 N.2       4 LYS4        0.0000 
     74 NZ         11.4172   -9.8228  -11.6692 N.2       4 LYS4        0.0000 
     75 N          10.8081  -10.1007  -10.3269 N.2       2 ALA2        0.0000 
     76 N          10.1991  -10.3785   -8.9846 N.2       2 ALA2        0.0000 
     77 NZ         15.7484   -7.6035   -7.5685 N.2       4 LYS4        0.0000 
     78 DU         15.9655   -7.9613  -10.8964 H         7 CUB7        0.0000 
     79 DU         15.3565   -8.2391   -9.5541 H         7 CUB7        0.0000 
     80 O          14.7475   -8.5170   -8.2117 O.2       2 ALA2        0.0000 
     81 OG         14.9646   -8.8748  -11.5396 O.2       1 SER1        0.0000 
     82 DU         14.3556   -9.1526  -10.1973 H         7 CUB7        0.0000 
     83 O          13.7466   -9.4305   -8.8550 O.2       2 ALA2        0.0000 
     84 O          13.1375   -9.7084   -7.5126 O.2       2 ALA2        0.0000 
     85 O          12.5285   -9.9863   -6.1703 O.2       2 ALA2        0.0000 
     86 OG         13.9637   -9.7882  -12.1829 O.2       1 SER1        0.0000 
     87 DU         13.3547  -10.0661  -10.8405 H         7 CUB7        0.0000 
     88 DU         12.7457  -10.3440   -9.4982 H         7 CUB7        0.0000 
     89 O          12.1366  -10.6219   -8.1559 O.2       2 ALA2        0.0000 
     90 O          11.5276  -10.8998   -6.8135 O.2       2 ALA2        0.0000 
     91 OG         12.9629  -10.7017  -12.8261 O.2       1 SER1        0.0000 
     92 NZ         12.3538  -10.9796  -11.4838 N.2       4 LYS4        0.0000 
     93 O          11.7448  -11.2575  -10.1414 O.2       2 ALA2        0.0000 
@<TRIPOS>BOND
@<TRIPOS>SUBSTRUCTURE
     1 SER1        4 GROUP   
     2 ALA2        1 GROUP   
     3 ASP3       12 GROUP   
     4 LYS4        3 GROUP   
     5 PHE5       57 GROUP   
     6 GLY6        8 GROUP   
     7 CUB7       17 GROUP   
@<TRIPOS>SET

