#    Name: 2wwg_ADP_1_INTS_M
#    Modification time : Tue Mar 25 04:45:59 2014

@<TRIPOS>MOLECULE
2wwg_ADP_1_INTS_M
   58     0    12     0     0
SMALL
NO_CHARGES


@<TRIPOS>ATOM
      1 NZ         13.9130  -13.6385  -12.3935 N.4       3 LYC4        0.0000 
      2 NZ         15.0600  -12.6540  -13.6960 N.4      11 LYL4        0.0000 
      3 NZ         12.7660  -14.6230  -11.0910 N.4       7 LYP4        0.0000 
      4 N          14.6050  -12.7885  -14.9685 N.am      2 SEC2        0.0000 
      5 N          15.0600  -12.6540  -13.6960 N.am     10 SEL2        0.0000 
      6 N          14.1500  -12.9230  -16.2410 N.am      6 SEP2        0.0000 
      7 N          14.8370  -11.5095  -14.4005 N.am      2 SEC2        0.0000 
      8 N          14.6140  -10.3650  -15.1050 N.am      6 SEP2        0.0000 
      9 NZ         13.9110  -14.8265  -11.9640 N.4       3 LYC4        0.0000 
     10 NZ         15.0560  -15.0300  -12.8370 N.4      11 LYL4        0.0000 
     11 N          14.8855  -15.3530  -14.0985 N.am      2 SEC2        0.0000 
     12 N          15.0560  -15.0300  -12.8370 N.am     10 SEL2        0.0000 
     13 N          14.7150  -15.6760  -15.3600 N.am      6 SEP2        0.0000 
     14 N          13.9110  -14.8265  -11.9640 N.am      2 SEC2        0.0000 
     15 N          12.7660  -14.6230  -11.0910 N.am      6 SEP2        0.0000 
     16 NZ         14.3590  -13.8865  -11.2485 N.4       3 LYC4        0.0000 
     17 NZ         15.9520  -13.1500  -11.4060 N.4      11 LYL4        0.0000 
     18 N          16.5360  -14.2335  -10.3715 N.am      2 SEC2        0.0000 
     19 N          15.9520  -13.1500  -11.4060 N.am     10 SEL2        0.0000 
     20 N          17.1200  -15.3170   -9.3370 N.am      6 SEP2        0.0000 
     21 N          16.6675  -12.8750  -17.1225 N.am      2 SEC2        0.0000 
     22 N          17.2160  -13.2470  -15.8160 N.am     10 SEL2        0.0000 
     23 N          16.1190  -12.5030  -18.4290 N.am      6 SEP2        0.0000 
     24 N          17.9730  -13.3000  -16.9880 N.am      2 SEC2        0.0000 
     25 N          18.7300  -13.3530  -18.1600 N.am      6 SEP2        0.0000 
     26 N          17.1745  -15.2285  -13.8345 N.am      2 SEC2        0.0000 
     27 N          17.2100  -13.8740  -13.3450 N.am     10 SEL2        0.0000 
     28 N          17.1390  -16.5830  -14.3240 N.am      6 SEP2        0.0000 
     29 CA         19.2390  -14.3820  -11.7250 C.3       4 GLC5        0.0000 
     30 CA         20.1750  -13.4040  -13.2620 C.3      12 GLL5        0.0000 
     31 CA         18.3030  -15.3600  -10.1880 C.3       8 GLP5        0.0000 
     32 CA         22.2600  -15.1500  -13.1370 C.3       4 GLC5        0.0000 
     33 CA         21.6570  -13.1960  -13.5590 C.3      12 GLL5        0.0000 
     34 CA         22.8630  -17.1040  -12.7150 C.3       8 GLP5        0.0000 
     35 CA         22.7235  -15.7245  -14.0470 C.3       4 GLC5        0.0000 
     36 CA         22.5840  -14.3450  -15.3790 C.3      12 GLL5        0.0000 
     37 CA         23.7330  -20.3505  -17.9570 C.3       4 GLC5        0.0000 
     38 CA         22.4110  -18.6550  -17.8900 C.3      12 GLL5        0.0000 
     39 CA         25.0550  -22.0460  -18.0240 C.3       8 GLP5        0.0000 
     40 O          21.7980  -20.9835  -18.9600 O.2       1 ALC1        0.0000 
     41 O          21.5590  -19.5250  -18.4960 O.2       9 ALL1        0.0000 
     42 O          22.0370  -22.4420  -19.4240 O.2       5 ALP1        0.0000 
     43 CA         23.7080  -17.1085  -19.0990 C.3       4 GLC5        0.0000 
     44 CA         24.5930  -17.9680  -17.2220 C.3      12 GLL5        0.0000 
     45 CA         22.8230  -16.2490  -20.9760 C.3       8 GLP5        0.0000 
     46 CA         26.3560  -17.7945  -17.8230 C.3       4 GLC5        0.0000 
     47 CA         28.1190  -17.6210  -18.4240 C.3       8 GLP5        0.0000 
     48 CA         25.2670  -19.7020  -17.0890 C.3       4 GLC5        0.0000 
     49 CA         25.9410  -21.4360  -16.9560 C.3       8 GLP5        0.0000 
     50 CA         22.8400  -16.8125  -14.6640 C.3       4 GLC5        0.0000 
     51 CA         22.8170  -16.5210  -16.6130 C.3      12 GLL5        0.0000 
     52 CA         22.8200  -16.3850  -18.7945 C.3       4 GLC5        0.0000 
     53 CA         22.9007  -11.9195  -12.7527 C.3       4 GLC5        0.0000 
     54 CA         21.8800  -12.1880  -14.6900 C.3      12 GLL5        0.0000 
     55 CA         24.0330  -11.1470  -11.3810 C.3       8 GLP5        0.0000 
     56 CA         21.9572  -17.7275  -19.3265 C.3       4 GLC5        0.0000 
     57 CA         21.8660  -17.4330  -17.2640 C.3      12 GLL5        0.0000 
     58 CA         21.7760  -17.4110  -21.0760 C.3       8 GLP5        0.0000 
@<TRIPOS>BOND
@<TRIPOS>SUBSTRUCTURE
     1 ALC1       40 GROUP        1 X    ALC  0     ROOT ALC X 1
     2 SEC2        4 GROUP        1 X    SEC  0     **** SEC X 2
     3 LYC4        1 GROUP        1 X    LYC  0     **** LYC X 4
     4 GLC5       29 GROUP        1 X    GLC  0     **** GLC X 6
     5 ALP1       42 GROUP        1 Y    ALP  0     ROOT ALP Y 8
     6 SEP2        6 GROUP        1 Y    SEP  0     **** SEP Y 9
     7 LYP4        3 GROUP        1 Y    LYP  0     **** LYP Y 11
     8 GLP5       31 GROUP        1 Y    GLP  0     **** GLP Y 13
     9 ALL1       41 GROUP        1 Z    ALL  0     ROOT ALL Z 15
    10 SEL2        5 GROUP        1 Z    SEL  0     **** SEL Z 16
    11 LYL4        2 GROUP        1 Z    LYL  0     **** LYL Z 18
    12 GLL5       30 GROUP        1 Z    GLL  0     **** GLL Z 20
@<TRIPOS>SET

