#    Name: 2wwg_ADP_1_ligand
#    Modification time : Tue Mar 25 04:45:59 2014

@<TRIPOS>MOLECULE
2wwg_ADP_1_ligand
   39    41     1     0     0
SMALL
NO_CHARGES


@<TRIPOS>ATOM
      1 PB         15.7000  -13.6720  -12.7890 P.3       1 ADP212      0.0000 
      2 O1B        15.0600  -12.6540  -13.6960 O.co2     1 ADP212      0.0000 
      3 O2B        15.0560  -15.0300  -12.8370 O.co2     1 ADP212      0.0000 
      4 O3B        15.9520  -13.1500  -11.4060 O.co2     1 ADP212      0.0000 
      5 PA         17.9000  -12.9550  -14.5000 P.3       1 ADP212      0.0000 
      6 O1A        17.2160  -13.2470  -15.8160 O.co2     1 ADP212      0.0000 
      7 O2A        18.0150  -11.5200  -14.0620 O.co2     1 ADP212      0.0000 
      8 O3A        17.2100  -13.8740  -13.3450 O.3       1 ADP212      0.0000 
      9 O5'        19.4080  -13.5090  -14.4720 O.3       1 ADP212      0.0000 
     10 C5'        20.1750  -13.4040  -13.2620 C.3       1 ADP212      0.0000 
     11 C4'        21.6570  -13.1960  -13.5590 C.3       1 ADP212      0.0000 
     12 O4'        22.1720  -14.4380  -14.0100 O.3       1 ADP212      0.0000 
     13 C3'        21.8800  -12.1880  -14.6900 C.3       1 ADP212      0.0000 
     14 O3'        23.0650  -11.3890  -14.4930 O.3       1 ADP212      0.0000 
     15 C2'        22.0590  -13.0290  -15.9310 C.3       1 ADP212      0.0000 
     16 O2'        23.0240  -12.3970  -16.7690 O.3       1 ADP212      0.0000 
     17 C1'        22.5840  -14.3450  -15.3790 C.3       1 ADP212      0.0000 
     18 N9         22.0700  -15.5150  -16.1260 N.pl3     1 ADP212      0.0000 
     19 C8         20.7840  -15.7470  -16.4230 C.2       1 ADP212      0.0000 
     20 N7         20.6500  -16.9030  -17.1150 N.2       1 ADP212      0.0000 
     21 C5         21.8660  -17.4330  -17.2640 C.ar      1 ADP212      0.0000 
     22 C6         22.4110  -18.6550  -17.8900 C.ar      1 ADP212      0.0000 
     23 N6         21.5590  -19.5250  -18.4960 N.pl3     1 ADP212      0.0000 
     24 N1         23.7630  -18.8460  -17.8310 N.ar      1 ADP212      0.0000 
     25 C2         24.5930  -17.9680  -17.2220 C.ar      1 ADP212      0.0000 
     26 N3         24.1530  -16.8390  -16.6310 N.ar      1 ADP212      0.0000 
     27 C4         22.8170  -16.5210  -16.6130 C.ar      1 ADP212      0.0000 
     28 H          20.0797  -14.3132  -12.6464 H         1 ADP212      0.0000 
     29 H          19.8340  -12.5583  -12.6430 H         1 ADP212      0.0000 
     30 H          22.1521  -12.8592  -12.6852 H         1 ADP212      0.0000 
     31 H          21.0010  -11.6031  -14.8040 H         1 ADP212      0.0000 
     32 H          21.1282  -13.1833  -16.3783 H         1 ADP212      0.0000 
     33 H          23.6656  -14.3227  -15.4370 H         1 ADP212      0.0000 
     34 H          20.0344  -15.1623  -16.1756 H         1 ADP212      0.0000 
     35 H          21.9722  -20.3521  -18.8771 H         1 ADP212      0.0000 
     36 H          20.5946  -19.2608  -18.5070 H         1 ADP212      0.0000 
     37 H          25.6321  -18.1784  -17.2102 H         1 ADP212      0.0000 
     38 H          23.4086  -11.6537  -13.5920 H         1 ADP212      0.0000 
     39 H          23.4092  -11.6619  -16.2111 H         1 ADP212      0.0000 
@<TRIPOS>BOND
     1    2    1 ar   
     2    3    1 ar   
     3    4    1 ar   
     4    8    1 1    
     5    6    5 ar   
     6    7    5 ar   
     7    8    5 1    
     8    9    5 1    
     9   10    9 1    
    10   11   10 1    
    11   28   10 1    
    12   29   10 1    
    13   12   11 1    
    14   13   11 1    
    15   30   11 1    
    16   17   12 1    
    17   14   13 1    
    18   15   13 1    
    19   31   13 1    
    20   38   14 1    
    21   16   15 1    
    22   17   15 1    
    23   32   15 1    
    24   39   16 1    
    25   18   17 1    
    26   33   17 1    
    27   19   18 1    
    28   27   18 1    
    29   20   19 2    
    30   34   19 1    
    31   21   20 1    
    32   22   21 ar   
    33   27   21 ar   
    34   23   22 1    
    35   24   22 ar   
    36   35   23 1    
    37   36   23 1    
    38   25   24 ar   
    39   26   25 ar   
    40   37   25 1    
    41   27   26 ar   
@<TRIPOS>SUBSTRUCTURE
     1 ADP212      1 GROUP   
@<TRIPOS>SET

