#    Name: 3ZID_1_CAVITY_N1_6.mol2
#    Modification time : Tue Mar 11 14:45:04 2014

@<TRIPOS>MOLECULE
3ZID_1_CAVITY_N1_6.mol2
  109     0     6     0     0
SMALL
NO_CHARGES


@<TRIPOS>ATOM
      1 O          16.7392  -21.2231  -15.5283 O.2       2 ALA2        0.0000 
      2 NZ         15.4454  -21.0382  -16.2643 N.2       3 LYS4        0.0000 
      3 DU         16.1893  -20.4404  -17.4216 H         6 CUB7        0.0000 
      4 DU         16.9331  -19.8426  -18.5789 H         6 CUB7        0.0000 
      5 OG         17.6770  -19.2448  -19.7362 O.2       1 SER1        0.0000 
      6 CA         14.1516  -20.8533  -17.0004 C.3       5 GLY6        0.0000 
      7 DU         14.8954  -20.2555  -18.1577 H         6 CUB7        0.0000 
      8 N          15.6393  -19.6577  -19.3150 N.2       2 ALA2        0.0000 
      9 N          16.3832  -19.0599  -20.4723 N.2       2 ALA2        0.0000 
     10 CA         12.8578  -20.6683  -17.7365 C.3       5 GLY6        0.0000 
     11 O          13.6016  -20.0705  -18.8938 O.2       2 ALA2        0.0000 
     12 OG         10.8201  -21.0812  -17.3153 O.2       1 SER1        0.0000 
     13 OG         11.5639  -20.4834  -18.4726 O.2       1 SER1        0.0000 
     14 O          12.3078  -19.8856  -19.6299 O.2       2 ALA2        0.0000 
     15 OG         10.2701  -20.2985  -19.2087 O.2       1 SER1        0.0000 
     16 O          21.9577  -19.2191  -15.0272 O.2       2 ALA2        0.0000 
     17 O          19.3701  -18.8492  -16.4994 O.2       2 ALA2        0.0000 
     18 CA         16.5886  -19.8599  -14.9209 C.3       5 GLY6        0.0000 
     19 O          17.3324  -19.2621  -16.0782 O.2       2 ALA2        0.0000 
     20 O          18.0763  -18.6643  -17.2355 O.2       2 ALA2        0.0000 
     21 OG         18.8201  -18.0665  -18.3928 O.2       1 SER1        0.0000 
     22 NZ         15.2947  -19.6749  -15.6570 N.2       3 LYS4        0.0000 
     23 DU         16.0386  -19.0771  -16.8143 H         6 CUB7        0.0000 
     24 DU         16.7825  -18.4794  -17.9716 H         6 CUB7        0.0000 
     25 OG         17.5263  -17.8816  -19.1289 O.2       1 SER1        0.0000 
     26 OG         18.2702  -17.2838  -20.2862 O.2       1 SER1        0.0000 
     27 NZ         14.0009  -19.4900  -16.3931 N.2       3 LYS4        0.0000 
     28 DU         14.7448  -18.8922  -17.5504 H         6 CUB7        0.0000 
     29 N          15.4886  -18.2944  -18.7077 N.2       2 ALA2        0.0000 
     30 N          16.2325  -17.6967  -19.8650 N.2       2 ALA2        0.0000 
     31 CA         16.9764  -17.0989  -21.0223 C.3       5 GLY6        0.0000 
     32 OG         12.7071  -19.3051  -17.1292 O.2       1 SER1        0.0000 
     33 N          13.4510  -18.7073  -18.2865 N.2       2 ALA2        0.0000 
     34 OG         12.1571  -18.5224  -19.0226 O.2       1 SER1        0.0000 
     35 O          21.0632  -18.4536  -13.2626 O.2       2 ALA2        0.0000 
     36 OG         21.8071  -17.8558  -14.4199 O.2       1 SER1        0.0000 
     37 OG         23.2948  -16.6603  -16.7345 O.2       1 SER1        0.0000 
     38 O          20.5132  -17.6709  -15.1560 O.2       2 ALA2        0.0000 
     39 OG         21.2571  -17.0731  -16.3133 O.2       1 SER1        0.0000 
     40 OG         22.0010  -16.4753  -17.4706 O.2       1 SER1        0.0000 
     41 O          19.2194  -17.4860  -15.8921 O.2       2 ALA2        0.0000 
     42 OG         19.9633  -16.8882  -17.0494 O.2       1 SER1        0.0000 
     43 CA         17.1817  -17.8988  -15.4709 C.3       5 GLY6        0.0000 
     44 DU         17.9256  -17.3010  -16.6282 H         6 CUB7        0.0000 
     45 OG         18.6695  -16.7033  -17.7855 O.2       1 SER1        0.0000 
     46 CA         15.1441  -18.3117  -15.0497 C.3       5 GLY6        0.0000 
     47 CA         15.8879  -17.7139  -16.2070 C.3       5 GLY6        0.0000 
     48 DU         16.6318  -17.1161  -17.3643 H         6 CUB7        0.0000 
     49 CA         17.3756  -16.5183  -18.5216 C.3       5 GLY6        0.0000 
     50 CZ         18.1195  -15.9205  -19.6789 C.ar      4 PHE5        0.0000 
     51 N          13.8502  -18.1268  -15.7858 N.2       2 ALA2        0.0000 
     52 DU         14.5941  -17.5290  -16.9431 H         6 CUB7        0.0000 
     53 O          15.3380  -16.9312  -18.1004 O.2       2 ALA2        0.0000 
     54 O          16.0818  -16.3334  -19.2577 O.2       2 ALA2        0.0000 
     55 OG         12.5564  -17.9418  -16.5219 O.2       1 SER1        0.0000 
     56 OG         13.3003  -17.3440  -17.6792 O.2       1 SER1        0.0000 
     57 CZ         22.0557  -15.9120  -11.3119 C.ar      4 PHE5        0.0000 
     58 CZ         23.5434  -14.7165  -13.6265 C.ar      4 PHE5        0.0000 
     59 CA         20.7619  -15.7271  -12.0480 C.3       5 GLY6        0.0000 
     60 CA         21.5057  -15.1293  -13.2053 C.3       5 GLY6        0.0000 
     61 OG         22.2496  -14.5315  -14.3626 O.2       1 SER1        0.0000 
     62 NZ         22.9934  -13.9338  -15.5199 N.2       3 LYS4        0.0000 
     63 CA         20.2119  -14.9444  -13.9414 C.3       5 GLY6        0.0000 
     64 OG         20.9558  -14.3466  -15.0986 O.2       1 SER1        0.0000 
     65 NZ         21.6996  -13.7488  -16.2559 N.2       3 LYS4        0.0000 
     66 NZ         22.4435  -13.1510  -17.4132 N.2       3 LYS4        0.0000 
     67 OG         18.9181  -14.7595  -14.6774 O.2       1 SER1        0.0000 
     68 OG         19.6619  -14.1617  -15.8347 O.2       1 SER1        0.0000 
     69 OG         20.4058  -13.5639  -16.9920 O.2       1 SER1        0.0000 
     70 CA         21.1497  -12.9661  -18.1493 C.3       5 GLY6        0.0000 
     71 O          16.8804  -15.1723  -14.2562 O.2       2 ALA2        0.0000 
     72 OG         17.6243  -14.5745  -15.4135 O.2       1 SER1        0.0000 
     73 O          15.5866  -14.9874  -14.9923 O.2       2 ALA2        0.0000 
     74 OG         16.3304  -14.3896  -16.1496 O.2       1 SER1        0.0000 
     75 O          14.2928  -14.8025  -15.7284 O.2       2 ALA2        0.0000 
     76 CA         15.0366  -14.2047  -16.8857 C.3       5 GLY6        0.0000 
     77 O          12.4585  -21.2489  -20.2372 O.2       2 ALA2        0.0000 
     78 O          20.9125  -17.0904  -12.6553 O.2       2 ALA2        0.0000 
     79 OG         21.6564  -16.4926  -13.8126 O.2       1 SER1        0.0000 
     80 NZ         23.1441  -15.2970  -16.1272 N.2       3 LYS4        0.0000 
     81 CA         19.6187  -16.9054  -13.3914 C.3       5 GLY6        0.0000 
     82 DU         20.3626  -16.3076  -14.5487 H         6 CUB7        0.0000 
     83 OG         21.1064  -15.7099  -15.7060 O.2       1 SER1        0.0000 
     84 NZ         21.8503  -15.1121  -16.8633 N.2       3 LYS4        0.0000 
     85 NZ         22.5941  -14.5143  -18.0206 N.2       3 LYS4        0.0000 
     86 CA         18.3249  -16.7205  -14.1275 C.3       5 GLY6        0.0000 
     87 DU         19.0687  -16.1227  -15.2848 H         6 CUB7        0.0000 
     88 DU         19.8126  -15.5249  -16.4421 H         6 CUB7        0.0000 
     89 CZ         20.5565  -14.9271  -17.5994 C.ar      4 PHE5        0.0000 
     90 CA         17.0311  -16.5356  -14.8636 C.3       5 GLY6        0.0000 
     91 OG         17.7749  -15.9378  -16.0209 O.2       1 SER1        0.0000 
     92 CA         18.5188  -15.3400  -17.1782 C.3       5 GLY6        0.0000 
     93 CA         19.2626  -14.7422  -18.3355 C.3       5 GLY6        0.0000 
     94 O          15.7372  -16.3506  -15.5997 O.2       2 ALA2        0.0000 
     95 CA         16.4811  -15.7529  -16.7570 C.3       5 GLY6        0.0000 
     96 CA         13.6996  -16.7635  -15.1785 C.3       5 GLY6        0.0000 
     97 O          14.4434  -16.1657  -16.3358 O.2       2 ALA2        0.0000 
     98 O          15.1873  -15.5679  -17.4930 O.2       2 ALA2        0.0000 
     99 CZ         23.1988  -14.7337   -9.9685 C.ar      4 PHE5        0.0000 
    100 CA         21.9050  -14.5488  -10.7046 C.3       5 GLY6        0.0000 
    101 O          22.6489  -13.9510  -11.8618 O.2       2 ALA2        0.0000 
    102 CA         21.3550  -13.7661  -12.5979 C.3       5 GLY6        0.0000 
    103 O          22.0989  -13.1683  -13.7552 O.2       2 ALA2        0.0000 
    104 O          22.8428  -12.5705  -14.9125 O.2       2 ALA2        0.0000 
    105 NZ         23.5866  -11.9727  -16.0698 N.2       3 LYS4        0.0000 
    106 CA         20.8051  -12.9834  -14.4913 C.3       5 GLY6        0.0000 
    107 CA         21.5489  -12.3856  -15.6486 C.3       5 GLY6        0.0000 
    108 CA         22.2928  -11.7878  -16.8059 C.3       5 GLY6        0.0000 
    109 OG         20.2551  -12.2006  -16.3847 O.2       1 SER1        0.0000 
@<TRIPOS>BOND
@<TRIPOS>SUBSTRUCTURE
     1 SER1        5 GROUP   
     2 ALA2        1 GROUP   
     3 LYS4        2 GROUP   
     4 PHE5       50 GROUP   
     5 GLY6        6 GROUP   
     6 CUB7        3 GROUP   
@<TRIPOS>SET

