#    Name: 3zid_GDP_1_INTS_M
#    Modification time : Tue Mar 25 03:26:29 2014

@<TRIPOS>MOLECULE
3zid_GDP_1_INTS_M
   68     0     9     0     0
SMALL
NO_CHARGES


@<TRIPOS>ATOM
      1 N          13.3535  -14.5130  -17.1465 N.am      2 SEC2        0.0000 
      2 N          14.5220  -14.6100  -15.8800 N.am      8 SEL2        0.0000 
      3 N          12.1850  -14.4160  -18.4130 N.am      5 SEP2        0.0000 
      4 N          13.3690  -13.8250  -15.8345 N.am      2 SEC2        0.0000 
      5 N          12.2160  -13.0400  -15.7890 N.am      5 SEP2        0.0000 
      6 N          14.7915  -16.9955  -13.9950 N.am      2 SEC2        0.0000 
      7 N          14.7230  -17.0450  -15.4270 N.am      8 SEL2        0.0000 
      8 N          14.8600  -16.9460  -12.5630 N.am      5 SEP2        0.0000 
      9 N          14.4540  -15.1675  -18.7860 N.am      2 SEC2        0.0000 
     10 N          14.3520  -16.2070  -17.7460 N.am      8 SEL2        0.0000 
     11 N          14.5560  -14.1280  -19.8260 N.am      5 SEP2        0.0000 
     12 N          13.2685  -15.3115  -18.0795 N.am      2 SEC2        0.0000 
     13 N          17.2115  -15.4115  -12.8550 N.am      2 SEC2        0.0000 
     14 N          17.1100  -15.0130  -14.2780 N.am      8 SEL2        0.0000 
     15 N          17.3130  -15.8100  -11.4320 N.am      5 SEP2        0.0000 
     16 N          18.2540  -13.2545  -15.6980 N.am      2 SEC2        0.0000 
     17 N          18.5470  -14.4380  -16.2560 N.am      8 SEL2        0.0000 
     18 N          17.9610  -12.0710  -15.1400 N.am      5 SEP2        0.0000 
     19 CA         18.2940  -14.0980  -17.8430 C.3       3 GLC5        0.0000 
     20 CA         19.8660  -14.7310  -16.6900 C.3       9 GLL5        0.0000 
     21 CA         16.7220  -13.4650  -18.9960 C.3       6 GLP5        0.0000 
     22 CA         20.6445  -15.3605  -18.6350 C.3       3 GLC5        0.0000 
     23 CA         21.4230  -15.9900  -20.5800 C.3       6 GLP5        0.0000 
     24 N          19.3735  -12.8605  -14.9555 N.am      2 SEC2        0.0000 
     25 N          20.7860  -13.6500  -14.7710 N.am      8 SEL2        0.0000 
     26 CA         22.4620  -14.7395  -18.5690 C.3       3 GLC5        0.0000 
     27 CA         22.1770  -13.8760  -16.6660 C.3       9 GLL5        0.0000 
     28 CA         22.7470  -15.6030  -20.4720 C.3       6 GLP5        0.0000 
     29 O          23.9630  -12.6095  -17.5190 O.2       1 ALC1        0.0000 
     30 O          22.8250  -12.6080  -16.7410 O.2       7 ALL1        0.0000 
     31 O          25.1010  -12.6110  -18.2970 O.2       4 ALP1        0.0000 
     32 O          23.9605  -13.6915  -17.3225 O.2       1 ALC1        0.0000 
     33 O          25.0960  -14.7750  -17.9040 O.2       4 ALP1        0.0000 
     34 N          24.3430  -15.7315  -14.9050 N.am      2 SEC2        0.0000 
     35 N          24.1540  -14.5180  -15.4790 N.am      8 SEL2        0.0000 
     36 N          24.5320  -16.9450  -14.3310 N.am      5 SEP2        0.0000 
     37 O          24.6250  -14.6465  -16.6915 O.2       1 ALC1        0.0000 
     38 O          24.1540  -14.5180  -15.4790 O.2       7 ALL1        0.0000 
     39 CA         20.4385  -13.9665  -12.9440 C.3       3 GLC5        0.0000 
     40 CA         22.0820  -14.0650  -14.3280 C.3       9 GLL5        0.0000 
     41 CA         18.7950  -13.8680  -11.5600 C.3       6 GLP5        0.0000 
     42 CA         20.4260  -12.6715  -14.3120 C.3       3 GLC5        0.0000 
     43 CA         18.7700  -11.2780  -14.2960 C.3       6 GLP5        0.0000 
     44 CA         20.2435  -14.8375  -11.3585 C.3       3 GLC5        0.0000 
     45 CA         21.6920  -15.8070  -11.1570 C.3       9 GLL5        0.0000 
     46 N          21.8265  -16.3930   -7.5625 N.am      2 SEC2        0.0000 
     47 N          21.5740  -16.6430   -8.9670 N.am      8 SEL2        0.0000 
     48 N          22.0790  -16.1430   -6.1580 N.am      5 SEP2        0.0000 
     49 O          22.5875  -14.3425   -7.9935 O.2       1 ALC1        0.0000 
     50 O          22.5660  -14.6500   -9.2450 O.2       7 ALL1        0.0000 
     51 O          22.6090  -14.0350   -6.7420 O.2       4 ALP1        0.0000 
     52 O          24.4475  -11.7185  -10.2840 O.2       1 ALC1        0.0000 
     53 O          23.6240  -12.6110   -9.4680 O.2       7 ALL1        0.0000 
     54 O          25.2710  -10.8260  -11.1000 O.2       4 ALP1        0.0000 
     55 O          23.1165  -13.3230   -8.1050 O.2       1 ALC1        0.0000 
     56 N          23.8120  -12.8000  -12.1915 N.am      2 SEC2        0.0000 
     57 N          22.8000  -13.6410  -11.3800 N.am      8 SEL2        0.0000 
     58 N          24.8240  -11.9590  -13.0030 N.am      5 SEP2        0.0000 
     59 CA         20.9455  -13.6425  -11.3290 C.3       3 GLC5        0.0000 
     60 CA         22.1610  -14.6780  -11.9650 C.3       9 GLL5        0.0000 
     61 CA         19.7300  -12.6070  -10.6930 C.3       6 GLP5        0.0000 
     62 CA         19.5445  -12.7245  -15.3703 C.3       3 GLC5        0.0000 
     63 CA         20.7720  -13.6110  -16.1990 C.3       9 GLL5        0.0000 
     64 CA         20.9498  -12.2407  -17.7583 C.3       3 GLC5        0.0000 
     65 CA         20.4250  -10.7380  -19.0840 C.3       6 GLP5        0.0000 
     66 CA         23.5468  -15.7238  -13.9490 C.3       3 GLC5        0.0000 
     67 CA         22.7430  -14.6940  -15.5380 C.3       9 GLL5        0.0000 
     68 CA         24.6810  -17.0680  -12.9650 C.3       6 GLP5        0.0000 
@<TRIPOS>BOND
@<TRIPOS>SUBSTRUCTURE
     1 ALC1       29 GROUP        1 X    ALC  0     ROOT ALC X 1
     2 SEC2        1 GROUP        1 X    SEC  0     **** SEC X 2
     3 GLC5       19 GROUP        1 X    GLC  0     **** GLC X 6
     4 ALP1       31 GROUP        1 Y    ALP  0     ROOT ALP Y 8
     5 SEP2        3 GROUP        1 Y    SEP  0     **** SEP Y 9
     6 GLP5       21 GROUP        1 Y    GLP  0     **** GLP Y 13
     7 ALL1       30 GROUP        1 Z    ALL  0     ROOT ALL Z 15
     8 SEL2        2 GROUP        1 Z    SEL  0     **** SEL Z 16
     9 GLL5       20 GROUP        1 Z    GLL  0     **** GLL Z 20
@<TRIPOS>SET

