#    Name: 3zid_GDP_1_ligand
#    Modification time : Tue Mar 25 03:26:29 2014

@<TRIPOS>MOLECULE
3zid_GDP_1_ligand
   40    42     1     0     0
SMALL
NO_CHARGES


@<TRIPOS>ATOM
      1 PB         15.0320  -15.9370  -16.4150 P.3       1 GDP999      0.0000 
      2 O1B        14.5220  -14.6100  -15.8800 O.co2     1 GDP999      0.0000 
      3 O2B        14.7230  -17.0450  -15.4270 O.co2     1 GDP999      0.0000 
      4 O3B        14.3520  -16.2070  -17.7460 O.co2     1 GDP999      0.0000 
      5 O3A        16.6060  -15.8310  -16.7050 O.3       1 GDP999      0.0000 
      6 PA         17.6950  -15.5820  -15.5520 P.3       1 GDP999      0.0000 
      7 O1A        18.4980  -16.8120  -15.3080 O.co2     1 GDP999      0.0000 
      8 O2A        17.1100  -15.0130  -14.2780 O.co2     1 GDP999      0.0000 
      9 O5'        18.5470  -14.4380  -16.2560 O.3       1 GDP999      0.0000 
     10 C5'        19.8660  -14.7310  -16.6900 C.3       1 GDP999      0.0000 
     11 C4'        20.7720  -13.6110  -16.1990 C.3       1 GDP999      0.0000 
     12 O4'        20.7860  -13.6500  -14.7710 O.3       1 GDP999      0.0000 
     13 C3'        22.1770  -13.8760  -16.6660 C.3       1 GDP999      0.0000 
     14 O3'        22.8250  -12.6080  -16.7410 O.3       1 GDP999      0.0000 
     15 C2'        22.7430  -14.6940  -15.5380 C.3       1 GDP999      0.0000 
     16 O2'        24.1540  -14.5180  -15.4790 O.3       1 GDP999      0.0000 
     17 C1'        22.0820  -14.0650  -14.3280 C.3       1 GDP999      0.0000 
     18 N9         21.8320  -14.9740  -13.2090 N.pl3     1 GDP999      0.0000 
     19 C8         21.1860  -16.1560  -13.2420 C.2       1 GDP999      0.0000 
     20 N7         21.0930  -16.6780  -11.9950 N.2       1 GDP999      0.0000 
     21 C5         21.6920  -15.8070  -11.1570 C.2       1 GDP999      0.0000 
     22 C6         21.9330  -15.7240   -9.7140 C.2       1 GDP999      0.0000 
     23 O6         21.5740  -16.6430   -8.9670 O.2       1 GDP999      0.0000 
     24 N1         22.5660  -14.6500   -9.2450 N.am      1 GDP999      0.0000 
     25 C2         22.9820  -13.6530  -10.0370 C.2       1 GDP999      0.0000 
     26 N2         23.6240  -12.6110   -9.4680 N.pl3     1 GDP999      0.0000 
     27 N3         22.8000  -13.6410  -11.3800 N.2       1 GDP999      0.0000 
     28 C4         22.1610  -14.6780  -11.9650 C.2       1 GDP999      0.0000 
     29 H          19.9412  -14.7721  -17.7759 H         1 GDP999      0.0000 
     30 H          20.2358  -15.6680  -16.2757 H         1 GDP999      0.0000 
     31 H          20.4331  -12.6893  -16.5727 H         1 GDP999      0.0000 
     32 H          22.1607  -14.4141  -17.5419 H         1 GDP999      0.0000 
     33 H          22.4261  -15.6826  -15.6303 H         1 GDP999      0.0000 
     34 H          22.6434  -13.2137  -14.0166 H         1 GDP999      0.0000 
     35 H          20.8329  -16.5804  -14.0488 H         1 GDP999      0.0000 
     36 H          22.7503  -14.5780   -8.1990 H         1 GDP999      0.0000 
     37 H          23.9448  -11.8981  -10.0916 H         1 GDP999      0.0000 
     38 H          23.7218  -12.6445   -8.4734 H         1 GDP999      0.0000 
     39 H          23.6382  -12.7658  -17.3011 H         1 GDP999      0.0000 
     40 H          24.5140  -15.0578  -16.2399 H         1 GDP999      0.0000 
@<TRIPOS>BOND
     1    2    1 ar   
     2    3    1 ar   
     3    4    1 ar   
     4    5    1 1    
     5    6    5 1    
     6    7    6 ar   
     7    8    6 ar   
     8    9    6 1    
     9   10    9 1    
    10   11   10 1    
    11   29   10 1    
    12   30   10 1    
    13   12   11 1    
    14   13   11 1    
    15   31   11 1    
    16   17   12 1    
    17   14   13 1    
    18   15   13 1    
    19   32   13 1    
    20   39   14 1    
    21   16   15 1    
    22   17   15 1    
    23   33   15 1    
    24   40   16 1    
    25   18   17 1    
    26   34   17 1    
    27   19   18 1    
    28   28   18 1    
    29   20   19 2    
    30   35   19 1    
    31   21   20 1    
    32   22   21 1    
    33   28   21 2    
    34   23   22 2    
    35   24   22 am   
    36   25   24 1    
    37   36   24 1    
    38   26   25 1    
    39   27   25 2    
    40   37   26 1    
    41   38   26 1    
    42   28   27 1    
@<TRIPOS>SUBSTRUCTURE
     1 GDP999      1 GROUP   
@<TRIPOS>SET

