#    Name: 2RC6_3_CAVITY_N1_6.mol2
#    Modification time : Mon Mar 10 12:55:14 2014

@<TRIPOS>MOLECULE
2RC6_3_CAVITY_N1_6.mol2
   92     0     7     0     0
SMALL
NO_CHARGES


@<TRIPOS>ATOM
      1 CA        -29.3297    0.8672   -3.7613 C.3       6 GLY6        0.0000 
      2 CZ        -28.3422   -5.5564   -6.4562 C.ar      5 PHE5        0.0000 
      3 CZ        -30.3455   -3.9182   -8.5901 C.ar      5 PHE5        0.0000 
      4 CZ        -29.8025   -5.1574   -7.9423 C.ar      5 PHE5        0.0000 
      5 CZ        -29.2596   -6.3965   -7.2944 C.ar      5 PHE5        0.0000 
      6 N         -28.7166   -7.6357   -6.6466 N.2       2 ALA2        0.0000 
      7 CA        -24.1821   -1.1565  -15.4192 C.3       6 GLY6        0.0000 
      8 CA        -25.0994   -1.9966  -16.2574 C.3       6 GLY6        0.0000 
      9 O         -25.4738   -4.0760  -16.4478 O.2       2 ALA2        0.0000 
     10 CA        -28.2744    0.7744   -4.8232 C.3       6 GLY6        0.0000 
     11 OG        -27.7314   -0.4647   -4.1753 O.2       1 SER1        0.0000 
     12 CA        -29.1917   -0.0658   -5.6614 C.3       6 GLY6        0.0000 
     13 CA        -30.4834   -2.9852   -6.6900 C.3       6 GLY6        0.0000 
     14 OG        -29.9405   -4.2244   -6.0421 O.2       1 SER1        0.0000 
     15 CZ        -30.8578   -5.0646   -6.8804 C.ar      5 PHE5        0.0000 
     16 NZ        -24.1911    1.3362   -7.1708 N.2       4 LYS4        0.0000 
     17 NZ        -24.5655   -0.7431   -7.3611 N.2       4 LYS4        0.0000 
     18 N         -24.0225   -1.9823   -6.7133 N.2       2 ALA2        0.0000 
     19 NZ        -24.9399   -2.8224   -7.5515 N.2       4 LYS4        0.0000 
     20 NZ        -25.8572   -3.6626   -8.3897 N.2       4 LYS4        0.0000 
     21 CZ        -25.3142   -4.9018   -7.7419 C.ar      5 PHE5        0.0000 
     22 CA        -27.8604   -2.0245  -10.5236 C.3       6 GLY6        0.0000 
     23 NZ        -27.3175   -3.2636   -9.8758 N.2       4 LYS4        0.0000 
     24 DU        -26.7745   -4.5028   -9.2279 H         7 CUB7        0.0000 
     25 CZ        -26.2316   -5.7419   -8.5801 C.ar      5 PHE5        0.0000 
     26 CZ        -25.6886   -6.9811   -7.9323 C.ar      5 PHE5        0.0000 
     27 CA        -28.7778   -2.8646  -11.3618 C.3       6 GLY6        0.0000 
     28 OG        -28.2348   -4.1038  -10.7140 O.2       1 SER1        0.0000 
     29 CZ        -27.6919   -5.3429  -10.0662 C.ar      5 PHE5        0.0000 
     30 N         -27.1489   -6.5821   -9.4183 N.2       2 ALA2        0.0000 
     31 N         -26.6060   -7.8213   -8.7705 N.2       2 ALA2        0.0000 
     32 OD1       -26.1637    0.5888   -6.9471 O.3       3 ASP3        0.0000 
     33 DU        -25.6208   -0.6503   -6.2992 H         7 CUB7        0.0000 
     34 CZ        -25.0778   -1.8895   -5.6514 C.ar      5 PHE5        0.0000 
     35 CA        -27.6240    0.9878   -8.4331 C.3       6 GLY6        0.0000 
     36 NZ        -27.0811   -0.2513   -7.7853 N.2       4 LYS4        0.0000 
     37 NZ        -26.5381   -1.4905   -7.1374 N.2       4 LYS4        0.0000 
     38 CZ        -25.9952   -2.7297   -6.4896 C.ar      5 PHE5        0.0000 
     39 N         -27.9984   -1.0915   -8.6235 N.2       2 ALA2        0.0000 
     40 NZ        -27.4555   -2.3307   -7.9756 N.2       4 LYS4        0.0000 
     41 CZ        -26.9125   -3.5698   -7.3278 C.ar      5 PHE5        0.0000 
     42 N         -28.9157   -1.9317   -9.4617 N.2       2 ALA2        0.0000 
     43 CZ        -28.3728   -3.1708   -8.8139 C.ar      5 PHE5        0.0000 
     44 CZ        -27.8299   -4.4100   -8.1660 C.ar      5 PHE5        0.0000 
     45 CZ        -27.2869   -5.6491   -7.5182 C.ar      5 PHE5        0.0000 
     46 CZ        -26.7440   -6.8883   -6.8703 C.ar      5 PHE5        0.0000 
     47 CA        -29.8331   -2.7718  -10.2999 C.3       6 GLY6        0.0000 
     48 CZ        -29.2901   -4.0110   -9.6521 C.ar      5 PHE5        0.0000 
     49 CZ        -28.7472   -5.2502   -9.0042 C.ar      5 PHE5        0.0000 
     50 N         -28.2042   -6.4893   -8.3564 N.2       2 ALA2        0.0000 
     51 N         -27.6613   -7.7285   -7.7085 N.2       2 ALA2        0.0000 
     52 DU        -23.1268   -1.2493  -16.4811 H         7 CUB7        0.0000 
     53 O         -23.5012   -3.3286  -16.6715 O.2       2 ALA2        0.0000 
     54 CA        -25.2374   -1.0637  -14.3573 C.3       6 GLY6        0.0000 
     55 CA        -26.1548   -1.9039  -15.1955 C.3       6 GLY6        0.0000 
     56 DU        -25.6118   -3.1430  -14.5476 H         7 CUB7        0.0000 
     57 O         -25.0689   -4.3822  -13.8998 O.2       2 ALA2        0.0000 
     58 O         -26.5292   -3.9832  -15.3858 O.2       2 ALA2        0.0000 
     59 O         -25.9862   -5.2223  -14.7380 O.2       2 ALA2        0.0000 
     60 CA        -25.4433   -6.4615  -14.0902 C.3       6 GLY6        0.0000 
     61 OG        -28.6398   -3.7976  -13.2620 O.2       1 SER1        0.0000 
     62 CA        -27.0110   -7.5151  -11.3185 C.3       6 GLY6        0.0000 
     63 OD1       -27.2190    0.6816   -5.8851 O.3       3 ASP3        0.0000 
     64 OG        -26.6761   -0.5575   -5.2373 O.2       1 SER1        0.0000 
     65 CZ        -26.1331   -1.7967   -4.5894 C.ar      5 PHE5        0.0000 
     66 CA        -28.1364   -0.1585   -6.7233 C.3       6 GLY6        0.0000 
     67 OG        -27.5934   -1.3977   -6.0755 O.2       1 SER1        0.0000 
     68 CZ        -27.0505   -2.6369   -5.4276 C.ar      5 PHE5        0.0000 
     69 N         -29.0537   -0.9987   -7.5615 N.2       2 ALA2        0.0000 
     70 OG        -28.5108   -2.2379   -6.9137 O.2       1 SER1        0.0000 
     71 CZ        -27.9678   -3.4770   -6.2659 C.ar      5 PHE5        0.0000 
     72 O         -29.4281   -3.0780   -7.7519 O.2       2 ALA2        0.0000 
     73 CZ        -28.8852   -4.3172   -7.1041 C.ar      5 PHE5        0.0000 
     74 NZ        -25.7498   -2.2101  -12.6475 N.2       4 LYS4        0.0000 
     75 NZ        -25.2068   -3.4492  -11.9996 N.2       4 LYS4        0.0000 
     76 NZ        -24.6639   -4.6884  -11.3518 N.2       4 LYS4        0.0000 
     77 OG        -27.2101   -1.8111  -14.1335 O.2       1 SER1        0.0000 
     78 OG        -26.6671   -3.0502  -13.4857 O.2       1 SER1        0.0000 
     79 DU        -26.1242   -4.2894  -12.8379 H         7 CUB7        0.0000 
     80 CA        -25.5812   -5.5285  -12.1900 C.3       6 GLY6        0.0000 
     81 DU        -25.0383   -6.7677  -11.5422 H         7 CUB7        0.0000 
     82 O         -27.5845   -3.8904  -14.3239 O.2       2 ALA2        0.0000 
     83 CA        -27.0415   -5.1295  -13.6761 C.3       6 GLY6        0.0000 
     84 CA        -25.9556   -7.6079  -12.3804 C.3       6 GLY6        0.0000 
     85 NZ        -24.8019   -3.7554   -9.4517 N.2       4 LYS4        0.0000 
     86 NZ        -26.2622   -3.3564  -10.9377 N.2       4 LYS4        0.0000 
     87 NZ        -25.7192   -4.5956  -10.2899 N.2       4 LYS4        0.0000 
     88 DU        -25.1763   -5.8347   -9.6420 H         7 CUB7        0.0000 
     89 OG        -27.7225   -2.9574  -12.4238 O.2       1 SER1        0.0000 
     90 OG        -27.1795   -4.1966  -11.7759 O.2       1 SER1        0.0000 
     91 DU        -26.6366   -5.4357  -11.1281 H         7 CUB7        0.0000 
     92 DU        -26.0936   -6.6749  -10.4802 H         7 CUB7        0.0000 
@<TRIPOS>BOND
@<TRIPOS>SUBSTRUCTURE
     1 SER1       11 GROUP   
     2 ALA2        6 GROUP   
     3 ASP3       32 GROUP   
     4 LYS4       16 GROUP   
     5 PHE5        2 GROUP   
     6 GLY6        1 GROUP   
     7 CUB7       24 GROUP   
@<TRIPOS>SET

