#    Name: 2rc6_FAD_3_INTS_M
#    Modification time : Mon Mar 24 23:37:54 2014

@<TRIPOS>MOLECULE
2rc6_FAD_3_INTS_M
   88     0    12     0     0
SMALL
NO_CHARGES


@<TRIPOS>ATOM
      1 NZ        -24.6705   -5.0755  -17.0760 N.4       3 LYC4        0.0000 
      2 NZ        -24.0160   -4.2500  -15.9300 N.4      11 LYL4        0.0000 
      3 NZ        -26.0460   -6.9270  -17.7900 N.4       7 LYP4        0.0000 
      4 N         -24.6705   -5.0755  -17.0760 N.am      2 SEC2        0.0000 
      5 N         -24.0160   -4.2500  -15.9300 N.am     10 SEL2        0.0000 
      6 N         -25.3250   -5.9010  -18.2220 N.am      6 SEP2        0.0000 
      7 N         -26.4955   -1.9550  -17.5290 N.am      2 SEC2        0.0000 
      8 N         -25.1930   -2.5140  -17.3070 N.am     10 SEL2        0.0000 
      9 N         -27.7980   -1.3960  -17.7510 N.am      6 SEP2        0.0000 
     10 CA        -25.1415    0.3180  -12.7325 C.3       4 GLC5        0.0000 
     11 CA        -23.3840    0.4700  -14.0820 C.3      12 GLL5        0.0000 
     12 CA        -26.8990    0.1660  -11.3830 C.3       8 GLP5        0.0000 
     13 O         -24.8575    1.6055  -13.2200 O.2       1 ALC1        0.0000 
     14 O         -23.3580    1.3060  -12.9530 O.2       9 ALL1        0.0000 
     15 O         -26.3570    1.9050  -13.4870 O.2       5 ALP1        0.0000 
     16 O         -24.0475    1.1860  -11.9770 O.2       1 ALC1        0.0000 
     17 O         -24.7370    1.0660  -11.0010 O.2       5 ALP1        0.0000 
     18 CA        -20.5250    3.2955  -15.5935 C.3       4 GLC5        0.0000 
     19 CA        -19.8760    1.8940  -17.1180 C.3      12 GLL5        0.0000 
     20 CA        -21.1740    4.6970  -14.0690 C.3       8 GLP5        0.0000 
     21 N         -31.6175   -2.0390   -7.5805 N.am      2 SEC2        0.0000 
     22 N         -30.7230   -3.1990   -7.3710 N.am     10 SEL2        0.0000 
     23 N         -32.5120   -0.8790   -7.7900 N.am      6 SEP2        0.0000 
     24 O         -32.3940   -4.4765   -5.5600 O.2       1 ALC1        0.0000 
     25 O         -31.1560   -4.9610   -6.0230 O.2       9 ALL1        0.0000 
     26 O         -33.6320   -3.9920   -5.0970 O.2       5 ALP1        0.0000 
     27 N         -31.6040   -8.3935   -5.0350 N.am      2 SEC2        0.0000 
     28 N         -31.4770   -6.7870   -4.7240 N.am     10 SEL2        0.0000 
     29 N         -31.7310  -10.0000   -5.3460 N.am      6 SEP2        0.0000 
     30 N         -30.4865   -9.0220   -5.4655 N.am      2 SEC2        0.0000 
     31 N         -29.2420   -8.0440   -5.5850 N.am     10 SEL2        0.0000 
     32 CA        -25.8390  -11.9975   -3.7345 C.3       4 GLC5        0.0000 
     33 CA        -26.1570  -11.8420   -5.5650 C.3      12 GLL5        0.0000 
     34 CA        -25.5210  -12.1530   -1.9040 C.3       8 GLP5        0.0000 
     35 CA        -26.0435   -5.8020   -6.8750 C.3       4 GLC5        0.0000 
     36 CA        -26.9250   -6.0720   -8.5870 C.3      12 GLL5        0.0000 
     37 CA        -25.1620   -5.5320   -5.1630 C.3       8 GLP5        0.0000 
     38 O         -28.1375   -8.5355   -9.6930 O.2       1 ALC1        0.0000 
     39 O         -27.0970   -7.8860  -10.1480 O.2       9 ALL1        0.0000 
     40 O         -29.1780   -9.1850   -9.2380 O.2       5 ALP1        0.0000 
     41 CA        -27.2845   -6.7095  -12.8110 C.3       4 GLC5        0.0000 
     42 CA        -26.8610   -5.7060  -11.0760 C.3      12 GLL5        0.0000 
     43 CA        -27.7080   -7.7130  -14.5460 C.3       8 GLP5        0.0000 
     44 CA        -28.9450   -5.9620  -11.2180 C.3       4 GLC5        0.0000 
     45 CA        -31.0290   -6.2180  -11.3600 C.3       8 GLP5        0.0000 
     46 CA        -29.0950   -5.0460  -10.4680 C.3       4 GLC5        0.0000 
     47 CA        -27.1770   -4.2250  -10.9090 C.3      12 GLL5        0.0000 
     48 CA        -31.0130   -5.8670  -10.0270 C.3       8 GLP5        0.0000 
     49 O         -29.5505   -4.6975  -11.5300 O.2       1 ALC1        0.0000 
     50 O         -28.5660   -4.0460  -10.7550 O.2       9 ALL1        0.0000 
     51 O         -30.5350   -5.3490  -12.3050 O.2       5 ALP1        0.0000 
     52 CA        -28.6445   -2.5060  -12.3480 C.3       4 GLC5        0.0000 
     53 CA        -26.7050   -3.4230  -12.1160 C.3      12 GLL5        0.0000 
     54 CA        -30.5840   -1.5890  -12.5800 C.3       8 GLP5        0.0000 
     55 NZ        -26.8960   -5.5895  -16.2155 N.4       3 LYC4        0.0000 
     56 NZ        -27.2220   -4.2730  -15.8610 N.4      11 LYL4        0.0000 
     57 N         -26.8960   -5.5895  -16.2155 N.am      2 SEC2        0.0000 
     58 N         -27.2220   -4.2730  -15.8610 N.am     10 SEL2        0.0000 
     59 N         -26.5700   -6.9060  -16.5700 N.am      6 SEP2        0.0000 
     60 N         -28.4755   -3.9530  -16.4935 N.am      2 SEC2        0.0000 
     61 N         -29.7290   -3.6330  -17.1260 N.am      6 SEP2        0.0000 
     62 N         -29.5375   -2.6330  -14.6295 N.am      2 SEC2        0.0000 
     63 N         -28.1450   -2.2930  -14.6710 N.am     10 SEL2        0.0000 
     64 N         -30.9300   -2.9730  -14.5880 N.am      6 SEP2        0.0000 
     65 N         -28.9330   -1.5095  -13.9855 N.am      2 SEC2        0.0000 
     66 N         -29.7210   -0.7260  -13.3000 N.am      6 SEP2        0.0000 
     67 CA        -25.0927    0.5777  -15.4548 C.3       4 GLC5        0.0000 
     68 CA        -26.9580    0.2740  -16.2150 C.3       8 GLP5        0.0000 
     69 CA        -21.7458    2.9645  -14.7093 C.3       4 GLC5        0.0000 
     70 CA        -23.0710    1.2930  -15.3070 C.3      12 GLL5        0.0000 
     71 CA        -22.2353    3.0185  -16.4537 C.3       4 GLC5        0.0000 
     72 CA        -21.5640    1.1710  -15.3920 C.3      12 GLL5        0.0000 
     73 CA        -22.1530    4.8050  -17.5580 C.3       8 GLP5        0.0000 
     74 CA        -20.9982    3.3505  -17.6840 C.3       4 GLC5        0.0000 
     75 CA        -29.6785   -9.5025   -6.7837 C.3       4 GLC5        0.0000 
     76 CA        -28.0910   -8.6350   -6.0620 C.3      12 GLL5        0.0000 
     77 CA        -31.4530   -9.7430   -7.7400 C.3       8 GLP5        0.0000 
     78 CA        -27.2360  -11.6925   -7.6528 C.3       4 GLC5        0.0000 
     79 CA        -26.5610  -10.4900   -6.0680 C.3      12 GLL5        0.0000 
     80 CA        -28.1130  -12.2190   -9.4890 C.3       8 GLP5        0.0000 
     81 CA        -26.6337  -11.1925   -8.3778 C.3       4 GLC5        0.0000 
     82 CA        -25.7790   -9.8390   -7.0120 C.3      12 GLL5        0.0000 
     83 CA        -24.2157   -8.6795   -6.3167 C.3       4 GLC5        0.0000 
     84 CA        -23.2770   -7.1930   -5.3670 C.3       8 GLP5        0.0000 
     85 CA        -25.0038   -7.7375   -6.3053 C.3       4 GLC5        0.0000 
     86 CA        -26.1510   -8.5850   -7.4800 C.3      12 GLL5        0.0000 
     87 CA        -29.1000   -6.0855   -9.6460 C.3       4 GLC5        0.0000 
     88 CA        -26.9200   -1.8290  -11.4477 C.3       4 GLC5        0.0000 
@<TRIPOS>BOND
@<TRIPOS>SUBSTRUCTURE
     1 ALC1       13 GROUP        1 X    ALC  0     ROOT ALC X 1
     2 SEC2        4 GROUP        1 X    SEC  0     **** SEC X 2
     3 LYC4        1 GROUP        1 X    LYC  0     **** LYC X 4
     4 GLC5       10 GROUP        1 X    GLC  0     **** GLC X 6
     5 ALP1       15 GROUP        1 Y    ALP  0     ROOT ALP Y 8
     6 SEP2        6 GROUP        1 Y    SEP  0     **** SEP Y 9
     7 LYP4        3 GROUP        1 Y    LYP  0     **** LYP Y 11
     8 GLP5       12 GROUP        1 Y    GLP  0     **** GLP Y 13
     9 ALL1       14 GROUP        1 Z    ALL  0     ROOT ALL Z 15
    10 SEL2        5 GROUP        1 Z    SEL  0     **** SEL Z 16
    11 LYL4        2 GROUP        1 Z    LYL  0     **** LYL Z 18
    12 GLL5       11 GROUP        1 Z    GLL  0     **** GLL Z 20
@<TRIPOS>SET

