#    Name: 2rc6_FAD_3_ligand
#    Modification time : Mon Mar 24 23:37:54 2014

@<TRIPOS>MOLECULE
2rc6_FAD_3_ligand
   84    89     1     0     0
SMALL
NO_CHARGES


@<TRIPOS>ATOM
      1 PA        -24.5700   -2.8470  -15.9730 P.3       1 FAD415      0.0000 
      2 O1A       -24.0160   -4.2500  -15.9300 O.co2     1 FAD415      0.0000 
      3 O2A       -25.1930   -2.5140  -17.3070 O.co2     1 FAD415      0.0000 
      4 O5B       -23.4260   -1.7890  -15.6070 O.3       1 FAD415      0.0000 
      5 C5B       -22.7460   -1.9150  -14.3790 C.3       1 FAD415      0.0000 
      6 C4B       -22.2490   -0.5330  -13.9910 C.3       1 FAD415      0.0000 
      7 O4B       -21.2630   -0.1230  -14.9160 O.3       1 FAD415      0.0000 
      8 C3B       -23.3840    0.4700  -14.0820 C.3       1 FAD415      0.0000 
      9 O3B       -23.3580    1.3060  -12.9530 O.3       1 FAD415      0.0000 
     10 C2B       -23.0710    1.2930  -15.3070 C.3       1 FAD415      0.0000 
     11 O2B       -23.4530    2.6300  -15.1100 O.3       1 FAD415      0.0000 
     12 C1B       -21.5640    1.1710  -15.3920 C.3       1 FAD415      0.0000 
     13 N9A       -21.0880    1.3560  -16.7720 N.pl3     1 FAD415      0.0000 
     14 C8A       -21.7540    1.0390  -17.9260 C.2       1 FAD415      0.0000 
     15 N7A       -20.9660    1.3740  -18.9740 N.2       1 FAD415      0.0000 
     16 C5A       -19.8110    1.8980  -18.5020 C.ar      1 FAD415      0.0000 
     17 C6A       -18.6750    2.3930  -19.1310 C.ar      1 FAD415      0.0000 
     18 N6A       -18.6260    2.4650  -20.4590 N.pl3     1 FAD415      0.0000 
     19 N1A       -17.6270    2.8730  -18.3720 N.ar      1 FAD415      0.0000 
     20 C2A       -17.7120    2.8590  -16.9940 C.ar      1 FAD415      0.0000 
     21 N3A       -18.8430    2.3660  -16.3770 N.ar      1 FAD415      0.0000 
     22 C4A       -19.8760    1.8940  -17.1180 C.ar      1 FAD415      0.0000 
     23 N1        -29.2260   -4.8940   -7.4430 N.2       1 FAD415      0.0000 
     24 C2        -30.3810   -4.3070   -6.9620 C.2       1 FAD415      0.0000 
     25 O2        -30.7230   -3.1990   -7.3710 O.2       1 FAD415      0.0000 
     26 N3        -31.1560   -4.9610   -6.0230 N.am      1 FAD415      0.0000 
     27 C4        -30.7830   -6.2070   -5.5600 C.2       1 FAD415      0.0000 
     28 O4        -31.4770   -6.7870   -4.7240 O.2       1 FAD415      0.0000 
     29 C4X       -29.6220   -6.8000   -6.0430 C.2       1 FAD415      0.0000 
     30 N5        -29.2420   -8.0440   -5.5850 N.2       1 FAD415      0.0000 
     31 C5X       -28.0910   -8.6350   -6.0620 C.ar      1 FAD415      0.0000 
     32 C6        -27.7170   -9.8890   -5.5930 C.ar      1 FAD415      0.0000 
     33 C7        -26.5610  -10.4900   -6.0680 C.ar      1 FAD415      0.0000 
     34 C7M       -26.1570  -11.8420   -5.5650 C.3       1 FAD415      0.0000 
     35 C8        -25.7790   -9.8390   -7.0120 C.ar      1 FAD415      0.0000 
     36 C8M       -24.5300  -10.4930   -7.5210 C.3       1 FAD415      0.0000 
     37 C9        -26.1510   -8.5850   -7.4800 C.ar      1 FAD415      0.0000 
     38 C9A       -27.3100   -7.9790   -7.0070 C.ar      1 FAD415      0.0000 
     39 N10       -27.6870   -6.7300   -7.4710 N.pl3     1 FAD415      0.0000 
     40 C10       -28.8410   -6.1400   -6.9880 C.2       1 FAD415      0.0000 
     41 C1'       -26.9250   -6.0720   -8.5870 C.3       1 FAD415      0.0000 
     42 C2'       -27.4490   -6.5360   -9.9430 C.3       1 FAD415      0.0000 
     43 O2'       -27.0970   -7.8860  -10.1480 O.3       1 FAD415      0.0000 
     44 C3'       -26.8610   -5.7060  -11.0760 C.3       1 FAD415      0.0000 
     45 O3'       -25.4620   -5.8810  -11.0980 O.3       1 FAD415      0.0000 
     46 C4'       -27.1770   -4.2250  -10.9090 C.3       1 FAD415      0.0000 
     47 O4'       -28.5660   -4.0460  -10.7550 O.3       1 FAD415      0.0000 
     48 C5'       -26.7050   -3.4230  -12.1160 C.3       1 FAD415      0.0000 
     49 O5'       -26.9990   -4.1220  -13.3060 O.3       1 FAD415      0.0000 
     50 P         -27.0470   -3.3240  -14.7010 P.3       1 FAD415      0.0000 
     51 O1P       -27.2220   -4.2730  -15.8610 O.co2     1 FAD415      0.0000 
     52 O2P       -28.1450   -2.2930  -14.6710 O.co2     1 FAD415      0.0000 
     53 O3P       -25.6030   -2.6160  -14.7600 O.3       1 FAD415      0.0000 
     54 H         -21.8809   -2.5742  -14.4499 H         1 FAD415      0.0000 
     55 H         -23.3953   -2.2736  -13.5804 H         1 FAD415      0.0000 
     56 H         -21.8834   -0.5534  -12.9954 H         1 FAD415      0.0000 
     57 H         -24.2871   -0.0405  -14.2250 H         1 FAD415      0.0000 
     58 H         -23.4956    0.8260  -16.1470 H         1 FAD415      0.0000 
     59 H         -21.1408    1.9238  -14.7447 H         1 FAD415      0.0000 
     60 H         -22.6286    0.6471  -17.9733 H         1 FAD415      0.0000 
     61 H         -19.4129    2.0904  -20.9493 H         1 FAD415      0.0000 
     62 H         -17.8067    2.8872  -20.8468 H         1 FAD415      0.0000 
     63 H         -16.9287    3.2177  -16.4258 H         1 FAD415      0.0000 
     64 H         -32.0172   -4.5155   -5.6668 H         1 FAD415      0.0000 
     65 H         -28.2986  -10.3699   -4.8937 H         1 FAD415      0.0000 
     66 H         -25.5682   -8.1029   -8.1782 H         1 FAD415      0.0000 
     67 H         -25.8663   -6.3242   -8.5116 H         1 FAD415      0.0000 
     68 H         -27.0305   -4.9883   -8.5189 H         1 FAD415      0.0000 
     69 H         -28.5221   -6.4057   -9.9537 H         1 FAD415      0.0000 
     70 H         -27.3083   -6.0417  -12.0052 H         1 FAD415      0.0000 
     71 H         -26.6379   -3.8628  -10.0395 H         1 FAD415      0.0000 
     72 H         -25.6260   -3.2469  -11.9955 H         1 FAD415      0.0000 
     73 H         -27.2030   -2.4430  -12.0781 H         1 FAD415      0.0000 
     74 H         -25.3094  -12.1586   -5.9908 H         1 FAD415      0.0000 
     75 H         -26.0057  -11.8405   -4.5765 H         1 FAD415      0.0000 
     76 H         -26.8554  -12.5324   -5.7536 H         1 FAD415      0.0000 
     77 H         -24.0591   -9.9217   -8.1932 H         1 FAD415      0.0000 
     78 H         -23.8793  -10.6752   -6.7839 H         1 FAD415      0.0000 
     79 H         -24.7233  -11.3683   -7.9643 H         1 FAD415      0.0000 
     80 H         -24.2855    1.2676  -12.5812 H         1 FAD415      0.0000 
     81 H         -23.5568    2.7262  -14.1200 H         1 FAD415      0.0000 
     82 H         -27.5871   -8.3918   -9.4381 H         1 FAD415      0.0000 
     83 H         -25.3155   -6.8294  -10.8171 H         1 FAD415      0.0000 
     84 H         -28.9819   -4.6598  -11.4260 H         1 FAD415      0.0000 
@<TRIPOS>BOND
     1    2    1 ar   
     2    3    1 ar   
     3    4    1 1    
     4   53    1 1    
     5    5    4 1    
     6    6    5 1    
     7   54    5 1    
     8   55    5 1    
     9    7    6 1    
    10    8    6 1    
    11   56    6 1    
    12   12    7 1    
    13    9    8 1    
    14   10    8 1    
    15   57    8 1    
    16   80    9 1    
    17   11   10 1    
    18   12   10 1    
    19   58   10 1    
    20   81   11 1    
    21   13   12 1    
    22   59   12 1    
    23   14   13 1    
    24   22   13 1    
    25   15   14 2    
    26   60   14 1    
    27   16   15 1    
    28   17   16 ar   
    29   22   16 ar   
    30   18   17 1    
    31   19   17 ar   
    32   61   18 1    
    33   62   18 1    
    34   20   19 ar   
    35   21   20 ar   
    36   63   20 1    
    37   22   21 ar   
    38   24   23 1    
    39   40   23 2    
    40   25   24 2    
    41   26   24 am   
    42   27   26 am   
    43   64   26 1    
    44   28   27 2    
    45   29   27 1    
    46   30   29 2    
    47   40   29 1    
    48   31   30 1    
    49   32   31 ar   
    50   38   31 ar   
    51   33   32 ar   
    52   65   32 1    
    53   34   33 1    
    54   35   33 ar   
    55   74   34 1    
    56   75   34 1    
    57   76   34 1    
    58   36   35 1    
    59   37   35 ar   
    60   77   36 1    
    61   78   36 1    
    62   79   36 1    
    63   38   37 ar   
    64   66   37 1    
    65   39   38 1    
    66   40   39 1    
    67   41   39 1    
    68   42   41 1    
    69   67   41 1    
    70   68   41 1    
    71   43   42 1    
    72   44   42 1    
    73   69   42 1    
    74   82   43 1    
    75   45   44 1    
    76   46   44 1    
    77   70   44 1    
    78   83   45 1    
    79   47   46 1    
    80   48   46 1    
    81   71   46 1    
    82   84   47 1    
    83   49   48 1    
    84   72   48 1    
    85   73   48 1    
    86   50   49 1    
    87   51   50 ar   
    88   52   50 ar   
    89   53   50 1    
@<TRIPOS>SUBSTRUCTURE
     1 FAD415      1 GROUP   
@<TRIPOS>SET

