#    Name: 4l7s_G7K_2_INTS_M
#    Modification time : Tue Mar 25 09:53:07 2014

@<TRIPOS>MOLECULE
4l7s_G7K_2_INTS_M
   73     0     9     0     0
SMALL
NO_CHARGES


@<TRIPOS>ATOM
      1 CA         19.5950  -17.6940   18.8680 C.3       3 GLC5        0.0000 
      2 CA         18.7450  -17.7300   20.2680 C.3       9 GLL5        0.0000 
      3 CA         20.4450  -17.6580   17.4680 C.3       6 GLP5        0.0000 
      4 CA         20.7565  -14.8160   24.6175 C.3       3 GLC5        0.0000 
      5 CA         21.0120  -16.5330   23.4240 C.3       9 GLL5        0.0000 
      6 CA         20.5010  -13.0990   25.8110 C.3       6 GLP5        0.0000 
      7 CA         20.7375  -15.4860   25.9160 C.3       3 GLC5        0.0000 
      8 CA         20.8570  -17.1850   24.6490 C.3       9 GLL5        0.0000 
      9 CA         20.6180  -13.7870   27.1830 C.3       6 GLP5        0.0000 
     10 N          22.1545  -15.7250   26.4190 N.am      2 SEC2        0.0000 
     11 N          21.3740  -16.8840   25.9030 N.am      8 SEL2        0.0000 
     12 N          22.9350  -14.5660   26.9350 N.am      5 SEP2        0.0000 
     13 O          21.4765  -16.5870   28.7500 O.2       1 ALC1        0.0000 
     14 O          21.3190  -17.7890   28.0590 O.2       7 ALL1        0.0000 
     15 O          21.6340  -15.3850   29.4410 O.2       4 ALP1        0.0000 
     16 CA         21.0650  -21.1640   28.9120 C.3       3 GLC5        0.0000 
     17 CA         19.6430  -20.4200   29.7370 C.3       9 GLL5        0.0000 
     18 CA         22.4870  -21.9080   28.0870 C.3       6 GLP5        0.0000 
     19 CA         18.7885  -18.7825   30.0430 C.3       3 GLC5        0.0000 
     20 CA         17.9340  -17.1450   30.3490 C.3       6 GLP5        0.0000 
     21 CA         17.4840  -18.8665   29.1215 C.3       3 GLC5        0.0000 
     22 CA         17.0340  -20.5880   27.8940 C.3       9 GLL5        0.0000 
     23 CA         16.6535  -18.6130   26.2150 C.3       3 GLC5        0.0000 
     24 CA         16.4080  -20.7330   26.5100 C.3       9 GLL5        0.0000 
     25 CA         16.8990  -16.4930   25.9200 C.3       6 GLP5        0.0000 
     26 CA         18.4030  -23.3935   24.7730 C.3       3 GLC5        0.0000 
     27 CA         17.1710  -23.1040   26.4220 C.3       9 GLL5        0.0000 
     28 CA         19.6350  -23.6830   23.1240 C.3       6 GLP5        0.0000 
     29 CA         23.3630  -18.2190   31.4105 C.3       3 GLC5        0.0000 
     30 CA         22.0670  -18.1750   32.9960 C.3       9 GLL5        0.0000 
     31 CA         24.6590  -18.2630   29.8250 C.3       6 GLP5        0.0000 
     32 CA         20.7635  -16.4775   32.9505 C.3       3 GLC5        0.0000 
     33 CA         19.4600  -14.7800   32.9050 C.3       6 GLP5        0.0000 
     34 CA         26.1745  -21.2605   32.0265 C.3       3 GLC5        0.0000 
     35 CA         24.4370  -21.3830   33.1640 C.3       9 GLL5        0.0000 
     36 CA         27.9120  -21.1380   30.8890 C.3       6 GLP5        0.0000 
     37 CA         25.4320  -25.0560   32.7160 C.3       3 GLC5        0.0000 
     38 CA         24.6920  -23.6580   33.6850 C.3       9 GLL5        0.0000 
     39 CA         26.1720  -26.4540   31.7470 C.3       6 GLP5        0.0000 
     40 CA         21.2040  -20.4760   27.1280 C.3       3 GLC5        0.0000 
     41 CA         19.9210  -19.0440   26.1690 C.3       9 GLL5        0.0000 
     42 CA         21.8315  -18.1815   23.1515 C.3       3 GLC5        0.0000 
     43 CA         19.5680  -18.1370   22.4400 C.3       9 GLL5        0.0000 
     44 CA         23.6930  -18.7930   23.9280 C.3       6 GLP5        0.0000 
     45 CA         18.8450  -16.3490   23.1790 C.3       3 GLC5        0.0000 
     46 CA         20.3720  -17.0030   22.3100 C.3       9 GLL5        0.0000 
     47 CA         17.7200  -15.1280   23.9830 C.3       6 GLP5        0.0000 
     48 CA         20.3955  -14.8130   22.1950 C.3       3 GLC5        0.0000 
     49 CA         20.0990  -12.8580   21.5230 C.3       6 GLP5        0.0000 
     50 CA         22.0150  -16.5845   21.6120 C.3       3 GLC5        0.0000 
     51 CA         23.3380  -16.4010   20.3570 C.3       6 GLP5        0.0000 
     52 CA         22.3137  -17.8260   23.9823 C.3       3 GLC5        0.0000 
     53 CA         19.3272  -15.9935   24.0098 C.3       3 GLC5        0.0000 
     54 CA         21.7341  -20.4263   29.3131 C.3       3 GLC5        0.0000 
     55 CA         20.8890  -18.6300   29.0920 C.3       9 GLL5        0.0000 
     56 CA         19.4576  -18.0448   30.4441 C.3       3 GLC5        0.0000 
     57 CA         20.0050  -22.7990   27.9713 C.3       3 GLC5        0.0000 
     58 CA         18.2100  -21.5320   28.0730 C.3       9 GLL5        0.0000 
     59 CA         22.0090  -23.3550   28.0020 C.3       6 GLP5        0.0000 
     60 CA         15.2740  -19.4992   27.7015 C.3       3 GLC5        0.0000 
     61 CA         13.8270  -18.3380   28.2010 C.3       6 GLP5        0.0000 
     62 CA         18.0568  -24.7625   27.1025 C.3       3 GLC5        0.0000 
     63 CA         18.6320  -26.4960   27.0900 C.3       6 GLP5        0.0000 
     64 CA         23.8678  -23.3466   31.7690 C.3       3 GLC5        0.0000 
     65 CA         23.8730  -22.5900   33.4580 C.3       9 GLL5        0.0000 
     66 CA         23.3120  -23.8710   30.0400 C.3       6 GLP5        0.0000 
     67 CA         22.7090  -23.0502   31.7365 C.3       3 GLC5        0.0000 
     68 CA         22.5180  -22.7710   33.5430 C.3       9 GLL5        0.0000 
     69 CA         20.7450  -20.6300   24.8773 C.3       3 GLC5        0.0000 
     70 CA         21.4990  -22.5750   24.3670 C.3       6 GLP5        0.0000 
     71 CA         21.8420  -18.7390   24.6578 C.3       3 GLC5        0.0000 
     72 CA         18.4450  -17.5890   25.6538 C.3       3 GLC5        0.0000 
     73 CA         20.0610  -18.3260   24.6060 C.3       9 GLL5        0.0000 
@<TRIPOS>BOND
@<TRIPOS>SUBSTRUCTURE
     1 ALC1       13 GROUP        1 X    ALC  0     ROOT ALC X 1
     2 SEC2       10 GROUP        1 X    SEC  0     **** SEC X 2
     3 GLC5        1 GROUP        1 X    GLC  0     **** GLC X 6
     4 ALP1       15 GROUP        1 Y    ALP  0     ROOT ALP Y 8
     5 SEP2       12 GROUP        1 Y    SEP  0     **** SEP Y 9
     6 GLP5        3 GROUP        1 Y    GLP  0     **** GLP Y 13
     7 ALL1       14 GROUP        1 Z    ALL  0     ROOT ALL Z 15
     8 SEL2       11 GROUP        1 Z    SEL  0     **** SEL Z 16
     9 GLL5        2 GROUP        1 Z    GLL  0     **** GLL Z 20
@<TRIPOS>SET

