#    Name: 4l7s_G7K_2_ligand
#    Modification time : Tue Mar 25 09:53:07 2014

@<TRIPOS>MOLECULE
4l7s_G7K_2_ligand
   59    63     1     0     0
SMALL
NO_CHARGES


@<TRIPOS>ATOM
      1 C01        18.7450  -17.7300   20.2680 C.3       1 G7K701      0.0000 
      2 O05        18.9840  -18.6210   21.3200 O.3       1 G7K701      0.0000 
      3 C06        19.5680  -18.1370   22.4400 C.ar      1 G7K701      0.0000 
      4 C07        20.3720  -17.0030   22.3100 C.ar      1 G7K701      0.0000 
      5 C09        21.0120  -16.5330   23.4240 C.ar      1 G7K701      0.0000 
      6 C11        20.8570  -17.1850   24.6490 C.ar      1 G7K701      0.0000 
      7 N12        21.3740  -16.8840   25.9030 N.2       1 G7K701      0.0000 
      8 C13        20.9620  -17.7730   26.7650 C.2       1 G7K701      0.0000 
      9 N14        21.3190  -17.7890   28.0590 N.pl3     1 G7K701      0.0000 
     10 C16        20.8890  -18.6300   29.0920 C.ar      1 G7K701      0.0000 
     11 C17        21.3480  -18.4500   30.3970 C.ar      1 G7K701      0.0000 
     12 C19        20.8440  -19.3490   31.3340 C.ar      1 G7K701      0.0000 
     13 N20        19.9940  -20.3350   31.0290 N.ar      1 G7K701      0.0000 
     14 C21        19.6430  -20.4200   29.7370 C.ar      1 G7K701      0.0000 
     15 N22        18.7710  -21.3850   29.4070 N.pl3     1 G7K701      0.0000 
     16 C24        18.2100  -21.5320   28.0730 C.3       1 G7K701      0.0000 
     17 C26        17.0340  -20.5880   27.8940 C.3       1 G7K701      0.0000 
     18 C29        16.4080  -20.7330   26.5100 C.3       1 G7K701      0.0000 
     19 C32        15.9950  -22.1670   26.2360 C.3       1 G7K701      0.0000 
     20 O34        15.5250  -22.2440   24.8890 O.3       1 G7K701      0.0000 
     21 C36        17.1710  -23.1040   26.4220 C.3       1 G7K701      0.0000 
     22 C39        17.7920  -22.9540   27.8080 C.3       1 G7K701      0.0000 
     23 N42        20.0400  -19.5990   28.7400 N.ar      1 G7K701      0.0000 
     24 C43        21.2820  -19.2730   32.7890 C.3       1 G7K701      0.0000 
     25 F44        20.0930  -19.2730   33.6890 F         1 G7K701      0.0000 
     26 F45        22.0670  -18.1750   32.9960 F         1 G7K701      0.0000 
     27 C46        22.2150  -20.4380   33.0240 C.ar      1 G7K701      0.0000 
     28 C47        23.5980  -20.3060   32.9490 C.ar      1 G7K701      0.0000 
     29 C49        24.4370  -21.3830   33.1640 C.ar      1 G7K701      0.0000 
     30 C51        23.8730  -22.5900   33.4580 C.ar      1 G7K701      0.0000 
     31 F52        24.6920  -23.6580   33.6850 F         1 G7K701      0.0000 
     32 C53        22.5180  -22.7710   33.5430 C.ar      1 G7K701      0.0000 
     33 C55        21.6940  -21.6880   33.3230 C.ar      1 G7K701      0.0000 
     34 S57        19.9210  -19.0440   26.1690 S.3       1 G7K701      0.0000 
     35 C58        20.0610  -18.3260   24.6060 C.ar      1 G7K701      0.0000 
     36 N59        19.4150  -18.8250   23.5610 N.ar      1 G7K701      0.0000 
     37 H          20.4709  -16.5473   21.4043 H         1 G7K701      0.0000 
     38 H          21.6134  -15.6958   23.3720 H         1 G7K701      0.0000 
     39 H          22.0597  -17.0359   28.3750 H         1 G7K701      0.0000 
     40 H          21.9897  -17.7304   30.6401 H         1 G7K701      0.0000 
     41 H          18.4487  -22.0919   30.1138 H         1 G7K701      0.0000 
     42 H          18.9649  -21.2566   27.3273 H         1 G7K701      0.0000 
     43 H          17.3724  -19.5577   28.0271 H         1 G7K701      0.0000 
     44 H          16.2777  -20.8028   28.6527 H         1 G7K701      0.0000 
     45 H          17.1308  -20.4126   25.7558 H         1 G7K701      0.0000 
     46 H          15.5316  -20.0837   26.4446 H         1 G7K701      0.0000 
     47 H          15.2209  -22.4365   26.9314 H         1 G7K701      0.0000 
     48 H          17.9309  -22.8896   25.6659 H         1 G7K701      0.0000 
     49 H          16.8382  -24.1370   26.2904 H         1 G7K701      0.0000 
     50 H          17.0620  -23.2699   28.5591 H         1 G7K701      0.0000 
     51 H          18.6619  -23.6135   27.8794 H         1 G7K701      0.0000 
     52 H          24.0050  -19.3759   32.7263 H         1 G7K701      0.0000 
     53 H          25.4503  -21.2699   33.1026 H         1 G7K701      0.0000 
     54 H          22.1219  -23.6885   33.7647 H         1 G7K701      0.0000 
     55 H          20.6632  -21.8067   33.3814 H         1 G7K701      0.0000 
     56 H          19.5908  -17.3133   19.9348 H         1 G7K701      0.0000 
     57 H          18.3146  -18.1836   19.4876 H         1 G7K701      0.0000 
     58 H          18.1393  -16.9836   20.5438 H         1 G7K701      0.0000 
     59 H          16.0943  -21.5991   24.3791 H         1 G7K701      0.0000 
@<TRIPOS>BOND
     1    2    1 1    
     2   56    1 1    
     3   57    1 1    
     4   58    1 1    
     5    3    2 1    
     6    4    3 ar   
     7   36    3 ar   
     8    5    4 ar   
     9   37    4 1    
    10    6    5 ar   
    11   38    5 1    
    12    7    6 1    
    13   35    6 ar   
    14    8    7 2    
    15    9    8 1    
    16   34    8 1    
    17   10    9 1    
    18   39    9 1    
    19   11   10 ar   
    20   23   10 ar   
    21   12   11 ar   
    22   40   11 1    
    23   13   12 ar   
    24   24   12 1    
    25   14   13 ar   
    26   15   14 1    
    27   23   14 ar   
    28   16   15 1    
    29   41   15 1    
    30   17   16 1    
    31   22   16 1    
    32   42   16 1    
    33   18   17 1    
    34   43   17 1    
    35   44   17 1    
    36   19   18 1    
    37   45   18 1    
    38   46   18 1    
    39   20   19 1    
    40   21   19 1    
    41   47   19 1    
    42   59   20 1    
    43   22   21 1    
    44   48   21 1    
    45   49   21 1    
    46   50   22 1    
    47   51   22 1    
    48   25   24 1    
    49   26   24 1    
    50   27   24 1    
    51   28   27 ar   
    52   33   27 ar   
    53   29   28 ar   
    54   52   28 1    
    55   30   29 ar   
    56   53   29 1    
    57   31   30 1    
    58   32   30 ar   
    59   33   32 ar   
    60   54   32 1    
    61   55   33 1    
    62   35   34 1    
    63   36   35 ar   
@<TRIPOS>SUBSTRUCTURE
     1 G7K701      1 GROUP   
@<TRIPOS>SET

