#    Name: 4f4p_0SB_1_INTS_M
#    Modification time : Mon Mar 24 18:58:05 2014

@<TRIPOS>MOLECULE
4f4p_0SB_1_INTS_M
   68     0    12     0     0
SMALL
NO_CHARGES


@<TRIPOS>ATOM
      1 CA         -1.8980    1.5380   13.8230 C.3       4 GLC5        0.0000 
      2 CA         -1.6340    0.3320   12.0580 C.3      12 GLL5        0.0000 
      3 CA         -2.1620    2.7440   15.5880 C.3       8 GLP5        0.0000 
      4 O           2.2980   -2.2360   17.2865 O.2       1 ALC1        0.0000 
      5 O           2.7330   -1.7120   15.9030 O.2       9 ALL1        0.0000 
      6 O           1.8630   -2.7600   18.6700 O.2       5 ALP1        0.0000 
      7 CA         -0.3015    7.8395   13.6415 C.3       4 GLC5        0.0000 
      8 CA          0.7480    6.3520   12.8730 C.3      12 GLL5        0.0000 
      9 CA         -1.3510    9.3270   14.4100 C.3       8 GLP5        0.0000 
     10 CA          5.1580    4.0540   15.3460 C.3       4 GLC5        0.0000 
     11 CA          4.9890    2.8400   13.6140 C.3      12 GLL5        0.0000 
     12 CA          5.3270    5.2680   17.0780 C.3       8 GLP5        0.0000 
     13 CA          6.3380    3.0080   11.0005 C.3       4 GLC5        0.0000 
     14 CA          6.3610    1.5480   12.4750 C.3      12 GLL5        0.0000 
     15 CA          6.3150    4.4680    9.5260 C.3       8 GLP5        0.0000 
     16 N           4.9375   -2.1130   17.5930 N.am      2 SEC2        0.0000 
     17 N           4.9860   -1.1460   16.2790 N.am     10 SEL2        0.0000 
     18 N           4.8890   -3.0800   18.9070 N.am      6 SEP2        0.0000 
     19 CA          3.7865   -3.0300   15.9230 C.3       4 GLC5        0.0000 
     20 CA          3.8530   -0.9710   15.5030 C.3      12 GLL5        0.0000 
     21 CA          3.7200   -5.0890   16.3430 C.3       8 GLP5        0.0000 
     22 CA          1.9615    3.9225   15.6075 C.3       4 GLC5        0.0000 
     23 CA          2.3930    4.8600   13.9110 C.3      12 GLL5        0.0000 
     24 CA          1.5300    2.9850   17.3040 C.3       8 GLP5        0.0000 
     25 CA          3.8600    5.0640   15.4945 C.3       4 GLC5        0.0000 
     26 OD1         2.9680    7.3150   12.7310 O.co2     3 ASC3        0.0000 
     27 OD1         2.1410    6.1800   13.3320 O.co2    11 ASL3        0.0000 
     28 OD1         3.7950    8.4500   12.1300 O.co2     7 ASP3        0.0000 
     29 CA         -1.3772    2.5514   13.8204 C.3       4 GLC5        0.0000 
     30 CA         -1.1800    2.5980   11.3950 C.3      12 GLL5        0.0000 
     31 CA         -0.9002   -1.3417   11.5693 C.3       4 GLC5        0.0000 
     32 CA         -0.5810    0.3910   12.9650 C.3      12 GLL5        0.0000 
     33 CA         -0.6930   -3.0450   10.6270 C.3       8 GLP5        0.0000 
     34 CA         -1.8654    0.6746    9.7785 C.3       4 GLC5        0.0000 
     35 CA         -2.1390    0.1760    7.8630 C.3       8 GLP5        0.0000 
     36 CA          0.1695   -2.5240   13.1835 C.3       4 GLC5        0.0000 
     37 CA         -0.2130   -0.6830   13.9070 C.3      12 GLL5        0.0000 
     38 CA          1.0190   -3.8970   12.2470 C.3       8 GLP5        0.0000 
     39 CA          2.3400   -3.6010   15.9688 C.3       4 GLC5        0.0000 
     40 CA          0.4980   -2.5900   15.7980 C.3      12 GLL5        0.0000 
     41 CA          3.9830   -0.3642   12.3410 C.3       4 GLC5        0.0000 
     42 CA          3.8770   -0.0780   14.4380 C.3      12 GLL5        0.0000 
     43 CA          3.5020   -0.9990   10.3780 C.3       8 GLP5        0.0000 
     44 CA          7.3977    0.6345   13.4838 C.3       4 GLC5        0.0000 
     45 CA          5.0510    0.6190   14.1700 C.3      12 GLL5        0.0000 
     46 CA          9.1840    0.7330   12.4040 C.3       8 GLP5        0.0000 
     47 CA          6.1575   -1.4098   14.5480 C.3       4 GLC5        0.0000 
     48 CA          6.1720    0.4530   14.9570 C.3      12 GLL5        0.0000 
     49 CA          6.1580   -2.8260   13.6150 C.3       8 GLP5        0.0000 
     50 CA          7.6980    0.7823   16.6065 C.3       4 GLC5        0.0000 
     51 CA          6.1420   -0.4400   16.0050 C.3      12 GLL5        0.0000 
     52 CA          9.2390    1.5580   17.7320 C.3       8 GLP5        0.0000 
     53 CA          4.9855    1.0128   16.3220 C.3       4 GLC5        0.0000 
     54 CA          3.8140    2.0190   17.1630 C.3       8 GLP5        0.0000 
     55 CA          4.4375    2.1242   15.2485 C.3       4 GLC5        0.0000 
     56 CA          7.4655    1.1583   12.5842 C.3       4 GLC5        0.0000 
     57 CA          5.1330    1.6190   13.0540 C.3      12 GLL5        0.0000 
     58 CA          4.2300    0.2556   11.4061 C.3       4 GLC5        0.0000 
     59 CA          5.1583   -1.5881   14.2593 C.3       4 GLC5        0.0000 
     60 CA          3.9863    0.8344   16.0332 C.3       4 GLC5        0.0000 
     61 CA          0.8297   -3.0030   13.8541 C.3       4 GLC5        0.0000 
     62 CA          1.4220   -1.6360   15.3910 C.3      12 GLL5        0.0000 
     63 CA         -0.2733   -1.3330   16.7771 C.3       4 GLC5        0.0000 
     64 CA         -1.1870   -0.5570   18.0930 C.3       8 GLP5        0.0000 
     65 CA         -1.1343   -0.8449   16.0459 C.3       4 GLC5        0.0000 
     66 CA         -1.1470   -1.6190   14.3330 C.3      12 GLL5        0.0000 
     67 CA         -1.4990    0.2623   15.0672 C.3       4 GLC5        0.0000 
     68 CA         -2.2260    1.4070   16.2500 C.3       8 GLP5        0.0000 
@<TRIPOS>BOND
@<TRIPOS>SUBSTRUCTURE
     1 ALC1        4 GROUP        1 X    ALC  0     ROOT ALC X 1
     2 SEC2       16 GROUP        1 X    SEC  0     **** SEC X 2
     3 ASC3       26 GROUP        1 X    ASC  0     **** ASC X 3
     4 GLC5        1 GROUP        1 X    GLC  0     **** GLC X 6
     5 ALP1        6 GROUP        1 Y    ALP  0     ROOT ALP Y 8
     6 SEP2       18 GROUP        1 Y    SEP  0     **** SEP Y 9
     7 ASP3       28 GROUP        1 Y    ASP  0     **** ASP Y 10
     8 GLP5        3 GROUP        1 Y    GLP  0     **** GLP Y 13
     9 ALL1        5 GROUP        1 Z    ALL  0     ROOT ALL Z 15
    10 SEL2       17 GROUP        1 Z    SEL  0     **** SEL Z 16
    11 ASL3       27 GROUP        1 Z    ASL  0     **** ASL Z 17
    12 GLL5        2 GROUP        1 Z    GLL  0     **** GLL Z 20
@<TRIPOS>SET

