#    Name: 4f4p_0SB_1_ligand
#    Modification time : Mon Mar 24 18:58:05 2014

@<TRIPOS>MOLECULE
4f4p_0SB_1_ligand
   48    51     1     0     0
SMALL
NO_CHARGES


@<TRIPOS>ATOM
      1 C1         -0.1400    2.6730   12.3210 C.ar      1 0SB701      0.0000 
      2 C2          0.1300    1.5660   13.1000 C.ar      1 0SB701      0.0000 
      3 C3         -1.1800    2.5980   11.3950 C.ar      1 0SB701      0.0000 
      4 C4         -0.5810    0.3910   12.9650 C.ar      1 0SB701      0.0000 
      5 C5         -1.9190    1.4310   11.2650 C.ar      1 0SB701      0.0000 
      6 C6         -1.6340    0.3320   12.0580 C.ar      1 0SB701      0.0000 
      7 C7         -0.2130   -0.6830   13.9070 C.ar      1 0SB701      0.0000 
      8 C11        -0.7800   -2.5740   15.2650 C.ar      1 0SB701      0.0000 
      9 C12         0.4980   -2.5900   15.7980 C.ar      1 0SB701      0.0000 
     10 N13         2.7330   -1.7120   15.9030 N.pl3     1 0SB701      0.0000 
     11 C15         3.8770   -0.0780   14.4380 C.ar      1 0SB701      0.0000 
     12 C17         5.0510    0.6190   14.1700 C.ar      1 0SB701      0.0000 
     13 C18         6.1420   -0.4400   16.0050 C.ar      1 0SB701      0.0000 
     14 C19         6.1720    0.4530   14.9570 C.ar      1 0SB701      0.0000 
     15 C27         0.7480    6.3520   12.8730 C.3       1 0SB701      0.0000 
     16 F23         4.9890    2.8400   13.6140 F         1 0SB701      0.0000 
     17 C20         5.1330    1.6190   13.0540 C.3       1 0SB701      0.0000 
     18 F21         6.3610    1.5480   12.4750 F         1 0SB701      0.0000 
     19 F22         4.1690    1.4370   12.1040 F         1 0SB701      0.0000 
     20 N16         4.9860   -1.1460   16.2790 N.ar      1 0SB701      0.0000 
     21 C14         3.8530   -0.9710   15.5030 C.ar      1 0SB701      0.0000 
     22 C10         1.4220   -1.6360   15.3910 C.ar      1 0SB701      0.0000 
     23 N8          1.0590   -0.6860   14.4680 N.ar      1 0SB701      0.0000 
     24 C9         -1.1470   -1.6190   14.3330 C.ar      1 0SB701      0.0000 
     25 N24         0.6400    3.8480   12.5240 N.3       1 0SB701      0.0000 
     26 C26         2.0780    3.7960   12.8500 C.3       1 0SB701      0.0000 
     27 C28         2.3930    4.8600   13.9110 C.3       1 0SB701      0.0000 
     28 N29         2.1410    6.1800   13.3320 N.4       1 0SB701      0.0000 
     29 C25         0.2720    5.1860   11.9840 C.3       1 0SB701      0.0000 
     30 H           0.8931    1.6192   13.8109 H         1 0SB701      0.0000 
     31 H          -1.3982    3.4148   10.8061 H         1 0SB701      0.0000 
     32 H          -2.6839    1.3828   10.5743 H         1 0SB701      0.0000 
     33 H          -2.1960   -0.5240   11.9788 H         1 0SB701      0.0000 
     34 H          -1.4693   -3.2855   15.5677 H         1 0SB701      0.0000 
     35 H           0.7626   -3.3011   16.4892 H         1 0SB701      0.0000 
     36 H           2.8895   -2.4259   16.6964 H         1 0SB701      0.0000 
     37 H           3.0468    0.0646   13.8613 H         1 0SB701      0.0000 
     38 H           6.9820   -0.5836   16.5872 H         1 0SB701      0.0000 
     39 H           7.0258    0.9943   14.7610 H         1 0SB701      0.0000 
     40 H           0.6445    7.2827   12.2953 H         1 0SB701      0.0000 
     41 H           0.0648    6.4235   13.7325 H         1 0SB701      0.0000 
     42 H          -2.1022   -1.6004   13.9577 H         1 0SB701      0.0000 
     43 H           2.6814    4.0006   11.9692 H         1 0SB701      0.0000 
     44 H           2.3484    2.8220   13.2499 H         1 0SB701      0.0000 
     45 H           3.4329    4.7519   14.2031 H         1 0SB701      0.0000 
     46 H           1.7562    4.6812   14.7718 H         1 0SB701      0.0000 
     47 H           0.7061    5.3225   10.9803 H         1 0SB701      0.0000 
     48 H          -0.8219    5.2636   11.8757 H         1 0SB701      0.0000 
@<TRIPOS>BOND
     1    2    1 ar   
     2    3    1 ar   
     3   25    1 1    
     4    4    2 ar   
     5   30    2 1    
     6    5    3 ar   
     7   31    3 1    
     8    6    4 ar   
     9    7    4 1    
    10    6    5 ar   
    11   32    5 1    
    12   33    6 1    
    13   23    7 ar   
    14   24    7 ar   
    15    9    8 ar   
    16   24    8 ar   
    17   34    8 1    
    18   22    9 ar   
    19   35    9 1    
    20   21   10 1    
    21   22   10 1    
    22   36   10 1    
    23   12   11 ar   
    24   21   11 ar   
    25   37   11 1    
    26   14   12 ar   
    27   17   12 1    
    28   14   13 ar   
    29   20   13 ar   
    30   38   13 1    
    31   39   14 1    
    32   28   15 1    
    33   29   15 1    
    34   40   15 1    
    35   41   15 1    
    36   17   16 1    
    37   18   17 1    
    38   19   17 1    
    39   21   20 ar   
    40   23   22 ar   
    41   42   24 1    
    42   26   25 1    
    43   29   25 1    
    44   27   26 1    
    45   43   26 1    
    46   44   26 1    
    47   28   27 1    
    48   45   27 1    
    49   46   27 1    
    50   47   29 1    
    51   48   29 1    
@<TRIPOS>SUBSTRUCTURE
     1 0SB701      1 GROUP   
@<TRIPOS>SET

