#    Name: 2qgw_EES_2_INTS_M
#    Modification time : Mon Mar 24 22:09:01 2014

@<TRIPOS>MOLECULE
2qgw_EES_2_INTS_M
   59     0     9     0     0
SMALL
NO_CHARGES


@<TRIPOS>ATOM
      1 CA         27.6595   -2.0735    4.9695 C.3       3 GLC5        0.0000 
      2 CA         26.1020   -2.5130    5.9950 C.3       9 GLL5        0.0000 
      3 CA         29.2170   -1.6340    3.9440 C.3       6 GLP5        0.0000 
      4 CA         25.7685   -1.3010    4.7865 C.3       3 GLC5        0.0000 
      5 CA         25.4350   -0.0890    3.5780 C.3       6 GLP5        0.0000 
      6 CA         25.9530   -5.6980    7.3665 C.3       3 GLC5        0.0000 
      7 CA         25.2400   -3.9070    8.2800 C.3       9 GLL5        0.0000 
      8 CA         26.6660   -7.4890    6.4530 C.3       6 GLP5        0.0000 
      9 CA         27.8710   -2.2865    9.6635 C.3       3 GLC5        0.0000 
     10 CA         26.3730   -3.6880    9.0570 C.3       9 GLL5        0.0000 
     11 CA         29.3690   -0.8850   10.2700 C.3       6 GLP5        0.0000 
     12 CA         27.0495   -2.4450   11.2415 C.3       3 GLC5        0.0000 
     13 CA         26.4040   -4.2180   10.3440 C.3       9 GLL5        0.0000 
     14 CA         27.6950   -0.6720   12.1390 C.3       6 GLP5        0.0000 
     15 O          27.6400   -4.9440   12.1450 O.2       1 ALC1        0.0000 
     16 O          27.4950   -4.0260   11.1350 O.2       7 ALL1        0.0000 
     17 O          27.7850   -5.8620   13.1550 O.2       4 ALP1        0.0000 
     18 CA         24.4710   -5.9055   12.6550 C.3       3 GLC5        0.0000 
     19 CA         25.3150   -4.9480   10.8250 C.3       9 GLL5        0.0000 
     20 CA         23.6270   -6.8630   14.4850 C.3       6 GLP5        0.0000 
     21 CA         24.1015   -4.0055   12.3125 C.3       3 GLC5        0.0000 
     22 CA         22.8880   -3.0630   13.8000 C.3       6 GLP5        0.0000 
     23 CA         26.3520   -5.4315   12.6480 C.3       3 GLC5        0.0000 
     24 CA         27.3890   -5.9150   14.4710 C.3       6 GLP5        0.0000 
     25 CA         22.2420   -4.5605   10.3390 C.3       3 GLC5        0.0000 
     26 CA         24.1870   -5.1570   10.0300 C.3       9 GLL5        0.0000 
     27 CA         20.2970   -3.9640   10.6480 C.3       6 GLP5        0.0000 
     28 CA         24.8845   -7.0710   10.2845 C.3       3 GLC5        0.0000 
     29 CA         25.5820   -8.9850   10.5390 C.3       6 GLP5        0.0000 
     30 CA         22.7840   -6.3820   11.2765 C.3       3 GLC5        0.0000 
     31 CA         21.3810   -7.6070   12.5230 C.3       6 GLP5        0.0000 
     32 CA         23.4950   -4.1615    1.3835 C.3       3 GLC5        0.0000 
     33 CA         22.8700   -3.1790    3.1530 C.3       9 GLL5        0.0000 
     34 CA         24.1200   -5.1440   -0.3860 C.3       6 GLP5        0.0000 
     35 CA         22.3380   -1.1615    3.7650 C.3       3 GLC5        0.0000 
     36 CA         21.8060    0.8560    4.3770 C.3       6 GLP5        0.0000 
     37 CA         20.4150   -5.7555    5.5190 C.3       3 GLC5        0.0000 
     38 CA         21.6670   -4.1450    5.4460 C.3       9 GLL5        0.0000 
     39 CA         19.1630   -7.3660    5.5920 C.3       6 GLP5        0.0000 
     40 CA         19.3340   -5.1420    4.0360 C.3       3 GLC5        0.0000 
     41 CA         20.9150   -3.9930    4.2840 C.3       9 GLL5        0.0000 
     42 CA         17.7530   -6.2910    3.7880 C.3       6 GLP5        0.0000 
     43 N          19.9875   -4.3510    1.2700 N.am      2 SEC2        0.0000 
     44 N          20.8510   -3.3820    2.0930 N.am      8 SEL2        0.0000 
     45 N          19.1240   -5.3200    0.4470 N.am      5 SEP2        0.0000 
     46 O          21.4005   -2.5060    1.3085 O.2       1 ALC1        0.0000 
     47 O          20.8510   -3.3820    2.0930 O.2       7 ALL1        0.0000 
     48 O          21.9500   -1.6300    0.5240 O.2       4 ALP1        0.0000 
     49 CA         26.5212   -4.3740    5.6630 C.3       3 GLC5        0.0000 
     50 CA         27.5280   -5.7340    4.8290 C.3       6 GLP5        0.0000 
     51 CA         28.2953   -4.2790    9.5542 C.3       3 GLC5        0.0000 
     52 CA         30.2020   -4.6050    9.4080 C.3       6 GLP5        0.0000 
     53 CA         26.4633   -6.3660   10.2698 C.3       3 GLC5        0.0000 
     54 CA         27.0670   -8.1490    9.9550 C.3       6 GLP5        0.0000 
     55 CA         24.3355   -1.6727    3.6590 C.3       3 GLC5        0.0000 
     56 CA         23.6020   -3.3340    4.3270 C.3       9 GLL5        0.0000 
     57 CA         20.4977   -2.0615    4.3122 C.3       3 GLC5        0.0000 
     58 CA         21.5220   -3.5110    3.1340 C.3       9 GLL5        0.0000 
     59 CA         19.5890   -0.3330    4.6250 C.3       6 GLP5        0.0000 
@<TRIPOS>BOND
@<TRIPOS>SUBSTRUCTURE
     1 ALC1       15 GROUP        1 X    ALC  0     ROOT ALC X 1
     2 SEC2       43 GROUP        1 X    SEC  0     **** SEC X 2
     3 GLC5        1 GROUP        1 X    GLC  0     **** GLC X 6
     4 ALP1       17 GROUP        1 Y    ALP  0     ROOT ALP Y 8
     5 SEP2       45 GROUP        1 Y    SEP  0     **** SEP Y 9
     6 GLP5        3 GROUP        1 Y    GLP  0     **** GLP Y 13
     7 ALL1       16 GROUP        1 Z    ALL  0     ROOT ALL Z 15
     8 SEL2       44 GROUP        1 Z    SEL  0     **** SEL Z 16
     9 GLL5        2 GROUP        1 Z    GLL  0     **** GLL Z 20
@<TRIPOS>SET

