#    Name: 2qgw_EES_2_ligand
#    Modification time : Mon Mar 24 22:09:02 2014

@<TRIPOS>MOLECULE
2qgw_EES_2_ligand
   27    29     1     0     0
SMALL
NO_CHARGES


@<TRIPOS>ATOM
      1 CL1        26.1020   -2.5130    5.9950 Cl        1 EES1        0.0000 
      2 CAP        24.9270   -3.5150    6.9990 C.2       1 EES1        0.0000 
      3 CAR        25.2400   -3.9070    8.2800 C.ar      1 EES1        0.0000 
      4 CAJ        26.3730   -3.6880    9.0570 C.ar      1 EES1        0.0000 
      5 CAN        26.4040   -4.2180   10.3440 C.ar      1 EES1        0.0000 
      6 OAC        27.4950   -4.0260   11.1350 O.3       1 EES1        0.0000 
      7 CAH        25.3150   -4.9480   10.8250 C.ar      1 EES1        0.0000 
      8 CAI        24.1870   -5.1570   10.0300 C.ar      1 EES1        0.0000 
      9 CAQ        24.1400   -4.6340    8.7410 C.ar      1 EES1        0.0000 
     10 NAL        23.1910   -4.6780    7.7630 N.2       1 EES1        0.0000 
     11 NAS        23.7170   -3.9680    6.6750 N.pl3     1 EES1        0.0000 
     12 CAO        23.0320   -3.8160    5.5200 C.ar      1 EES1        0.0000 
     13 CAF        23.6020   -3.3340    4.3270 C.ar      1 EES1        0.0000 
     14 CAD        22.8700   -3.1790    3.1530 C.ar      1 EES1        0.0000 
     15 CAG        21.6670   -4.1450    5.4460 C.ar      1 EES1        0.0000 
     16 CAE        20.9150   -3.9930    4.2840 C.ar      1 EES1        0.0000 
     17 CAM        21.5220   -3.5110    3.1340 C.ar      1 EES1        0.0000 
     18 OAB        20.8510   -3.3820    2.0930 O.3       1 EES1        0.0000 
     19 H          27.1585   -3.1546    8.6947 H         1 EES1        0.0000 
     20 H          25.3449   -5.3377   11.7803 H         1 EES1        0.0000 
     21 H          23.3941   -5.6959   10.3970 H         1 EES1        0.0000 
     22 H          24.6160   -3.0841    4.3289 H         1 EES1        0.0000 
     23 H          23.3262   -2.8209    2.3064 H         1 EES1        0.0000 
     24 H          21.2014   -4.5198    6.3041 H         1 EES1        0.0000 
     25 H          19.9187   -4.2366    4.2812 H         1 EES1        0.0000 
     26 H          27.4403   -4.7432   11.8297 H         1 EES1        0.0000 
     27 H          21.0107   -2.4402    1.7973 H         1 EES1        0.0000 
@<TRIPOS>BOND
     1    2    1 1    
     2    3    2 2    
     3   11    2 1    
     4    4    3 ar   
     5    9    3 ar   
     6    5    4 ar   
     7   19    4 1    
     8    6    5 1    
     9    7    5 ar   
    10   26    6 1    
    11    8    7 ar   
    12   20    7 1    
    13    9    8 ar   
    14   21    8 1    
    15   10    9 2    
    16   11   10 1    
    17   12   11 1    
    18   13   12 ar   
    19   15   12 ar   
    20   14   13 ar   
    21   22   13 1    
    22   17   14 ar   
    23   23   14 1    
    24   16   15 ar   
    25   24   15 1    
    26   17   16 ar   
    27   25   16 1    
    28   18   17 1    
    29   27   18 1    
@<TRIPOS>SUBSTRUCTURE
     1 EES1        1 GROUP   
@<TRIPOS>SET

