#    Name: 3cm7_X22_6_INTS_M
#    Modification time : Mon Mar 24 21:53:18 2014

@<TRIPOS>MOLECULE
3cm7_X22_6_INTS_M
   61     0     6     0     0
SMALL
NO_CHARGES


@<TRIPOS>ATOM
      1 CA        -45.3900  -21.1670   -5.6270 C.3       2 GLC5        0.0000 
      2 CA        -44.0800  -20.1550   -4.2680 C.3       6 GLL5        0.0000 
      3 CA        -46.7000  -22.1790   -6.9860 C.3       4 GLP5        0.0000 
      4 CA        -44.9895  -18.8065   -5.1850 C.3       2 GLC5        0.0000 
      5 CA        -45.8990  -17.4580   -6.1020 C.3       4 GLP5        0.0000 
      6 CA        -45.3905  -21.6915   -2.6340 C.3       2 GLC5        0.0000 
      7 CA        -43.9600  -19.9880   -2.7500 C.3       6 GLL5        0.0000 
      8 CA        -46.8210  -23.3950   -2.5180 C.3       4 GLP5        0.0000 
      9 CA        -45.0655  -18.4335   -3.8100 C.3       2 GLC5        0.0000 
     10 CA        -46.1710  -16.8790   -4.8700 C.3       4 GLP5        0.0000 
     11 CA        -44.4910  -16.3910   -3.8285 C.3       2 GLC5        0.0000 
     12 CA        -42.8110  -15.9030   -2.7870 C.3       6 GLL5        0.0000 
     13 O         -38.5425  -16.8655   -2.3160 O.2       1 ALC1        0.0000 
     14 O         -39.8390  -16.5120   -1.6940 O.2       5 ALL1        0.0000 
     15 O         -37.2460  -17.2190   -2.9380 O.2       3 ALP1        0.0000 
     16 CA        -41.6575  -11.2515   -4.0445 C.3       2 GLC5        0.0000 
     17 CA        -42.6630  -12.8250   -3.3200 C.3       6 GLL5        0.0000 
     18 CA        -40.6520   -9.6780   -4.7690 C.3       4 GLP5        0.0000 
     19 CA        -45.0725  -15.1845   -4.3480 C.3       2 GLC5        0.0000 
     20 CA        -43.9740  -13.4900   -3.8260 C.3       6 GLL5        0.0000 
     21 CA        -46.4695  -12.1445   -6.7745 C.3       2 GLC5        0.0000 
     22 CA        -45.1500  -13.3860   -5.9090 C.3       6 GLL5        0.0000 
     23 CA        -47.7890  -10.9030   -7.6400 C.3       4 GLP5        0.0000 
     24 O         -44.5630  -13.9920   -8.3905 O.2       1 ALC1        0.0000 
     25 O         -43.2690  -13.2020   -8.1180 O.2       5 ALL1        0.0000 
     26 O         -45.8570  -14.7820   -8.6630 O.2       3 ALP1        0.0000 
     27 CA        -40.3475  -12.5800   -8.4500 C.3       2 GLC5        0.0000 
     28 CA        -42.4920  -12.4370   -9.0900 C.3       6 GLL5        0.0000 
     29 CA        -38.2030  -12.7230   -7.8100 C.3       4 GLP5        0.0000 
     30 CA        -40.7275  -11.4870  -12.6795 C.3       2 GLC5        0.0000 
     31 CA        -41.2850  -13.4040  -12.6080 C.3       6 GLL5        0.0000 
     32 CA        -40.1700   -9.5700  -12.7510 C.3       4 GLP5        0.0000 
     33 CA        -44.3200   -6.9480   -9.5240 C.3       2 GLC5        0.0000 
     34 CA        -44.1530   -9.0580   -9.4160 C.3       6 GLL5        0.0000 
     35 CA        -44.4870   -4.8380   -9.6320 C.3       4 GLP5        0.0000 
     36 CA        -45.9015  -19.9768   -3.5935 C.3       2 GLC5        0.0000 
     37 CA        -47.7830  -19.8820   -3.6780 C.3       4 GLP5        0.0000 
     38 CA        -45.3530  -15.3585   -5.4415 C.3       2 GLC5        0.0000 
     39 CA        -43.9200  -14.2900   -6.1170 C.3       6 GLL5        0.0000 
     40 CA        -43.3967  -14.9482  -10.9247 C.3       2 GLC5        0.0000 
     41 CA        -41.9840  -13.2650  -10.2870 C.3       6 GLL5        0.0000 
     42 CA        -44.9540  -15.9530  -11.6380 C.3       4 GLP5        0.0000 
     43 CA        -41.1520  -11.0750  -10.9396 C.3       2 GLC5        0.0000 
     44 CA        -41.7660  -12.6650  -11.5280 C.3       6 GLL5        0.0000 
     45 CA        -40.3020   -9.3920  -11.2710 C.3       4 GLP5        0.0000 
     46 CA        -42.9603  -14.3588  -12.5275 C.3       2 GLC5        0.0000 
     47 CA        -44.3950  -15.6830  -12.9870 C.3       4 GLP5        0.0000 
     48 CA        -39.8687  -14.2752  -13.9507 C.3       2 GLC5        0.0000 
     49 CA        -38.5900  -14.4690  -15.3730 C.3       4 GLP5        0.0000 
     50 CA        -42.7538  -15.3733  -12.4095 C.3       2 GLC5        0.0000 
     51 CA        -41.0100  -14.7590  -12.4490 C.3       6 GLL5        0.0000 
     52 CA        -39.0686  -14.5899  -12.0249 C.3       2 GLC5        0.0000 
     53 CA        -36.9560  -14.4550  -12.1780 C.3       4 GLP5        0.0000 
     54 CA        -46.5932  -12.6295   -9.7722 C.3       2 GLC5        0.0000 
     55 CA        -44.6690  -11.7210  -10.1250 C.3       6 GLL5        0.0000 
     56 CA        -48.0560  -14.0320   -9.2580 C.3       4 GLP5        0.0000 
     57 CA        -42.0290   -9.6371  -10.3102 C.3       2 GLC5        0.0000 
     58 CA        -43.4880  -11.3650   -9.4710 C.3       6 GLL5        0.0000 
     59 CA        -43.0807   -8.9185   -7.5183 C.3       2 GLC5        0.0000 
     60 CA        -43.2300  -10.0480   -9.0950 C.3       6 GLL5        0.0000 
     61 CA        -42.4700   -8.2840   -5.7810 C.3       4 GLP5        0.0000 
@<TRIPOS>BOND
@<TRIPOS>SUBSTRUCTURE
     1 ALC1       13 GROUP        1 X    ALC  0     ROOT ALC X 1
     2 GLC5        1 GROUP        1 X    GLC  0     **** GLC X 6
     3 ALP1       15 GROUP        1 Y    ALP  0     ROOT ALP Y 8
     4 GLP5        3 GROUP        1 Y    GLP  0     **** GLP Y 13
     5 ALL1       14 GROUP        1 Z    ALL  0     ROOT ALL Z 15
     6 GLL5        2 GROUP        1 Z    GLL  0     **** GLL Z 20
@<TRIPOS>SET

