#    Name: 3cm7_X22_6_ligand
#    Modification time : Mon Mar 24 21:53:18 2014

@<TRIPOS>MOLECULE
3cm7_X22_6_ligand
   73    76     1     0     0
SMALL
NO_CHARGES


@<TRIPOS>ATOM
      1 CAA       -44.0800  -20.1550   -4.2680 C.3       1 X22701      0.0000 
      2 CB        -43.9600  -19.9880   -2.7500 C.3       1 X22701      0.0000 
      3 CA        -42.4990  -19.7350   -2.3820 C.3       1 X22701      0.0000 
      4 N         -42.2800  -19.9920   -0.9590 N.4       1 X22701      0.0000 
      5 C         -42.1340  -18.2920   -2.8010 C.2       1 X22701      0.0000 
      6 O         -41.1300  -18.0620   -3.4820 O.2       1 X22701      0.0000 
      7 NAX       -42.9690  -17.3400   -2.4140 N.am      1 X22701      0.0000 
      8 CBI       -42.8110  -15.9030   -2.7870 C.3       1 X22701      0.0000 
      9 CBA       -43.0120  -15.6970   -4.3260 C.2       1 X22701      0.0000 
     10 OAE       -42.7330  -16.5510   -5.1660 O.2       1 X22701      0.0000 
     11 NBJ       -43.5760  -14.5800   -4.7310 N.am      1 X22701      0.0000 
     12 CBE       -41.6820  -15.0650   -2.1140 C.3       1 X22701      0.0000 
     13 CAR       -40.2780  -15.4650   -2.5720 C.3       1 X22701      0.0000 
     14 OAF       -39.8390  -16.5120   -1.6940 O.3       1 X22701      0.0000 
     15 CAS       -41.9360  -13.5110   -2.1220 C.3       1 X22701      0.0000 
     16 CAT       -42.6630  -12.8250   -3.3200 C.3       1 X22701      0.0000 
     17 CBF       -43.9740  -13.4900   -3.8260 C.3       1 X22701      0.0000 
     18 CAU       -44.7900  -12.5380   -4.6980 C.3       1 X22701      0.0000 
     19 CAV       -45.1500  -13.3860   -5.9090 C.3       1 X22701      0.0000 
     20 CBG       -43.9200  -14.2900   -6.1170 C.3       1 X22701      0.0000 
     21 CAZ       -42.8600  -13.5490   -6.8990 C.2       1 X22701      0.0000 
     22 OAD       -41.7520  -13.3410   -6.4210 O.2       1 X22701      0.0000 
     23 NAW       -43.2690  -13.2020   -8.1180 N.am      1 X22701      0.0000 
     24 CBH       -42.4920  -12.4370   -9.0900 C.3       1 X22701      0.0000 
     25 CBC       -41.9840  -13.2650  -10.2870 C.ar      1 X22701      0.0000 
     26 CAO       -41.7660  -12.6650  -11.5280 C.ar      1 X22701      0.0000 
     27 CAK       -41.2850  -13.4040  -12.6080 C.ar      1 X22701      0.0000 
     28 CAH       -41.0100  -14.7590  -12.4490 C.ar      1 X22701      0.0000 
     29 CAL       -41.2150  -15.3680  -11.2150 C.ar      1 X22701      0.0000 
     30 CAP       -41.6950  -14.6220  -10.1360 C.ar      1 X22701      0.0000 
     31 CBB       -43.4880  -11.3650   -9.4710 C.ar      1 X22701      0.0000 
     32 CAM       -44.6690  -11.7210  -10.1250 C.ar      1 X22701      0.0000 
     33 CAI       -45.5920  -10.7330  -10.4480 C.ar      1 X22701      0.0000 
     34 CAG       -45.3260   -9.4060  -10.0920 C.ar      1 X22701      0.0000 
     35 CAJ       -44.1530   -9.0580   -9.4160 C.ar      1 X22701      0.0000 
     36 CAN       -43.2300  -10.0480   -9.0950 C.ar      1 X22701      0.0000 
     37 H         -44.3035  -20.8910   -2.2625 H         1 X22701      0.0000 
     38 H         -44.5625  -19.1464   -2.4340 H         1 X22701      0.0000 
     39 H         -41.8939  -20.4107   -2.9887 H         1 X22701      0.0000 
     40 H         -43.8071  -17.5355   -1.8122 H         1 X22701      0.0000 
     41 H         -43.8117  -15.3982   -2.3582 H         1 X22701      0.0000 
     42 H         -41.7305  -15.3552   -1.0013 H         1 X22701      0.0000 
     43 H         -39.6420  -14.5908   -2.5093 H         1 X22701      0.0000 
     44 H         -40.3421  -15.7991   -3.6001 H         1 X22701      0.0000 
     45 H         -40.9394  -13.0049   -1.9835 H         1 X22701      0.0000 
     46 H         -42.4991  -13.2557   -1.1806 H         1 X22701      0.0000 
     47 H         -41.9505  -12.7627   -4.1690 H         1 X22701      0.0000 
     48 H         -42.8887  -11.7762   -3.0347 H         1 X22701      0.0000 
     49 H         -44.5372  -13.8425   -3.0306 H         1 X22701      0.0000 
     50 H         -44.1866  -11.7190   -4.9958 H         1 X22701      0.0000 
     51 H         -45.6706  -12.2478   -4.1844 H         1 X22701      0.0000 
     52 H         -45.2810  -12.7682   -6.7618 H         1 X22701      0.0000 
     53 H         -45.9971  -13.9882   -5.6947 H         1 X22701      0.0000 
     54 H         -44.2525  -15.1581   -6.6170 H         1 X22701      0.0000 
     55 H         -44.2402  -13.4832   -8.4614 H         1 X22701      0.0000 
     56 H         -41.6700  -11.9564   -8.5909 H         1 X22701      0.0000 
     57 H         -41.9643  -11.6575  -11.6477 H         1 X22701      0.0000 
     58 H         -41.1349  -12.9501  -13.5152 H         1 X22701      0.0000 
     59 H         -40.6562  -15.3084  -13.2416 H         1 X22701      0.0000 
     60 H         -41.0136  -16.3689  -11.0945 H         1 X22701      0.0000 
     61 H         -41.8364  -15.0769   -9.2232 H         1 X22701      0.0000 
     62 H         -44.8506  -12.6988  -10.3627 H         1 X22701      0.0000 
     63 H         -46.4560  -10.9686  -10.9397 H         1 X22701      0.0000 
     64 H         -46.0106   -8.6694  -10.3339 H         1 X22701      0.0000 
     65 H         -43.9777   -8.0830   -9.1609 H         1 X22701      0.0000 
     66 H         -42.3732   -9.8138   -8.5899 H         1 X22701      0.0000 
     67 H         -43.7658  -19.3414   -4.7571 H         1 X22701      0.0000 
     68 H         -43.5363  -20.9254   -4.6010 H         1 X22701      0.0000 
     69 H         -45.0252  -20.3197   -4.5499 H         1 X22701      0.0000 
     70 H         -41.3283  -19.8345   -0.6953 H         1 X22701      0.0000 
     71 H         -42.8453  -19.4010   -0.3836 H         1 X22701      0.0000 
     72 H         -42.4995  -20.9364   -0.7141 H         1 X22701      0.0000 
     73 H         -38.9455  -16.7886   -2.0478 H         1 X22701      0.0000 
@<TRIPOS>BOND
     1    2    1 1    
     2   67    1 1    
     3   68    1 1    
     4   69    1 1    
     5    3    2 1    
     6   37    2 1    
     7   38    2 1    
     8    4    3 1    
     9    5    3 1    
    10   39    3 1    
    11   70    4 1    
    12   71    4 1    
    13   72    4 1    
    14    6    5 2    
    15    7    5 am   
    16    8    7 1    
    17   40    7 1    
    18    9    8 1    
    19   12    8 1    
    20   41    8 1    
    21   10    9 2    
    22   11    9 am   
    23   17   11 1    
    24   20   11 1    
    25   13   12 1    
    26   15   12 1    
    27   42   12 1    
    28   14   13 1    
    29   43   13 1    
    30   44   13 1    
    31   73   14 1    
    32   16   15 1    
    33   45   15 1    
    34   46   15 1    
    35   17   16 1    
    36   47   16 1    
    37   48   16 1    
    38   18   17 1    
    39   49   17 1    
    40   19   18 1    
    41   50   18 1    
    42   51   18 1    
    43   20   19 1    
    44   52   19 1    
    45   53   19 1    
    46   21   20 1    
    47   54   20 1    
    48   22   21 2    
    49   23   21 am   
    50   24   23 1    
    51   55   23 1    
    52   25   24 1    
    53   31   24 1    
    54   56   24 1    
    55   26   25 ar   
    56   30   25 ar   
    57   27   26 ar   
    58   57   26 1    
    59   28   27 ar   
    60   58   27 1    
    61   29   28 ar   
    62   59   28 1    
    63   30   29 ar   
    64   60   29 1    
    65   61   30 1    
    66   32   31 ar   
    67   36   31 ar   
    68   33   32 ar   
    69   62   32 1    
    70   34   33 ar   
    71   63   33 1    
    72   35   34 ar   
    73   64   34 1    
    74   36   35 ar   
    75   65   35 1    
    76   66   36 1    
@<TRIPOS>SUBSTRUCTURE
     1 X22701      1 GROUP   
@<TRIPOS>SET

