#    Name: 4f76_GLY_ASN_PHE_1_INTS_M
#    Modification time : Mon Mar 24 19:01:13 2014

@<TRIPOS>MOLECULE
4f76_GLY_ASN_PHE_1_INTS_M
   54     0    12     0     0
SMALL
NO_CHARGES


@<TRIPOS>ATOM
      1 OD1        21.2575    6.3450   21.1710 O.co2     3 ASC3        0.0000 
      2 OD1        20.1460    5.0580   21.5760 O.co2    11 ASL3        0.0000 
      3 OD1        22.3690    7.6320   20.7660 O.co2     7 ASP3        0.0000 
      4 O          21.2575    6.3450   21.1710 O.2       1 ALC1        0.0000 
      5 O          20.1460    5.0580   21.5760 O.2       9 ALL1        0.0000 
      6 O          22.3690    7.6320   20.7660 O.2       5 ALP1        0.0000 
      7 N          22.8295    5.0490   18.4240 N.am      2 SEC2        0.0000 
      8 N          21.9860    4.3330   19.4540 N.am     10 SEL2        0.0000 
      9 N          23.6730    5.7650   17.3940 N.am      6 SEP2        0.0000 
     10 O          21.9625    1.5315   21.4950 O.2       1 ALC1        0.0000 
     11 O          21.9240    2.2810   20.3560 O.2       9 ALL1        0.0000 
     12 O          22.0010    0.7820   22.6340 O.2       5 ALP1        0.0000 
     13 CA         22.7785    2.7885   17.5460 C.3       4 GLC5        0.0000 
     14 CA         22.4730    1.6480   19.1680 C.3      12 GLL5        0.0000 
     15 CA         23.0840    3.9290   15.9240 C.3       8 GLP5        0.0000 
     16 CA         24.0405    2.0755   17.5205 C.3       4 GLC5        0.0000 
     17 CA         23.8970    1.2230   19.4750 C.3      12 GLL5        0.0000 
     18 CA         24.1840    2.9280   15.5660 C.3       8 GLP5        0.0000 
     19 CA         24.8760    0.3980   17.7130 C.3       4 GLC5        0.0000 
     20 CA         25.8550   -0.4270   15.9510 C.3       8 GLP5        0.0000 
     21 CA         24.5580   -0.5300   19.4100 C.3       4 GLC5        0.0000 
     22 CA         25.2190   -2.2830   19.3450 C.3       8 GLP5        0.0000 
     23 N          25.6670    4.4750   18.5215 N.am      2 SEC2        0.0000 
     24 N          24.9840    3.3230   19.1170 N.am     10 SEL2        0.0000 
     25 N          26.3500    5.6270   17.9260 N.am      6 SEP2        0.0000 
     26 O          25.9370    3.8055   21.2970 O.2       1 ALC1        0.0000 
     27 O          25.1580    2.4460   21.1670 O.2       9 ALL1        0.0000 
     28 O          26.7160    5.1650   21.4270 O.2       5 ALP1        0.0000 
     29 O          20.4910    2.4010   16.9925 O.2       1 ALC1        0.0000 
     30 O          20.6510    1.0300   17.7240 O.2       9 ALL1        0.0000 
     31 O          20.3310    3.7720   16.2610 O.2       5 ALP1        0.0000 
     32 N          22.0890    0.0725   14.4200 N.am      2 SEC2        0.0000 
     33 N          21.1700    0.0240   15.2970 N.am     10 SEL2        0.0000 
     34 N          23.0080    0.1210   13.5430 N.am      6 SEP2        0.0000 
     35 CA         15.9527    2.0150   19.0955 C.3       4 GLC5        0.0000 
     36 CA         17.9030    1.4040   18.4920 C.3      12 GLL5        0.0000 
     37 CA         14.2750    3.0800   19.2510 C.3       8 GLP5        0.0000 
     38 CA         18.7885   -0.3577   21.0160 C.3       4 GLC5        0.0000 
     39 CA         17.3580    0.4960   19.3880 C.3      12 GLL5        0.0000 
     40 CA         20.3900   -1.4080   22.0040 C.3       8 GLP5        0.0000 
     41 CA         17.2180   -1.3017   20.6415 C.3       4 GLC5        0.0000 
     42 CA         17.0160    0.8890   20.6680 C.3      12 GLL5        0.0000 
     43 CA         17.2490   -3.2960   21.2550 C.3       8 GLP5        0.0000 
     44 CA         16.1657    0.2926   17.6705 C.3       4 GLC5        0.0000 
     45 CA         14.6030   -0.2530   16.7440 C.3       8 GLP5        0.0000 
     46 CA         17.3447    3.3759   17.1217 C.3       4 GLC5        0.0000 
     47 CA         18.2950    0.9570   17.1200 C.3      12 GLL5        0.0000 
     48 CA         16.5720    4.8080   15.8850 C.3       8 GLP5        0.0000 
     49 CA         16.1225    2.9950   19.4023 C.3       4 GLC5        0.0000 
     50 CA         18.1360    2.7070   18.9110 C.3      12 GLL5        0.0000 
     51 CA         15.9535    1.1505   22.0980 C.3       4 GLC5        0.0000 
     52 CA         17.2400    2.2050   21.0780 C.3      12 GLL5        0.0000 
     53 CA         14.7790    0.7540   23.3230 C.3       8 GLP5        0.0000 
     54 CA         15.7015    2.3135   20.0620 C.3       4 GLC5        0.0000 
@<TRIPOS>BOND
@<TRIPOS>SUBSTRUCTURE
     1 ALC1        4 GROUP        1 X    ALC  0     ROOT ALC X 1
     2 SEC2        7 GROUP        1 X    SEC  0     **** SEC X 2
     3 ASC3        1 GROUP        1 X    ASC  0     **** ASC X 3
     4 GLC5       13 GROUP        1 X    GLC  0     **** GLC X 6
     5 ALP1        6 GROUP        1 Y    ALP  0     ROOT ALP Y 8
     6 SEP2        9 GROUP        1 Y    SEP  0     **** SEP Y 9
     7 ASP3        3 GROUP        1 Y    ASP  0     **** ASP Y 10
     8 GLP5       15 GROUP        1 Y    GLP  0     **** GLP Y 13
     9 ALL1        5 GROUP        1 Z    ALL  0     ROOT ALL Z 15
    10 SEL2        8 GROUP        1 Z    SEL  0     **** SEL Z 16
    11 ASL3        2 GROUP        1 Z    ASL  0     **** ASL Z 17
    12 GLL5       14 GROUP        1 Z    GLL  0     **** GLL Z 20
@<TRIPOS>SET

