#    Name: 4f76_GLY_ASN_PHE_1_ligand
#    Modification time : Mon Mar 24 19:01:13 2014

@<TRIPOS>MOLECULE
4f76_GLY_ASN_PHE_1_ligand
   45    45     3     0     0
SMALL
NO_CHARGES


@<TRIPOS>ATOM
      1 N          20.1460    5.0580   21.5760 N.4       1 GLY3        0.0000
      2 CA         21.3110    4.1490   21.7600 C.3       1 GLY3        0.0000
      3 C          21.7840    3.5960   20.4260 C.2       1 GLY3        0.0000
      4 O          21.9860    4.3330   19.4540 O.2       1 GLY3        0.0000
      5 HA2        21.0358    3.3134   22.4111 H         1 GLY3        0.0000
      6 HA3        22.1378    4.6894   22.2314 H         1 GLY3        0.0000
      7 HNCA       20.3712    5.8364   20.9901 H         1 GLY3        0.0000
      8 H          19.3711    4.5878   21.1536 H         1 GLY3        0.0000
      9 H          19.8240    5.4299   22.4466 H         1 GLY3        0.0000
     10 N          21.9240    2.2810   20.3560 N.am      2 ASN4        0.0000
     11 CA         22.4730    1.6480   19.1680 C.3       2 ASN4        0.0000
     12 C          21.5410    0.5660   18.5960 C.2       2 ASN4        0.0000
     13 O          21.6070   -0.6240   18.9270 O.2       2 ASN4        0.0000
     14 CB         23.8970    1.2230   19.4750 C.3       2 ASN4        0.0000
     15 CG         24.7510    2.4120   19.9030 C.2       2 ASN4        0.0000
     16 OD1        24.9840    3.3230   19.1170 O.2       2 ASN4        0.0000
     17 ND2        25.1580    2.4460   21.1670 N.am      2 ASN4        0.0000
     18 HNCA       21.6548    1.6443   21.1298 H         2 ASN4        0.0000
     19 HA         22.5518    2.4516   18.3796 H         2 ASN4        0.0000
     20 HB2        24.3393    0.7665   18.5866 H         2 ASN4        0.0000
     21 HB3        23.8897    0.4810   20.2767 H         2 ASN4        0.0000
     22 HD21       24.8583    1.6880   21.7463 H         2 ASN4        0.0000
     23 HD22       25.7273    3.2266   21.4251 H         2 ASN4        0.0000
     24 N          20.6510    1.0300   17.7240 N.am      3 PHE5        0.0000
     25 CA         19.6190    0.1970   17.1030 C.3       3 PHE5        0.0000
     26 C          20.0190   -0.2120   15.6880 C.2       3 PHE5        0.0000
     27 O          19.2380   -0.8140   14.9410 O.2       3 PHE5        0.0000
     28 CB         18.2950    0.9570   17.1200 C.3       3 PHE5        0.0000
     29 CG         17.9030    1.4040   18.4920 C.ar      3 PHE5        0.0000
     30 CD1        17.3580    0.4960   19.3880 C.ar      3 PHE5        0.0000
     31 CD2        18.1360    2.7070   18.9110 C.ar      3 PHE5        0.0000
     32 CE1        17.0160    0.8890   20.6680 C.ar      3 PHE5        0.0000
     33 CE2        17.8040    3.1130   20.1960 C.ar      3 PHE5        0.0000
     34 CZ         17.2400    2.2050   21.0780 C.ar      3 PHE5        0.0000
     35 OXT        21.1700    0.0240   15.2970 O.3       3 PHE5        0.0000
     36 HNCA       20.6417    2.0401   17.4289 H         3 PHE5        0.0000
     37 HA         19.4847   -0.7107   17.6943 H         3 PHE5        0.0000
     38 HB2        17.5120    0.3061   16.7019 H         3 PHE5        0.0000
     39 HB3        18.3832    1.8293   16.4545 H         3 PHE5        0.0000
     40 HD1        17.2070   -0.4841   19.0930 H         3 PHE5        0.0000
     41 HD2        18.5634    3.3852   18.2555 H         3 PHE5        0.0000
     42 HE1        16.5959    0.2168   21.3239 H         3 PHE5        0.0000
     43 HE2        17.9758    4.0818   20.4909 H         3 PHE5        0.0000
     44 HZ         16.9864    2.4938   22.0295 H         3 PHE5        0.0000
     45 H          21.5528    0.6459   15.9802 H         3 PHE5        0.0000
@<TRIPOS>BOND
     1    2    1 1
     2    7    1 1
     3    8    1 1
     4    9    1 1
     5    3    2 1
     6    5    2 1
     7    6    2 1
     8    4    3 2
     9   11   10 1
    10   18   10 1
    11   12   11 1
    12   14   11 1
    13   19   11 1
    14   13   12 2
    15   15   14 1
    16   20   14 1
    17   21   14 1
    18   16   15 2
    19   17   15 am
    20   22   17 1
    21   23   17 1
    22   25   24 1
    23   36   24 1
    24   26   25 1
    25   28   25 1
    26   37   25 1
    27   27   26 2
    28   35   26 1
    29   29   28 1
    30   38   28 1
    31   39   28 1
    32   30   29 ar
    33   31   29 ar
    34   32   30 ar
    35   40   30 1
    36   33   31 ar
    37   41   31 1
    38   34   32 ar
    39   42   32 1
    40   34   33 ar
    41   43   33 1
    42   44   34 1
    43   45   35 1
    44   10    3 am
    45   24   12 am
@<TRIPOS>SUBSTRUCTURE
     1 GLY3        1 RESIDUE
     2 ASN4       10 RESIDUE
     3 PHE5       24 RESIDUE
@<TRIPOS>SET

