#    Name: 3qtr_X36_1_INTS_M
#    Modification time : Tue Mar 25 10:07:27 2014

@<TRIPOS>MOLECULE
3qtr_X36_1_INTS_M
   50     0     9     0     0
SMALL
NO_CHARGES


@<TRIPOS>ATOM
      1 N          90.8280   82.4905  -52.1420 N.am      2 SEC2        0.0000 
      2 N          91.7380   81.8750  -51.0020 N.am      8 SEL2        0.0000 
      3 N          89.9180   83.1060  -53.2820 N.am      5 SEP2        0.0000 
      4 O          93.3245   81.8840  -53.6195 O.2       1 ALC1        0.0000 
      5 O          93.3290   81.1370  -52.5370 O.2       7 ALL1        0.0000 
      6 O          93.3200   82.6310  -54.7020 O.2       4 ALP1        0.0000 
      7 CA         91.8565   77.8250  -49.0075 C.3       3 GLC5        0.0000 
      8 CA         93.9210   77.8670  -48.2200 C.3       9 GLL5        0.0000 
      9 CA         89.7920   77.7830  -49.7950 C.3       6 GLP5        0.0000 
     10 CA         93.7350   75.1580  -47.7255 C.3       3 GLC5        0.0000 
     11 CA         94.3930   77.1080  -47.1180 C.3       9 GLL5        0.0000 
     12 CA         93.0770   73.2080  -48.3330 C.3       6 GLP5        0.0000 
     13 CA         96.8975   79.6490  -46.7540 C.3       3 GLC5        0.0000 
     14 CA         96.7440   77.7800  -47.5560 C.3       9 GLL5        0.0000 
     15 CA         97.0510   81.5180  -45.9520 C.3       6 GLP5        0.0000 
     16 CA         98.8880   77.9825  -47.9290 C.3       3 GLC5        0.0000 
     17 CA        101.0320   78.1850  -48.3020 C.3       6 GLP5        0.0000 
     18 CA         92.7330   82.3290  -47.9620 C.3       3 GLC5        0.0000 
     19 CA         92.3400   80.6440  -48.8520 C.3       9 GLL5        0.0000 
     20 CA         93.1260   84.0140  -47.0720 C.3       6 GLP5        0.0000 
     21 CA         91.0660   79.2135  -49.3235 C.3       3 GLC5        0.0000 
     22 O          89.3325   82.9695  -50.2465 O.2       1 ALC1        0.0000 
     23 O          90.2650   82.4100  -49.2730 O.2       7 ALL1        0.0000 
     24 O          88.4000   83.5290  -51.2200 O.2       4 ALP1        0.0000 
     25 CA         90.8505   82.8225  -45.1205 C.3       3 GLC5        0.0000 
     26 CA         89.3060   81.6140  -45.6160 C.3       9 GLL5        0.0000 
     27 CA         92.3950   84.0310  -44.6250 C.3       6 GLP5        0.0000 
     28 CA         94.0673   82.1290  -50.8952 C.3       3 GLC5        0.0000 
     29 CA         93.3100   80.3550  -50.2310 C.3       9 GLL5        0.0000 
     30 CA         95.0690   83.5200  -51.0250 C.3       6 GLP5        0.0000 
     31 CA         92.1453   79.5035  -51.2903 C.3       3 GLC5        0.0000 
     32 CA         92.8210   81.1210  -51.3000 C.3       9 GLL5        0.0000 
     33 CA         91.2250   78.2690  -51.8150 C.3       6 GLP5        0.0000 
     34 CA         96.0420   80.3245  -48.0695 C.3       3 GLC5        0.0000 
     35 CA         94.8760   78.6390  -49.0580 C.3       9 GLL5        0.0000 
     36 CA         96.4940   82.0450  -47.2630 C.3       6 GLP5        0.0000 
     37 CA         93.8633   77.0325  -50.3660 C.3       3 GLC5        0.0000 
     38 CA         93.3280   75.8120  -52.0930 C.3       6 GLP5        0.0000 
     39 CA         95.4220   75.9992  -48.4250 C.3       3 GLC5        0.0000 
     40 CA         96.6870   74.5110  -49.1810 C.3       6 GLP5        0.0000 
     41 CA         96.4831   76.2514  -48.5546 C.3       3 GLC5        0.0000 
     42 CA         95.7650   77.0490  -46.7690 C.3       9 GLL5        0.0000 
     43 CA         91.4810   82.9950  -47.2630 C.3       3 GLC5        0.0000 
     44 CA         90.0320   81.5460  -46.8650 C.3       9 GLL5        0.0000 
     45 CA         86.7411   82.0371  -47.4875 C.3       3 GLC5        0.0000 
     46 CA         88.4920   83.3120  -47.8780 C.3       9 GLL5        0.0000 
     47 CA         85.3250   81.1380  -48.5990 C.3       6 GLP5        0.0000 
     48 CA         87.8852   81.5188  -44.0067 C.3       3 GLC5        0.0000 
     49 CA         88.1790   82.5310  -45.5010 C.3       9 GLL5        0.0000 
     50 CA         87.0280   80.9650  -42.4550 C.3       6 GLP5        0.0000 
@<TRIPOS>BOND
@<TRIPOS>SUBSTRUCTURE
     1 ALC1        4 GROUP        1 X    ALC  0     ROOT ALC X 1
     2 SEC2        1 GROUP        1 X    SEC  0     **** SEC X 2
     3 GLC5        7 GROUP        1 X    GLC  0     **** GLC X 6
     4 ALP1        6 GROUP        1 Y    ALP  0     ROOT ALP Y 8
     5 SEP2        3 GROUP        1 Y    SEP  0     **** SEP Y 9
     6 GLP5        9 GROUP        1 Y    GLP  0     **** GLP Y 13
     7 ALL1        5 GROUP        1 Z    ALL  0     ROOT ALL Z 15
     8 SEL2        2 GROUP        1 Z    SEL  0     **** SEL Z 16
     9 GLL5        8 GROUP        1 Z    GLL  0     **** GLL Z 20
@<TRIPOS>SET

