#    Name: 3qtr_X36_1_ligand
#    Modification time : Tue Mar 25 10:07:27 2014

@<TRIPOS>MOLECULE
3qtr_X36_1_ligand
   34    36     1     0     0
SMALL
NO_CHARGES


@<TRIPOS>ATOM
      1 N1         91.7380   81.8750  -51.0020 N.2       1 X36497      0.0000 
      2 C2         92.8210   81.1210  -51.3000 C.2       1 X36497      0.0000 
      3 N3         93.3290   81.1370  -52.5370 N.pl3     1 X36497      0.0000 
      4 C4         93.3100   80.3550  -50.2310 C.2       1 X36497      0.0000 
      5 C5         94.4160   79.4660  -50.2440 C.2       1 X36497      0.0000 
      6 C6         94.8760   78.6390  -49.0580 C.ar      1 X36497      0.0000 
      7 C7         93.9210   77.8670  -48.2200 C.ar      1 X36497      0.0000 
      8 C8         94.3930   77.1080  -47.1180 C.ar      1 X36497      0.0000 
      9 C9         95.7650   77.0490  -46.7690 C.ar      1 X36497      0.0000 
     10 C10        96.7440   77.7800  -47.5560 C.ar      1 X36497      0.0000 
     11 C11        96.3040   78.5690  -48.6940 C.ar      1 X36497      0.0000 
     12 O12        95.1300   79.3060  -51.3820 O.2       1 X36497      0.0000 
     13 S13        92.3400   80.6440  -48.8520 S.3       1 X36497      0.0000 
     14 C14        91.3620   81.7220  -49.7370 C.2       1 X36497      0.0000 
     15 N15        90.2650   82.4100  -49.2730 N.pl3     1 X36497      0.0000 
     16 C16        89.6400   82.4060  -48.0430 C.ar      1 X36497      0.0000 
     17 C17        88.4920   83.3120  -47.8780 C.ar      1 X36497      0.0000 
     18 C18        87.7790   83.3710  -46.6240 C.ar      1 X36497      0.0000 
     19 C19        88.1790   82.5310  -45.5010 C.ar      1 X36497      0.0000 
     20 C20        89.3060   81.6140  -45.6160 C.ar      1 X36497      0.0000 
     21 C21        90.0320   81.5460  -46.8650 C.ar      1 X36497      0.0000 
     22 H          94.1425   80.5748  -52.6859 H         1 X36497      0.0000 
     23 H          92.8498   81.7097  -53.2021 H         1 X36497      0.0000 
     24 H          92.9416   77.9020  -48.4596 H         1 X36497      0.0000 
     25 H          93.7088   76.5778  -46.5482 H         1 X36497      0.0000 
     26 H          96.0789   76.5033  -45.9759 H         1 X36497      0.0000 
     27 H          97.7179   77.7400  -47.3148 H         1 X36497      0.0000 
     28 H          96.9763   79.0790  -49.2485 H         1 X36497      0.0000 
     29 H          89.7982   83.0903  -50.0207 H         1 X36497      0.0000 
     30 H          88.2103   83.8920  -48.6551 H         1 X36497      0.0000 
     31 H          86.9923   84.0000  -46.5168 H         1 X36497      0.0000 
     32 H          87.6665   82.5858  -44.6295 H         1 X36497      0.0000 
     33 H          89.5699   81.0413  -44.8385 H         1 X36497      0.0000 
     34 H          90.8161   80.9234  -46.9784 H         1 X36497      0.0000 
@<TRIPOS>BOND
     1    2    1 1    
     2   14    1 2    
     3    3    2 1    
     4    4    2 2    
     5   22    3 1    
     6   23    3 1    
     7    5    4 1    
     8   13    4 1    
     9    6    5 1    
    10   12    5 2    
    11    7    6 ar   
    12   11    6 ar   
    13    8    7 ar   
    14   24    7 1    
    15    9    8 ar   
    16   25    8 1    
    17   10    9 ar   
    18   26    9 1    
    19   11   10 ar   
    20   27   10 1    
    21   28   11 1    
    22   14   13 1    
    23   15   14 1    
    24   16   15 1    
    25   29   15 1    
    26   17   16 ar   
    27   21   16 ar   
    28   18   17 ar   
    29   30   17 1    
    30   19   18 ar   
    31   31   18 1    
    32   20   19 ar   
    33   32   19 1    
    34   21   20 ar   
    35   33   20 1    
    36   34   21 1    
@<TRIPOS>SUBSTRUCTURE
     1 X36497      1 GROUP   
@<TRIPOS>SET

