#    Name: 1phh_FAD_1_INTS_M
#    Modification time : Mon Mar 24 21:25:40 2014

@<TRIPOS>MOLECULE
1phh_FAD_1_INTS_M
   94     0    12     0     0
SMALL
NO_CHARGES


@<TRIPOS>ATOM
      1 NZ         23.1345  100.2660   59.2800 N.4       3 LYC4        0.0000 
      2 NZ         22.7570   98.4400   59.0660 N.4      11 LYL4        0.0000 
      3 NZ         23.5120  102.0920   59.4940 N.4       7 LYP4        0.0000 
      4 NZ         23.6100   98.4720   57.9775 N.4       3 LYC4        0.0000 
      5 NZ         24.3010   99.1180   55.7290 N.4       7 LYP4        0.0000 
      6 N          23.6100   98.4720   57.9775 N.am      2 SEC2        0.0000 
      7 N          22.7570   98.4400   59.0660 N.am     10 SEL2        0.0000 
      8 N          24.4630   98.5040   56.8890 N.am      6 SEP2        0.0000 
      9 CA         24.9925   97.3350   64.4615 C.3       4 GLC5        0.0000 
     10 CA         24.3740   98.5350   62.6960 C.3      12 GLL5        0.0000 
     11 CA         25.6110   96.1350   66.2270 C.3       8 GLP5        0.0000 
     12 CA         25.0865   96.6195   62.7165 C.3       4 GLC5        0.0000 
     13 CA         25.7990   94.7040   62.7370 C.3       8 GLP5        0.0000 
     14 CA         23.8630   99.8010   65.5355 C.3       4 GLC5        0.0000 
     15 CA         24.4460   99.7880   63.5620 C.3      12 GLL5        0.0000 
     16 CA         23.2800   99.8140   67.5090 C.3       8 GLP5        0.0000 
     17 O          24.2795  102.6330   64.3655 O.2       1 ALC1        0.0000 
     18 O          24.2790  102.1630   63.1590 O.2       9 ALL1        0.0000 
     19 O          24.2800  103.1030   65.5720 O.2       5 ALP1        0.0000 
     20 O          25.5800  102.8255   64.5470 O.2       1 ALC1        0.0000 
     21 O          26.8800  102.5480   63.5220 O.2       9 ALL1        0.0000 
     22 O          26.2795  103.4965   64.0775 O.2       1 ALC1        0.0000 
     23 O          25.6790  104.4450   64.6330 O.2       5 ALP1        0.0000 
     24 CA         24.7460  100.2205   66.1625 C.3       4 GLC5        0.0000 
     25 CA         26.2120  100.6270   64.8160 C.3      12 GLL5        0.0000 
     26 CA         28.2345   99.1215   69.5150 C.3       4 GLC5        0.0000 
     27 CA         29.6790   99.7370   68.1140 C.3      12 GLL5        0.0000 
     28 CA         26.7900   98.5060   70.9160 C.3       8 GLP5        0.0000 
     29 CA         30.1630   98.2670   69.2825 C.3       4 GLC5        0.0000 
     30 CA         30.6470   96.7970   70.4510 C.3       8 GLP5        0.0000 
     31 CA         27.2835   99.7495   69.8860 C.3       4 GLC5        0.0000 
     32 CA         27.7770  100.9930   68.8560 C.3      12 GLL5        0.0000 
     33 CA         26.5760  102.6220   68.8555 C.3       4 GLC5        0.0000 
     34 CA         25.3750  104.2510   68.8550 C.3       8 GLP5        0.0000 
     35 CA         28.7150  102.3340   68.0810 C.3       4 GLC5        0.0000 
     36 CA         29.6530  103.6750   67.3060 C.3       8 GLP5        0.0000 
     37 CA         28.3590  101.2790   70.9575 C.3       4 GLC5        0.0000 
     38 CA         28.9410  101.5650   73.0590 C.3       8 GLP5        0.0000 
     39 N          17.4840   92.7810   54.4020 N.am      2 SEC2        0.0000 
     40 N          17.5190   93.2270   52.7130 N.am     10 SEL2        0.0000 
     41 N          17.4490   92.3350   56.0910 N.am      6 SEP2        0.0000 
     42 O          14.5850   94.0100   51.4185 O.2       1 ALC1        0.0000 
     43 O          15.8380   93.6300   51.0940 O.2       9 ALL1        0.0000 
     44 O          13.3320   94.3900   51.7430 O.2       5 ALP1        0.0000 
     45 N          15.9700   96.1715   49.4160 N.am      2 SEC2        0.0000 
     46 N          16.2940   94.4930   49.0890 N.am     10 SEL2        0.0000 
     47 N          15.6460   97.8500   49.7430 N.am      6 SEP2        0.0000 
     48 N          14.8910   95.3975   49.2775 N.am      2 SEC2        0.0000 
     49 N          13.4880   96.3020   49.4660 N.am      6 SEP2        0.0000 
     50 CA         19.0035   96.1555   50.5705 C.3       4 GLC5        0.0000 
     51 CA         20.3510   94.6470   50.1310 C.3      12 GLL5        0.0000 
     52 CA         17.6560   97.6640   51.0100 C.3       8 GLP5        0.0000 
     53 CA         23.3260   94.5940   46.6360 C.3       4 GLC5        0.0000 
     54 CA         23.4930   95.8220   48.3470 C.3      12 GLL5        0.0000 
     55 CA         23.1590   93.3660   44.9250 C.3       8 GLP5        0.0000 
     56 CA         23.1290   96.5860   46.6855 C.3       4 GLC5        0.0000 
     57 CA         22.7650   97.3500   45.0240 C.3       8 GLP5        0.0000 
     58 CA         24.2460   93.1445   49.7940 C.3       4 GLC5        0.0000 
     59 CA         24.5130   94.9630   51.0300 C.3      12 GLL5        0.0000 
     60 CA         23.9790   91.3260   48.5580 C.3       8 GLP5        0.0000 
     61 CA         19.5390   91.9850   54.7425 C.3       4 GLC5        0.0000 
     62 CA         20.2120   93.5110   53.7640 C.3      12 GLL5        0.0000 
     63 CA         18.8660   90.4590   55.7210 C.3       8 GLP5        0.0000 
     64 CA         18.4610   94.6600   55.4715 C.3       4 GLC5        0.0000 
     65 CA         20.5040   94.6610   54.6950 C.3      12 GLL5        0.0000 
     66 CA         16.4180   94.6590   56.2480 C.3       8 GLP5        0.0000 
     67 CA         19.8155   92.4035   55.9325 C.3       4 GLC5        0.0000 
     68 CA         20.7650   94.3480   56.1440 C.3      12 GLL5        0.0000 
     69 CA         18.7650   93.8325   56.5250 C.3       4 GLC5        0.0000 
     70 CA         16.7650   93.3170   56.9060 C.3       8 GLP5        0.0000 
     71 O          21.6635   92.3725   57.4735 O.2       1 ALC1        0.0000 
     72 O          20.4650   93.0120   56.4750 O.2       9 ALL1        0.0000 
     73 O          22.8620   91.7330   58.4720 O.2       5 ALP1        0.0000 
     74 CA         19.0375   93.4905   59.8450 C.3       4 GLC5        0.0000 
     75 CA         20.4230   94.7350   58.5850 C.3      12 GLL5        0.0000 
     76 CA         17.6520   92.2460   61.1050 C.3       8 GLP5        0.0000 
     77 N          22.4510   93.0435   61.3830 N.am      2 SEC2        0.0000 
     78 N          22.1680   94.5130   61.2270 N.am     10 SEL2        0.0000 
     79 N          22.7340   91.5740   61.5390 N.am      6 SEP2        0.0000 
     80 CA         22.4315   99.8992   62.8515 C.3       4 GLC5        0.0000 
     81 CA         20.4530  100.6370   62.5740 C.3       8 GLP5        0.0000 
     82 CA         29.1300  101.8616   67.2065 C.3       4 GLC5        0.0000 
     83 CA         29.0950   99.7020   66.8640 C.3      12 GLL5        0.0000 
     84 CA         22.7580   93.5505   48.6723 C.3       4 GLC5        0.0000 
     85 CA         22.5470   95.2780   49.3980 C.3      12 GLL5        0.0000 
     86 CA         22.4960   91.5510   48.4720 C.3       8 GLP5        0.0000 
     87 CA         22.4825   96.6450   52.0555 C.3       4 GLC5        0.0000 
     88 CA         23.0120   94.8640   50.7060 C.3      12 GLL5        0.0000 
     89 CA         22.3680   98.6700   52.9450 C.3       8 GLP5        0.0000 
     90 CA         18.6465   95.4775   58.0595 C.3       4 GLC5        0.0000 
     91 CA         20.0850   95.2290   57.1410 C.3      12 GLL5        0.0000 
     92 CA         17.0390   95.9730   58.2560 C.3       8 GLP5        0.0000 
     93 CA         22.0959   93.0722   49.6587 C.3       4 GLC5        0.0000 
     94 CA         20.8050   94.2310   51.4070 C.3      12 GLL5        0.0000 
@<TRIPOS>BOND
@<TRIPOS>SUBSTRUCTURE
     1 ALC1       17 GROUP        1 X    ALC  0     ROOT ALC X 1
     2 SEC2        6 GROUP        1 X    SEC  0     **** SEC X 2
     3 LYC4        1 GROUP        1 X    LYC  0     **** LYC X 4
     4 GLC5        9 GROUP        1 X    GLC  0     **** GLC X 6
     5 ALP1       19 GROUP        1 Y    ALP  0     ROOT ALP Y 8
     6 SEP2        8 GROUP        1 Y    SEP  0     **** SEP Y 9
     7 LYP4        3 GROUP        1 Y    LYP  0     **** LYP Y 11
     8 GLP5       11 GROUP        1 Y    GLP  0     **** GLP Y 13
     9 ALL1       18 GROUP        1 Z    ALL  0     ROOT ALL Z 15
    10 SEL2        7 GROUP        1 Z    SEL  0     **** SEL Z 16
    11 LYL4        2 GROUP        1 Z    LYL  0     **** LYL Z 18
    12 GLL5       10 GROUP        1 Z    GLL  0     **** GLL Z 20
@<TRIPOS>SET

