#    Name: 1phh_FAD_1_ligand
#    Modification time : Mon Mar 24 21:25:40 2014

@<TRIPOS>MOLECULE
1phh_FAD_1_ligand
   84    89     1     0     0
SMALL
NO_CHARGES


@<TRIPOS>ATOM
      1 PA         23.5400   97.9170   60.2560 P.3       1 FAD395      0.0000 
      2 O1A        22.7570   98.4400   59.0660 O.co2     1 FAD395      0.0000 
      3 O2A        24.9980   97.6090   60.0810 O.co2     1 FAD395      0.0000 
      4 O5B        23.5010   98.8930   61.5380 O.3       1 FAD395      0.0000 
      5 C5B        24.3740   98.5350   62.6960 C.3       1 FAD395      0.0000 
      6 C4B        24.4460   99.7880   63.5620 C.3       1 FAD395      0.0000 
      7 O4B        25.3380   99.5400   64.6660 O.3       1 FAD395      0.0000 
      8 C3B        25.0570  101.0080   62.8060 C.3       1 FAD395      0.0000 
      9 O3B        24.2790  102.1630   63.1590 O.3       1 FAD395      0.0000 
     10 C2B        26.4390  101.2290   63.4170 C.3       1 FAD395      0.0000 
     11 O2B        26.8800  102.5480   63.5220 O.3       1 FAD395      0.0000 
     12 C1B        26.2120  100.6270   64.8160 C.3       1 FAD395      0.0000 
     13 N9A        27.4860  100.1720   65.4330 N.pl3     1 FAD395      0.0000 
     14 C8A        28.4990   99.4580   64.7990 C.2       1 FAD395      0.0000 
     15 N7A        29.4640   99.1460   65.6670 N.2       1 FAD395      0.0000 
     16 C5A        29.0950   99.7020   66.8640 C.ar      1 FAD395      0.0000 
     17 C6A        29.6790   99.7370   68.1140 C.ar      1 FAD395      0.0000 
     18 N6A        30.8650   99.1450   68.3890 N.pl3     1 FAD395      0.0000 
     19 N1A        29.0090  100.3810   69.0880 N.ar      1 FAD395      0.0000 
     20 C2A        27.7770  100.9930   68.8560 C.ar      1 FAD395      0.0000 
     21 N3A        27.1660  101.0090   67.7040 N.ar      1 FAD395      0.0000 
     22 C4A        27.8270  100.3770   66.7250 C.ar      1 FAD395      0.0000 
     23 N1         17.5190   93.2270   52.7130 N.2       1 FAD395      0.0000 
     24 C2         16.1900   93.1780   52.3340 C.2       1 FAD395      0.0000 
     25 O2         15.2850   92.7720   53.0090 O.2       1 FAD395      0.0000 
     26 N3         15.8380   93.6300   51.0940 N.am      1 FAD395      0.0000 
     27 C4         16.7540   94.1360   50.1570 C.2       1 FAD395      0.0000 
     28 O4         16.2940   94.4930   49.0890 O.2       1 FAD395      0.0000 
     29 C4X        18.1760   94.1570   50.6110 C.2       1 FAD395      0.0000 
     30 N5         19.0400   94.6070   49.7800 N.2       1 FAD395      0.0000 
     31 C5X        20.3510   94.6470   50.1310 C.ar      1 FAD395      0.0000 
     32 C6         21.2170   95.1590   49.1540 C.ar      1 FAD395      0.0000 
     33 C7         22.5470   95.2780   49.3980 C.ar      1 FAD395      0.0000 
     34 C7M        23.4930   95.8220   48.3470 C.3       1 FAD395      0.0000 
     35 C8         23.0120   94.8640   50.7060 C.ar      1 FAD395      0.0000 
     36 C8M        24.5130   94.9630   51.0300 C.3       1 FAD395      0.0000 
     37 C9         22.1820   94.3760   51.6260 C.ar      1 FAD395      0.0000 
     38 C9A        20.8050   94.2310   51.4070 C.ar      1 FAD395      0.0000 
     39 N10        19.8340   93.7500   52.3140 N.pl3     1 FAD395      0.0000 
     40 C10        18.5230   93.6970   51.9060 C.2       1 FAD395      0.0000 
     41 C1'        20.2120   93.5110   53.7640 C.3       1 FAD395      0.0000 
     42 C2'        20.5040   94.6610   54.6950 C.3       1 FAD395      0.0000 
     43 O2'        21.7420   95.3040   54.2420 O.3       1 FAD395      0.0000 
     44 C3'        20.7650   94.3480   56.1440 C.3       1 FAD395      0.0000 
     45 O3'        20.4650   93.0120   56.4750 O.3       1 FAD395      0.0000 
     46 C4'        20.0850   95.2290   57.1410 C.3       1 FAD395      0.0000 
     47 O4'        20.5800   96.5840   57.0720 O.3       1 FAD395      0.0000 
     48 C5'        20.4230   94.7350   58.5850 C.3       1 FAD395      0.0000 
     49 O5'        21.1490   95.7880   59.2300 O.3       1 FAD395      0.0000 
     50 P          21.6090   95.7140   60.6850 P.3       1 FAD395      0.0000 
     51 O1P        20.6470   96.2290   61.6160 O.co2     1 FAD395      0.0000 
     52 O2P        22.1680   94.5130   61.2270 O.co2     1 FAD395      0.0000 
     53 O3P        22.8300   96.7510   60.9330 O.3       1 FAD395      0.0000 
     54 H          25.3596   98.2816   62.3589 H         1 FAD395      0.0000 
     55 H          23.9364   97.7379   63.2638 H         1 FAD395      0.0000 
     56 H          23.4797  100.0579   63.9050 H         1 FAD395      0.0000 
     57 H          25.1190  100.8164   61.8095 H         1 FAD395      0.0000 
     58 H          27.1198  100.5581   62.9233 H         1 FAD395      0.0000 
     59 H          25.7689  101.4003   65.4289 H         1 FAD395      0.0000 
     60 H          28.4771   99.2331   63.8517 H         1 FAD395      0.0000 
     61 H          31.2036   99.2515   69.3239 H         1 FAD395      0.0000 
     62 H          31.2973   98.6537   67.6329 H         1 FAD395      0.0000 
     63 H          27.3318  101.4733   69.7065 H         1 FAD395      0.0000 
     64 H          14.8207   93.6041   50.8078 H         1 FAD395      0.0000 
     65 H          20.8172   95.4447   48.2403 H         1 FAD395      0.0000 
     66 H          22.5482   94.0770   52.5706 H         1 FAD395      0.0000 
     67 H          21.1070   92.8065   53.7789 H         1 FAD395      0.0000 
     68 H          19.3960   92.8713   54.2355 H         1 FAD395      0.0000 
     69 H          19.7118   95.3988   54.6312 H         1 FAD395      0.0000 
     70 H          21.8759   94.4948   56.3119 H         1 FAD395      0.0000 
     71 H          19.0316   95.1896   57.0322 H         1 FAD395      0.0000 
     72 H          21.0071   93.8305   58.4850 H         1 FAD395      0.0000 
     73 H          19.4846   94.5178   59.0765 H         1 FAD395      0.0000 
     74 H          24.4370   95.8501   48.6758 H         1 FAD395      0.0000 
     75 H          23.4880   95.2631   47.5178 H         1 FAD395      0.0000 
     76 H          23.2497   96.7529   48.0745 H         1 FAD395      0.0000 
     77 H          25.0643   94.4039   50.4107 H         1 FAD395      0.0000 
     78 H          24.8482   95.9021   50.9540 H         1 FAD395      0.0000 
     79 H          24.7133   94.6547   51.9599 H         1 FAD395      0.0000 
     80 H          24.4551  102.3057   64.1330 H         1 FAD395      0.0000 
     81 H          26.1522  103.0257   64.0140 H         1 FAD395      0.0000 
     82 H          22.4595   94.9240   54.8258 H         1 FAD395      0.0000 
     83 H          21.2246   92.7116   57.0518 H         1 FAD395      0.0000 
     84 H          20.8798   96.7975   58.0019 H         1 FAD395      0.0000 
@<TRIPOS>BOND
     1    2    1 ar   
     2    3    1 ar   
     3    4    1 1    
     4   53    1 1    
     5    5    4 1    
     6    6    5 1    
     7   54    5 1    
     8   55    5 1    
     9    7    6 1    
    10    8    6 1    
    11   56    6 1    
    12   12    7 1    
    13    9    8 1    
    14   10    8 1    
    15   57    8 1    
    16   80    9 1    
    17   11   10 1    
    18   12   10 1    
    19   58   10 1    
    20   81   11 1    
    21   13   12 1    
    22   59   12 1    
    23   14   13 1    
    24   22   13 1    
    25   15   14 2    
    26   60   14 1    
    27   16   15 1    
    28   17   16 ar   
    29   22   16 ar   
    30   18   17 1    
    31   19   17 ar   
    32   61   18 1    
    33   62   18 1    
    34   20   19 ar   
    35   21   20 ar   
    36   63   20 1    
    37   22   21 ar   
    38   24   23 1    
    39   40   23 2    
    40   25   24 2    
    41   26   24 am   
    42   27   26 am   
    43   64   26 1    
    44   28   27 2    
    45   29   27 1    
    46   30   29 2    
    47   40   29 1    
    48   31   30 1    
    49   32   31 ar   
    50   38   31 ar   
    51   33   32 ar   
    52   65   32 1    
    53   34   33 1    
    54   35   33 ar   
    55   74   34 1    
    56   75   34 1    
    57   76   34 1    
    58   36   35 1    
    59   37   35 ar   
    60   77   36 1    
    61   78   36 1    
    62   79   36 1    
    63   38   37 ar   
    64   66   37 1    
    65   39   38 1    
    66   40   39 1    
    67   41   39 1    
    68   42   41 1    
    69   67   41 1    
    70   68   41 1    
    71   43   42 1    
    72   44   42 1    
    73   69   42 1    
    74   82   43 1    
    75   45   44 1    
    76   46   44 1    
    77   70   44 1    
    78   83   45 1    
    79   47   46 1    
    80   48   46 1    
    81   71   46 1    
    82   84   47 1    
    83   49   48 1    
    84   72   48 1    
    85   73   48 1    
    86   50   49 1    
    87   51   50 ar   
    88   52   50 ar   
    89   53   50 1    
@<TRIPOS>SUBSTRUCTURE
     1 FAD395      1 GROUP   
@<TRIPOS>SET

