#    Name: 3CCZ_2_CAVITY_N1_6.mol2
#    Modification time : Tue Mar 11 13:36:07 2014

@<TRIPOS>MOLECULE
3CCZ_2_CAVITY_N1_6.mol2
   19     0     5     0     0
SMALL
NO_CHARGES


@<TRIPOS>ATOM
      1 CA         99.1642   -2.0911   16.6372 C.3       4 GLY6        0.0000 
      2 NZ        101.2845   -2.7687   14.6260 N.2       3 LYS4        0.0000 
      3 NZ         97.3487   -2.9916   17.2641 N.2       3 LYS4        0.0000 
      4 NZ         98.4088   -3.3304   16.2584 N.2       3 LYS4        0.0000 
      5 DU        102.7751   -4.3170   16.7190 H         5 CUB7        0.0000 
      6 CA        102.4704   -2.7389   18.1034 C.3       4 GLY6        0.0000 
      7 CA         97.6736   -0.5428   14.5442 C.3       4 GLY6        0.0000 
      8 NZ         98.7337   -0.8816   13.5386 N.2       3 LYS4        0.0000 
      9 CA         99.0385   -2.4597   12.1541 C.3       4 GLY6        0.0000 
     10 CA         97.3588   -0.9781   16.5964 C.3       4 GLY6        0.0000 
     11 CA         98.4189   -1.3170   15.5907 C.3       4 GLY6        0.0000 
     12 NZ         99.4791   -1.6558   14.5851 N.2       3 LYS4        0.0000 
     13 OD1        96.6034   -2.2175   16.2176 O.3       2 ASP3        0.0000 
     14 CA         99.9095   -2.8653   17.6838 C.3       4 GLY6        0.0000 
     15 DU        100.9697   -3.2041   16.6781 H         5 CUB7        0.0000 
     16 DU        102.0298   -3.5429   15.6725 H         5 CUB7        0.0000 
     17 NZ        100.2143   -4.4434   16.2993 N.2       3 LYS4        0.0000 
     18 NZ        101.2744   -4.7822   15.2937 N.2       3 LYS4        0.0000 
     19 N         102.3346   -5.1210   14.2881 N.2       1 ALA2        0.0000 
@<TRIPOS>BOND
@<TRIPOS>SUBSTRUCTURE
     1 ALA2       19 GROUP   
     2 ASP3       13 GROUP   
     3 LYS4        2 GROUP   
     4 GLY6        1 GROUP   
     5 CUB7        5 GROUP   
@<TRIPOS>SET

