#    Name: 3ccz_5HI_2_INTS_M
#    Modification time : Mon Mar 24 20:42:49 2014

@<TRIPOS>MOLECULE
3ccz_5HI_2_INTS_M
   89     0    12     0     0
SMALL
NO_CHARGES


@<TRIPOS>ATOM
      1 CA         96.2510   -8.8680   18.3145 C.3       4 GLC5        0.0000 
      2 CA         96.6970   -6.8460   17.6920 C.3      12 GLL5        0.0000 
      3 CA         95.8050  -10.8900   18.9370 C.3       8 GLP5        0.0000 
      4 CA         93.0800   -7.2590   16.1170 C.3       4 GLC5        0.0000 
      5 CA         94.4070   -6.0100   17.0900 C.3      12 GLL5        0.0000 
      6 CA         91.7530   -8.5080   15.1440 C.3       8 GLP5        0.0000 
      7 CA         93.4610   -4.7165   15.6125 C.3       4 GLC5        0.0000 
      8 CA         92.5150   -3.4230   14.1350 C.3       8 GLP5        0.0000 
      9 CA        101.1655  -10.4055   14.4490 C.3       4 GLC5        0.0000 
     10 CA         99.1750  -10.7100   14.8620 C.3      12 GLL5        0.0000 
     11 CA        103.1560  -10.1010   14.0360 C.3       8 GLP5        0.0000 
     12 CA         99.3380  -10.3890   12.9095 C.3       4 GLC5        0.0000 
     13 CA         99.5010  -10.0680   10.9570 C.3       8 GLP5        0.0000 
     14 CA         99.2425  -12.2535   14.3105 C.3       4 GLC5        0.0000 
     15 CA         99.3100  -13.7970   13.7590 C.3       8 GLP5        0.0000 
     16 N          98.5890  -13.3940   15.9060 N.am      2 SEC2        0.0000 
     17 N          98.7770  -12.5770   17.0470 N.am     10 SEL2        0.0000 
     18 N          98.4010  -14.2110   14.7650 N.am      6 SEP2        0.0000 
     19 CA         96.8225   -9.4060   13.0680 C.3       4 GLC5        0.0000 
     20 CA         97.1860   -9.2290   15.1830 C.3      12 GLL5        0.0000 
     21 CA         96.4590   -9.5830   10.9530 C.3       8 GLP5        0.0000 
     22 CA         96.4955  -10.0595   17.0600 C.3       4 GLC5        0.0000 
     23 CA         97.1545   -4.0725   24.2310 C.3       4 GLC5        0.0000 
     24 CA         98.3490   -5.2970   23.5770 C.3      12 GLL5        0.0000 
     25 CA         95.9600   -2.8480   24.8850 C.3       8 GLP5        0.0000 
     26 N          95.3420   -6.2680   14.4410 N.am      2 SEC2        0.0000 
     27 N          96.2000   -5.7810   15.5400 N.am     10 SEL2        0.0000 
     28 N          94.4840   -6.7550   13.3420 N.am      6 SEP2        0.0000 
     29 N          95.5795   -4.6280   14.5805 N.am      2 SEC2        0.0000 
     30 N          94.9590   -3.4750   13.6210 N.am      6 SEP2        0.0000 
     31 O          97.2170   -5.1725   14.8085 O.2       1 ALC1        0.0000 
     32 O          96.2000   -5.7810   15.5400 O.2       9 ALL1        0.0000 
     33 O          98.2340   -4.5640   14.0770 O.2       5 ALP1        0.0000 
     34 N          94.1045   -4.2555   20.5565 N.am      2 SEC2        0.0000 
     35 N          94.2990   -4.7650   19.1450 N.am     10 SEL2        0.0000 
     36 N          93.9100   -3.7460   21.9680 N.am      6 SEP2        0.0000 
     37 O          93.8220   -3.7070   18.3270 O.2       1 ALC1        0.0000 
     38 O          94.2990   -4.7650   19.1450 O.2       9 ALL1        0.0000 
     39 O          93.3450   -2.6490   17.5090 O.2       5 ALP1        0.0000 
     40 CA         92.0970   -7.3545   16.8865 C.3       4 GLC5        0.0000 
     41 CA         92.4410   -6.2010   18.6290 C.3      12 GLL5        0.0000 
     42 CA         92.0265   -4.1315   18.8720 C.3       4 GLC5        0.0000 
     43 CA         91.6120   -2.0620   19.1150 C.3       8 GLP5        0.0000 
     44 NZ         90.9005   -7.2215   21.5630 N.4       3 LYC4        0.0000 
     45 NZ         91.3470   -5.7810   20.6960 N.4      11 LYL4        0.0000 
     46 NZ         90.4540   -8.6620   22.4300 N.4       7 LYP4        0.0000 
     47 NZ         90.0635   -6.0080   19.9970 N.4       3 LYC4        0.0000 
     48 NZ         88.7800   -6.2350   19.2980 N.4       7 LYP4        0.0000 
     49 N          91.5870   -5.9070   21.9800 N.am      2 SEC2        0.0000 
     50 N          91.3470   -5.7810   20.6960 N.am     10 SEL2        0.0000 
     51 N          91.8270   -6.0330   23.2640 N.am      6 SEP2        0.0000 
     52 NZ         91.4200   -8.1795   21.4590 N.4       3 LYC4        0.0000 
     53 NZ         92.3860   -7.6970   20.4880 N.4      11 LYL4        0.0000 
     54 N          91.4200   -8.1795   21.4590 N.am      2 SEC2        0.0000 
     55 N          92.3860   -7.6970   20.4880 N.am     10 SEL2        0.0000 
     56 N          90.4540   -8.6620   22.4300 N.am      6 SEP2        0.0000 
     57 N          92.1065   -6.8650   21.8760 N.am      2 SEC2        0.0000 
     58 CA        100.5657  -14.2660   15.1382 C.3       4 GLC5        0.0000 
     59 CA        101.8850  -14.0960   16.7900 C.3      12 GLL5        0.0000 
     60 CA        101.5132  -17.6140   15.8257 C.3       4 GLC5        0.0000 
     61 CA        101.7580  -15.3740   16.2450 C.3      12 GLL5        0.0000 
     62 CA        100.9120  -19.6750   15.9770 C.3       8 GLP5        0.0000 
     63 CA        101.3287  -15.1240   13.8502 C.3       4 GLC5        0.0000 
     64 CA        102.4710  -15.7320   15.1040 C.3      12 GLL5        0.0000 
     65 CA         99.7610  -14.9770   12.8970 C.3       8 GLP5        0.0000 
     66 CA         96.9875   -9.3413   19.8080 C.3       4 GLC5        0.0000 
     67 CA         98.7280   -7.7380   20.2660 C.3      12 GLL5        0.0000 
     68 CA         96.4493   -8.8185   22.6325 C.3       4 GLC5        0.0000 
     69 CA         97.6120   -7.8470   21.0920 C.3      12 GLL5        0.0000 
     70 CA         95.3510  -10.2020   23.6160 C.3       8 GLP5        0.0000 
     71 CA        103.1285  -11.7283   14.8272 C.3       4 GLC5        0.0000 
     72 CA        102.7440  -13.1750   16.1900 C.3      12 GLL5        0.0000 
     73 CA        101.2055  -13.5762   14.6888 C.3       4 GLC5        0.0000 
     74 CA        103.4580  -13.5360   15.0470 C.3      12 GLL5        0.0000 
     75 CA        100.0900  -14.0540   19.7720 C.3       4 GLC5        0.0000 
     76 CA        101.1050  -13.7780   18.0160 C.3      12 GLL5        0.0000 
     77 CA         98.6470  -14.1760   20.9130 C.3       8 GLP5        0.0000 
     78 CA        103.5630  -14.3155   12.7740 C.3       4 GLC5        0.0000 
     79 CA        103.7360  -14.4580   10.7730 C.3       8 GLP5        0.0000 
     80 CA         97.4128  -10.4175   18.2140 C.3       4 GLC5        0.0000 
     81 CA         99.2200  -10.4480   17.9420 C.3      12 GLL5        0.0000 
     82 CA         99.4375   -4.1725   23.5209 C.3       4 GLC5        0.0000 
     83 CA         98.4760   -6.0910   22.4990 C.3      12 GLL5        0.0000 
     84 CA        100.1830   -2.6780   24.2100 C.3       8 GLP5        0.0000 
     85 CA         97.6436   -6.8235   24.3244 C.3       4 GLC5        0.0000 
     86 CA         97.1230   -7.7200   25.6840 C.3       8 GLP5        0.0000 
     87 CA         93.4535   -8.1593   18.1045 C.3       4 GLC5        0.0000 
     88 CA         93.9510   -6.0020   18.5480 C.3      12 GLL5        0.0000 
     89 CA         93.5970  -10.2150   17.9850 C.3       8 GLP5        0.0000 
@<TRIPOS>BOND
@<TRIPOS>SUBSTRUCTURE
     1 ALC1       31 GROUP        1 X    ALC  0     ROOT ALC X 1
     2 SEC2       16 GROUP        1 X    SEC  0     **** SEC X 2
     3 LYC4       44 GROUP        1 X    LYC  0     **** LYC X 4
     4 GLC5        1 GROUP        1 X    GLC  0     **** GLC X 6
     5 ALP1       33 GROUP        1 Y    ALP  0     ROOT ALP Y 8
     6 SEP2       18 GROUP        1 Y    SEP  0     **** SEP Y 9
     7 LYP4       46 GROUP        1 Y    LYP  0     **** LYP Y 11
     8 GLP5        3 GROUP        1 Y    GLP  0     **** GLP Y 13
     9 ALL1       32 GROUP        1 Z    ALL  0     ROOT ALL Z 15
    10 SEL2       17 GROUP        1 Z    SEL  0     **** SEL Z 16
    11 LYL4       45 GROUP        1 Z    LYL  0     **** LYL Z 18
    12 GLL5        2 GROUP        1 Z    GLL  0     **** GLL Z 20
@<TRIPOS>SET

