#    Name: 3ccz_5HI_2_ligand
#    Modification time : Mon Mar 24 20:42:49 2014

@<TRIPOS>MOLECULE
3ccz_5HI_2_ligand
   71    73     1     0     0
SMALL
NO_CHARGES


@<TRIPOS>ATOM
      1 N1         98.6110   -8.3360   17.7920 N.pl3     1 5HI876      0.0000 
      2 N3         99.2100   -9.9240   19.1760 N.2       1 5HI876      0.0000 
      3 C5         98.8440   -8.6360   19.0830 C.2       1 5HI876      0.0000 
      4 C6         98.6560   -9.4540   15.5510 C.3       1 5HI876      0.0000 
      5 C7         98.1750   -7.0080   17.3240 C.3       1 5HI876      0.0000 
      6 C8         96.6970   -6.8460   17.6920 C.3       1 5HI876      0.0000 
      7 C10        94.4070   -6.0100   17.0900 C.3       1 5HI876      0.0000 
      8 C13        99.1750  -10.7100   14.8620 C.3       1 5HI876      0.0000 
      9 C15        99.5940   -5.9830   21.6740 C.ar      1 5HI876      0.0000 
     10 C17       101.7580  -15.3740   16.2450 C.ar      1 5HI876      0.0000 
     11 C20       102.4710  -15.7320   15.1040 C.ar      1 5HI876      0.0000 
     12 C21        97.6120   -7.8470   21.0920 C.ar      1 5HI876      0.0000 
     13 C24        97.4830   -7.0230   22.2060 C.ar      1 5HI876      0.0000 
     14 C26       102.7440  -13.1750   16.1900 C.ar      1 5HI876      0.0000 
     15 O2         98.7770  -12.5770   17.0470 O.2       1 5HI876      0.0000 
     16 C3         99.5630  -11.8810   17.6680 C.2       1 5HI876      0.0000 
     17 N2        100.6980  -12.3770   18.1730 N.am      1 5HI876      0.0000 
     18 C1        101.1050  -13.7780   18.0160 C.3       1 5HI876      0.0000 
     19 C14       101.9610  -14.0860   19.2460 C.3       1 5HI876      0.0000 
     20 O5        103.1110  -13.2530   19.2960 O.3       1 5HI876      0.0000 
     21 C32       101.8850  -14.0960   16.7900 C.ar      1 5HI876      0.0000 
     22 C23       103.4580  -13.5360   15.0470 C.ar      1 5HI876      0.0000 
     23 C29       103.3220  -14.8100   14.5030 C.ar      1 5HI876      0.0000 
     24 C2         99.2200  -10.4480   17.9420 C.2       1 5HI876      0.0000 
     25 C19        98.8210   -9.4420   17.0400 C.2       1 5HI876      0.0000 
     26 C12        97.1860   -9.2290   15.1830 C.3       1 5HI876      0.0000 
     27 C27        98.7280   -7.7380   20.2660 C.ar      1 5HI876      0.0000 
     28 C30        98.4760   -6.0910   22.4990 C.ar      1 5HI876      0.0000 
     29 F1         98.3490   -5.2970   23.5770 F         1 5HI876      0.0000 
     30 C18        99.7220   -6.8080   20.5580 C.ar      1 5HI876      0.0000 
     31 C9         95.9110   -5.7720   16.9300 C.3       1 5HI876      0.0000 
     32 O4         96.2000   -5.7810   15.5400 O.3       1 5HI876      0.0000 
     33 C11        93.9510   -6.0020   18.5480 C.3       1 5HI876      0.0000 
     34 O3         94.2990   -4.7650   19.1450 O.3       1 5HI876      0.0000 
     35 C35        92.4410   -6.2010   18.6290 C.3       1 5HI876      0.0000 
     36 C36        92.0320   -6.5870   20.0340 C.2       1 5HI876      0.0000 
     37 O6         91.3470   -5.7810   20.6960 O.co2     1 5HI876      0.0000 
     38 O7         92.3860   -7.6970   20.4880 O.co2     1 5HI876      0.0000 
     39 H          99.2116   -8.5912   15.1323 H         1 5HI876      0.0000 
     40 H          98.2741   -6.9250   16.2500 H         1 5HI876      0.0000 
     41 H          98.7392   -6.2229   17.8091 H         1 5HI876      0.0000 
     42 H          96.6244   -6.6303   18.7822 H         1 5HI876      0.0000 
     43 H          96.1865   -7.8254   17.5494 H         1 5HI876      0.0000 
     44 H          94.1492   -6.9773   16.6386 H         1 5HI876      0.0000 
     45 H          93.8623   -5.2315   16.5393 H         1 5HI876      0.0000 
     46 H         100.3257   -5.2935   21.8890 H         1 5HI876      0.0000 
     47 H         101.1298  -16.0589   16.6924 H         1 5HI876      0.0000 
     48 H         102.3688  -16.6734   14.7078 H         1 5HI876      0.0000 
     49 H          96.8811   -8.5389   20.8776 H         1 5HI876      0.0000 
     50 H          96.6573   -7.1014   22.8116 H         1 5HI876      0.0000 
     51 H         102.8503  -12.2360   16.5876 H         1 5HI876      0.0000 
     52 H         101.3662  -11.7778   18.7167 H         1 5HI876      0.0000 
     53 H         100.2347  -14.4236   18.0857 H         1 5HI876      0.0000 
     54 H         102.2310  -15.1548   19.2015 H         1 5HI876      0.0000 
     55 H         101.3212  -13.9547   20.1352 H         1 5HI876      0.0000 
     56 H         104.0902  -12.8536   14.6034 H         1 5HI876      0.0000 
     57 H         103.8486  -15.0683   13.6602 H         1 5HI876      0.0000 
     58 H         100.5476   -6.7296   19.9531 H         1 5HI876      0.0000 
     59 H          96.1323   -4.8095   17.3723 H         1 5HI876      0.0000 
     60 H          94.4265   -6.8304   19.0514 H         1 5HI876      0.0000 
     61 H          92.1467   -6.9864   17.9340 H         1 5HI876      0.0000 
     62 H          91.9432   -5.2747   18.3450 H         1 5HI876      0.0000 
     63 H         100.1536  -10.8426   15.0195 H         1 5HI876      0.0000 
     64 H          98.7111  -11.5326   15.1908 H         1 5HI876      0.0000 
     65 H          99.0399  -10.6732   13.8719 H         1 5HI876      0.0000 
     66 H          97.0628   -9.1181   14.1968 H         1 5HI876      0.0000 
     67 H          96.6107   -9.9965   15.4658 H         1 5HI876      0.0000 
     68 H          96.8154   -8.4087   15.6187 H         1 5HI876      0.0000 
     69 H         102.7805  -12.3409   19.0533 H         1 5HI876      0.0000 
     70 H          96.9935   -5.1812   15.4369 H         1 5HI876      0.0000 
     71 H          93.9482   -4.0681   18.5195 H         1 5HI876      0.0000 
@<TRIPOS>BOND
     1    3    1 1    
     2    5    1 1    
     3   25    1 1    
     4    3    2 2    
     5   24    2 1    
     6   27    3 1    
     7    8    4 1    
     8   25    4 1    
     9   26    4 1    
    10   39    4 1    
    11    6    5 1    
    12   40    5 1    
    13   41    5 1    
    14   31    6 1    
    15   42    6 1    
    16   43    6 1    
    17   31    7 1    
    18   33    7 1    
    19   44    7 1    
    20   45    7 1    
    21   63    8 1    
    22   64    8 1    
    23   65    8 1    
    24   28    9 ar   
    25   30    9 ar   
    26   46    9 1    
    27   11   10 ar   
    28   21   10 ar   
    29   47   10 1    
    30   23   11 ar   
    31   48   11 1    
    32   13   12 ar   
    33   27   12 ar   
    34   49   12 1    
    35   28   13 ar   
    36   50   13 1    
    37   21   14 ar   
    38   22   14 ar   
    39   51   14 1    
    40   16   15 2    
    41   17   16 am   
    42   24   16 1    
    43   18   17 1    
    44   52   17 1    
    45   19   18 1    
    46   21   18 1    
    47   53   18 1    
    48   20   19 1    
    49   54   19 1    
    50   55   19 1    
    51   69   20 1    
    52   23   22 ar   
    53   56   22 1    
    54   57   23 1    
    55   25   24 2    
    56   66   26 1    
    57   67   26 1    
    58   68   26 1    
    59   30   27 ar   
    60   29   28 1    
    61   58   30 1    
    62   32   31 1    
    63   59   31 1    
    64   70   32 1    
    65   34   33 1    
    66   35   33 1    
    67   60   33 1    
    68   71   34 1    
    69   36   35 1    
    70   61   35 1    
    71   62   35 1    
    72   37   36 ar   
    73   38   36 ar   
@<TRIPOS>SUBSTRUCTURE
     1 5HI876      1 GROUP   
@<TRIPOS>SET

