#    Name: 2c9o_ADP_1_INTS_M
#    Modification time : Mon Mar 24 23:22:43 2014

@<TRIPOS>MOLECULE
2c9o_ADP_1_INTS_M
   80     0    12     0     0
SMALL
NO_CHARGES


@<TRIPOS>ATOM
      1 N          11.3480   32.1940   35.2430 N.am      2 SEC2        0.0000 
      2 N           9.9770   31.8580   35.8880 N.am     10 SEL2        0.0000 
      3 N          12.7190   32.5300   34.5980 N.am      6 SEP2        0.0000 
      4 N          10.1705   31.8885   34.6295 N.am      2 SEC2        0.0000 
      5 N          10.3640   31.9190   33.3710 N.am      6 SEP2        0.0000 
      6 N           8.4450   31.9510   35.4595 N.am      2 SEC2        0.0000 
      7 N           6.9130   32.0440   35.0310 N.am      6 SEP2        0.0000 
      8 NZ         10.7975   30.2280   38.6860 N.4       3 LYC4        0.0000 
      9 NZ         10.6410   31.6030   38.3050 N.4      11 LYL4        0.0000 
     10 NZ         10.9540   28.8530   39.0670 N.4       7 LYP4        0.0000 
     11 N          10.4800   32.4075   39.6325 N.am      2 SEC2        0.0000 
     12 N          10.6410   31.6030   38.3050 N.am     10 SEL2        0.0000 
     13 N          10.3190   33.2120   40.9600 N.am      6 SEP2        0.0000 
     14 N          11.9265   32.1840   37.8450 N.am      2 SEC2        0.0000 
     15 N          13.2120   32.7650   37.3850 N.am      6 SEP2        0.0000 
     16 N          10.7975   30.2280   38.6860 N.am      2 SEC2        0.0000 
     17 N          10.9540   28.8530   39.0670 N.am      6 SEP2        0.0000 
     18 NZ          7.5855   31.7790   36.3970 N.4       3 LYC4        0.0000 
     19 NZ          8.2580   31.5140   37.7630 N.4      11 LYL4        0.0000 
     20 NZ          5.6020   32.2850   35.1920 N.4       7 LYP4        0.0000 
     21 N           8.0165   31.7100   39.0565 N.am      2 SEC2        0.0000 
     22 N           8.2580   31.5140   37.7630 N.am     10 SEL2        0.0000 
     23 N           7.7750   31.9060   40.3500 N.am      6 SEP2        0.0000 
     24 N           7.5855   31.7790   36.3970 N.am      2 SEC2        0.0000 
     25 N          11.9130   35.1460   34.7630 N.am      2 SEC2        0.0000 
     26 N          10.7910   35.0630   35.6690 N.am     10 SEL2        0.0000 
     27 N          13.0350   35.2290   33.8570 N.am      6 SEP2        0.0000 
     28 NZ          6.9755   33.3860   35.3690 N.4       3 LYC4        0.0000 
     29 NZ          8.3490   34.4870   35.5460 N.4      11 LYL4        0.0000 
     30 N          10.7635   34.0220   38.4550 N.am      2 SEC2        0.0000 
     31 N           9.5770   33.6680   37.5650 N.am     10 SEL2        0.0000 
     32 N          11.9500   34.3760   39.3450 N.am      6 SEP2        0.0000 
     33 CA          7.9290   34.9720   39.0655 C.3       4 GLC5        0.0000 
     34 CA          7.9280   36.5980   37.6340 C.3      12 GLL5        0.0000 
     35 CA          7.9300   33.3460   40.4970 C.3       8 GLP5        0.0000 
     36 CA          6.4675   35.4035   38.0680 C.3       4 GLC5        0.0000 
     37 CA          5.0070   34.2090   38.5020 C.3       8 GLP5        0.0000 
     38 O           7.6175   40.0890   34.1135 O.2       1 ALC1        0.0000 
     39 O           7.5080   39.4620   35.2190 O.2       9 ALL1        0.0000 
     40 O           7.7270   40.7160   33.0080 O.2       5 ALP1        0.0000 
     41 CA         11.5325   38.0790   35.4150 C.3       4 GLC5        0.0000 
     42 CA          9.7110   38.7180   35.8300 C.3      12 GLL5        0.0000 
     43 CA         13.3540   37.4400   35.0000 C.3       8 GLP5        0.0000 
     44 O          10.2880   38.6385   33.7145 O.2       1 ALC1        0.0000 
     45 O          10.1320   39.5970   34.7700 O.2       9 ALL1        0.0000 
     46 O          10.4440   37.6800   32.6590 O.2       5 ALP1        0.0000 
     47 CA          9.5910   40.7080   38.4635 C.3       4 GLC5        0.0000 
     48 CA          9.8030   39.3270   37.1600 C.3      12 GLL5        0.0000 
     49 CA          9.3790   42.0890   39.7670 C.3       8 GLP5        0.0000 
     50 CA         14.8845   40.7635   37.8500 C.3       4 GLC5        0.0000 
     51 CA         13.8970   40.4290   39.5740 C.3      12 GLL5        0.0000 
     52 CA         15.8720   41.0980   36.1260 C.3       8 GLP5        0.0000 
     53 O          15.1790   40.8815   41.3960 O.2       1 ALC1        0.0000 
     54 O          14.8340   39.9520   40.4220 O.2       9 ALL1        0.0000 
     55 O          15.5240   41.8110   42.3700 O.2       5 ALP1        0.0000 
     56 O          14.3250   38.7060   40.9505 O.2       1 ALC1        0.0000 
     57 O          13.8160   37.4600   41.4790 O.2       5 ALP1        0.0000 
     58 N          14.9595   42.6310   39.7530 N.am      2 SEC2        0.0000 
     59 N          13.9060   41.6870   39.0980 N.am     10 SEL2        0.0000 
     60 N          16.0130   43.5750   40.4080 N.am      6 SEP2        0.0000 
     61 CA         12.3000   43.1570   36.6490 C.3       4 GLC5        0.0000 
     62 CA         12.9910   42.1560   38.2480 C.3      12 GLL5        0.0000 
     63 CA         11.6090   44.1580   35.0500 C.3       8 GLP5        0.0000 
     64 CA         14.6995   42.8415   38.1350 C.3       4 GLC5        0.0000 
     65 CA         16.4080   43.5270   38.0220 C.3       8 GLP5        0.0000 
     66 CA         13.3810   43.4720   39.8710 C.3       4 GLC5        0.0000 
     67 CA         13.7710   44.7880   41.4940 C.3       8 GLP5        0.0000 
     68 CA         11.1850   42.1225   39.0075 C.3       4 GLC5        0.0000 
     69 N          11.5665   42.1535   36.5930 N.am      2 SEC2        0.0000 
     70 N          11.9990   41.4030   37.8110 N.am     10 SEL2        0.0000 
     71 N          11.1340   42.9040   35.3750 N.am      6 SEP2        0.0000 
     72 CA         12.6130   38.7690   36.6160 C.3       4 GLC5        0.0000 
     73 CA         11.8720   40.0980   38.2320 C.3      12 GLL5        0.0000 
     74 CA         10.6255   41.0935   38.9995 C.3       4 GLC5        0.0000 
     75 CA          8.1590   37.8038   39.4210 C.3       4 GLC5        0.0000 
     76 CA          7.8060   38.0490   37.1740 C.3      12 GLL5        0.0000 
     77 CA          8.4510   38.2840   41.4380 C.3       8 GLP5        0.0000 
     78 CA         12.2613   40.4365   40.7348 C.3       4 GLC5        0.0000 
     79 CA         12.8200   39.5250   39.1410 C.3      12 GLL5        0.0000 
     80 CA         11.1640   40.8960   42.1120 C.3       8 GLP5        0.0000 
@<TRIPOS>BOND
@<TRIPOS>SUBSTRUCTURE
     1 ALC1       38 GROUP        1 X    ALC  0     ROOT ALC X 1
     2 SEC2        1 GROUP        1 X    SEC  0     **** SEC X 2
     3 LYC4        8 GROUP        1 X    LYC  0     **** LYC X 4
     4 GLC5       33 GROUP        1 X    GLC  0     **** GLC X 6
     5 ALP1       40 GROUP        1 Y    ALP  0     ROOT ALP Y 8
     6 SEP2        3 GROUP        1 Y    SEP  0     **** SEP Y 9
     7 LYP4       10 GROUP        1 Y    LYP  0     **** LYP Y 11
     8 GLP5       35 GROUP        1 Y    GLP  0     **** GLP Y 13
     9 ALL1       39 GROUP        1 Z    ALL  0     ROOT ALL Z 15
    10 SEL2        2 GROUP        1 Z    SEL  0     **** SEL Z 16
    11 LYL4        9 GROUP        1 Z    LYL  0     **** LYL Z 18
    12 GLL5       34 GROUP        1 Z    GLL  0     **** GLL Z 20
@<TRIPOS>SET

