#    Name: 2c9o_ADP_1_ligand
#    Modification time : Mon Mar 24 23:22:43 2014

@<TRIPOS>MOLECULE
2c9o_ADP_1_ligand
   39    41     1     0     0
SMALL
NO_CHARGES


@<TRIPOS>ATOM
      1 PB          9.6320   32.0400   37.3240 P.3       1 ADP1450     0.0000 
      2 O1B         9.9770   31.8580   35.8880 O.co2     1 ADP1450     0.0000 
      3 O2B        10.6410   31.6030   38.3050 O.co2     1 ADP1450     0.0000 
      4 O3B         8.2580   31.5140   37.7630 O.co2     1 ADP1450     0.0000 
      5 PA          9.5080   34.8120   36.4080 P.3       1 ADP1450     0.0000 
      6 O1A        10.7910   35.0630   35.6690 O.co2     1 ADP1450     0.0000 
      7 O2A         8.3490   34.4870   35.5460 O.co2     1 ADP1450     0.0000 
      8 O3A         9.5770   33.6680   37.5650 O.3       1 ADP1450     0.0000 
      9 O5'         9.2370   36.0530   37.3950 O.3       1 ADP1450     0.0000 
     10 C5'         7.9280   36.5980   37.6340 C.3       1 ADP1450     0.0000 
     11 C4'         7.8060   38.0490   37.1740 C.3       1 ADP1450     0.0000 
     12 O4'         8.7060   38.8140   37.9970 O.3       1 ADP1450     0.0000 
     13 C3'         8.2330   38.3370   35.7470 C.3       1 ADP1450     0.0000 
     14 O3'         7.5080   39.4620   35.2190 O.3       1 ADP1450     0.0000 
     15 C2'         9.7110   38.7180   35.8300 C.3       1 ADP1450     0.0000 
     16 O2'        10.1320   39.5970   34.7700 O.3       1 ADP1450     0.0000 
     17 C1'         9.8030   39.3270   37.1600 C.3       1 ADP1450     0.0000 
     18 N9         11.0150   39.1040   37.9760 N.pl3     1 ADP1450     0.0000 
     19 C8         11.3500   38.0330   38.6860 C.2       1 ADP1450     0.0000 
     20 N7         12.4650   38.2500   39.3910 N.2       1 ADP1450     0.0000 
     21 C5         12.8200   39.5250   39.1410 C.ar      1 ADP1450     0.0000 
     22 C6         13.8970   40.4290   39.5740 C.ar      1 ADP1450     0.0000 
     23 N6         14.8340   39.9520   40.4220 N.pl3     1 ADP1450     0.0000 
     24 N1         13.9060   41.6870   39.0980 N.ar      1 ADP1450     0.0000 
     25 C2         12.9910   42.1560   38.2480 C.ar      1 ADP1450     0.0000 
     26 N3         11.9990   41.4030   37.8110 N.ar      1 ADP1450     0.0000 
     27 C4         11.8720   40.0980   38.2320 C.ar      1 ADP1450     0.0000 
     28 H           7.6711   36.5646   38.7098 H         1 ADP1450     0.0000 
     29 H           7.1492   36.0131   37.1087 H         1 ADP1450     0.0000 
     30 H           6.8044   38.3927   37.3265 H         1 ADP1450     0.0000 
     31 H           8.1386   37.4690   35.1641 H         1 ADP1450     0.0000 
     32 H          10.2677   37.7889   35.8406 H         1 ADP1450     0.0000 
     33 H           9.6364   40.4183   37.0842 H         1 ADP1450     0.0000 
     34 H          10.8435   37.1825   38.6954 H         1 ADP1450     0.0000 
     35 H          15.5263   40.6064   40.7260 H         1 ADP1450     0.0000 
     36 H          14.7521   38.9868   40.6705 H         1 ADP1450     0.0000 
     37 H          13.0681   43.1616   37.9182 H         1 ADP1450     0.0000 
     38 H           8.1733   39.9610   34.6638 H         1 ADP1450     0.0000 
     39 H          10.7563   39.0496   34.2126 H         1 ADP1450     0.0000 
@<TRIPOS>BOND
     1    2    1 ar   
     2    3    1 ar   
     3    4    1 ar   
     4    8    1 1    
     5    6    5 ar   
     6    7    5 ar   
     7    8    5 1    
     8    9    5 1    
     9   10    9 1    
    10   11   10 1    
    11   28   10 1    
    12   29   10 1    
    13   12   11 1    
    14   13   11 1    
    15   30   11 1    
    16   17   12 1    
    17   14   13 1    
    18   15   13 1    
    19   31   13 1    
    20   38   14 1    
    21   16   15 1    
    22   17   15 1    
    23   32   15 1    
    24   39   16 1    
    25   18   17 1    
    26   33   17 1    
    27   19   18 1    
    28   27   18 1    
    29   20   19 2    
    30   34   19 1    
    31   21   20 1    
    32   22   21 ar   
    33   27   21 ar   
    34   23   22 1    
    35   24   22 ar   
    36   35   23 1    
    37   36   23 1    
    38   25   24 ar   
    39   26   25 ar   
    40   37   25 1    
    41   27   26 ar   
@<TRIPOS>SUBSTRUCTURE
     1 ADP1450     1 GROUP   
@<TRIPOS>SET

