#    Name: 3P0N_2_CAVITY_N1_6.mol2
#    Modification time : Mon Mar 10 12:57:45 2014

@<TRIPOS>MOLECULE
3P0N_2_CAVITY_N1_6.mol2
   88     0     7     0     0
SMALL
NO_CHARGES


@<TRIPOS>ATOM
      1 NZ         16.4871  -46.0811  -12.7198 N.2       4 LYS4        0.0000 
      2 NZ         15.1312  -47.6310  -13.2290 N.2       4 LYS4        0.0000 
      3 NZ         15.3650  -46.2277  -13.7043 N.2       4 LYS4        0.0000 
      4 OD1        15.5988  -44.8243  -14.1797 O.3       3 ASP3        0.0000 
      5 NZ         14.0091  -47.7776  -14.2136 N.2       4 LYS4        0.0000 
      6 NZ         14.2429  -46.3742  -14.6889 N.2       4 LYS4        0.0000 
      7 CZ         13.1208  -46.5208  -15.6735 C.ar      5 PHE5        0.0000 
      8 CZ         10.2221  -44.1537  -19.5779 C.ar      5 PHE5        0.0000 
      9 CZ         10.4559  -42.7503  -20.0532 C.ar      5 PHE5        0.0000 
     10 CA          9.1000  -44.3002  -20.5625 C.3       6 GLY6        0.0000 
     11 CA          9.3338  -42.8968  -21.0378 C.3       6 GLY6        0.0000 
     12 CA          9.5676  -41.4935  -21.5132 C.3       6 GLY6        0.0000 
     13 CA          9.8014  -40.0901  -21.9885 C.3       6 GLY6        0.0000 
     14 N           7.9779  -44.4467  -21.5471 N.2       2 ALA2        0.0000 
     15 CA          8.2117  -43.0434  -22.0224 C.3       6 GLY6        0.0000 
     16 CA          8.4455  -41.6400  -22.4977 C.3       6 GLY6        0.0000 
     17 CA          8.6793  -40.2367  -22.9731 C.3       6 GLY6        0.0000 
     18 CZ          7.0896  -43.1899  -23.0070 C.ar      5 PHE5        0.0000 
     19 CZ          7.3234  -41.7866  -23.4823 C.ar      5 PHE5        0.0000 
     20 OG         13.5092  -44.4618  -14.1373 O.2       1 SER1        0.0000 
     21 CZ         12.1532  -46.0117  -14.6465 C.ar      5 PHE5        0.0000 
     22 OG         12.3870  -44.6083  -15.1219 O.2       1 SER1        0.0000 
     23 CZ         11.2649  -44.7549  -16.1065 C.ar      5 PHE5        0.0000 
     24 CA         10.1428  -44.9014  -17.0910 C.3       6 GLY6        0.0000 
     25 CZ         10.3766  -43.4981  -17.5664 C.ar      5 PHE5        0.0000 
     26 CA          9.0207  -45.0479  -18.0756 C.3       6 GLY6        0.0000 
     27 CZ          9.2545  -43.6446  -18.5509 C.ar      5 PHE5        0.0000 
     28 CZ          9.4883  -42.2412  -19.0263 C.ar      5 PHE5        0.0000 
     29 CA          9.7222  -40.8379  -19.5016 C.3       6 GLY6        0.0000 
     30 CA          7.8986  -45.1945  -19.0602 C.3       6 GLY6        0.0000 
     31 N           8.1324  -43.7911  -19.5355 N.2       2 ALA2        0.0000 
     32 DU          8.3662  -42.3878  -20.0109 H         7 CUB7        0.0000 
     33 CA          8.6001  -40.9844  -20.4862 C.3       6 GLY6        0.0000 
     34 N           7.0103  -43.9377  -20.5201 N.2       2 ALA2        0.0000 
     35 N           7.2441  -42.5343  -20.9954 N.2       2 ALA2        0.0000 
     36 CA          7.4779  -41.1310  -21.4708 C.3       6 GLY6        0.0000 
     37 N           6.1220  -42.6808  -21.9800 N.2       2 ALA2        0.0000 
     38 CZ          6.3558  -41.2775  -22.4554 C.ar      5 PHE5        0.0000 
     39 NZ         11.1857  -45.5026  -13.6196 N.2       4 LYS4        0.0000 
     40 CZ         11.4195  -44.0993  -14.0949 C.ar      5 PHE5        0.0000 
     41 CA         10.2974  -44.2458  -15.0795 C.3       6 GLY6        0.0000 
     42 CZ         10.5312  -42.8425  -15.5548 C.ar      5 PHE5        0.0000 
     43 CZ          9.4091  -42.9890  -16.5394 C.ar      5 PHE5        0.0000 
     44 CA          8.0531  -44.5389  -17.0486 C.3       6 GLY6        0.0000 
     45 N           8.2870  -43.1355  -17.5240 N.2       2 ALA2        0.0000 
     46 N           8.5208  -41.7322  -17.9993 N.2       2 ALA2        0.0000 
     47 O           6.9310  -44.6854  -18.0332 O.2       2 ALA2        0.0000 
     48 N           7.1648  -43.2821  -18.5086 N.2       2 ALA2        0.0000 
     49 N           7.3987  -41.8787  -18.9839 N.2       2 ALA2        0.0000 
     50 N           6.2766  -42.0253  -19.9685 N.2       2 ALA2        0.0000 
     51 OG          5.1544  -42.1718  -20.9531 O.2       1 SER1        0.0000 
     52 CA         10.4519  -43.5902  -13.0679 C.3       6 GLY6        0.0000 
     53 CZ         10.6857  -42.1869  -13.5433 C.ar      5 PHE5        0.0000 
     54 CA          9.3298  -43.7368  -14.0525 C.3       6 GLY6        0.0000 
     55 CZ          9.5636  -42.3334  -14.5279 C.ar      5 PHE5        0.0000 
     56 CZ          9.7974  -40.9301  -15.0032 C.ar      5 PHE5        0.0000 
     57 N           8.4415  -42.4799  -15.5124 N.2       2 ALA2        0.0000 
     58 N           8.6753  -41.0766  -15.9878 N.2       2 ALA2        0.0000 
     59 O           7.3194  -42.6265  -16.4970 O.2       2 ALA2        0.0000 
     60 CA          9.7585  -46.1204  -25.6125 C.3       6 GLY6        0.0000 
     61 CZ         15.0559  -47.5389  -17.7274 C.ar      5 PHE5        0.0000 
     62 OG         15.7574  -43.3288  -19.1534 O.2       1 SER1        0.0000 
     63 CA          9.9130  -45.4648  -23.6010 C.3       6 GLY6        0.0000 
     64 CA         10.6145  -41.2548  -25.0270 C.3       6 GLY6        0.0000 
     65 N           8.7909  -45.6114  -24.5856 N.2       2 ALA2        0.0000 
     66 CA          9.0247  -44.2080  -25.0609 C.3       6 GLY6        0.0000 
     67 CA          9.2585  -42.8047  -25.5363 C.3       6 GLY6        0.0000 
     68 N           7.6688  -45.7579  -25.5702 N.2       2 ALA2        0.0000 
     69 CZ          8.1364  -42.9512  -26.5208 C.ar      5 PHE5        0.0000 
     70 CA         16.3326  -46.7367  -14.7313 C.3       6 GLY6        0.0000 
     71 OG         16.5664  -45.3334  -15.2066 O.2       1 SER1        0.0000 
     72 OG         16.8002  -43.9300  -15.6820 O.2       1 SER1        0.0000 
     73 CA         14.9767  -48.2866  -15.2406 C.3       6 GLY6        0.0000 
     74 OG         15.2105  -46.8833  -15.7159 O.2       1 SER1        0.0000 
     75 CZ         13.8546  -48.4332  -16.2251 C.ar      5 PHE5        0.0000 
     76 CZ         14.0884  -47.0298  -16.7005 C.ar      5 PHE5        0.0000 
     77 CZ         10.0676  -44.8092  -21.5895 C.ar      5 PHE5        0.0000 
     78 N           8.9455  -44.9558  -22.5740 N.2       2 ALA2        0.0000 
     79 CA          9.1793  -43.5524  -23.0494 C.3       6 GLY6        0.0000 
     80 CA          9.4131  -42.1491  -23.5247 C.3       6 GLY6        0.0000 
     81 O           9.6469  -40.7457  -24.0000 O.2       2 ALA2        0.0000 
     82 CA          9.8807  -39.3424  -24.4754 C.3       6 GLY6        0.0000 
     83 N           8.0572  -43.6990  -24.0340 N.2       2 ALA2        0.0000 
     84 CZ          8.2910  -42.2956  -24.5093 C.ar      5 PHE5        0.0000 
     85 CZ          8.5248  -40.8923  -24.9846 C.ar      5 PHE5        0.0000 
     86 CA          8.7586  -39.4889  -25.4600 C.3       6 GLY6        0.0000 
     87 CZ          6.9350  -43.8455  -25.0185 C.ar      5 PHE5        0.0000 
     88 OG          8.5960  -41.8243  -13.5009 O.2       1 SER1        0.0000 
@<TRIPOS>BOND
@<TRIPOS>SUBSTRUCTURE
     1 SER1       20 GROUP   
     2 ALA2       14 GROUP   
     3 ASP3        4 GROUP   
     4 LYS4        1 GROUP   
     5 PHE5        7 GROUP   
     6 GLY6       10 GROUP   
     7 CUB7       32 GROUP   
@<TRIPOS>SET

