#    Name: 3p0n_BPU_2_INTS_M
#    Modification time : Tue Mar 25 05:46:43 2014

@<TRIPOS>MOLECULE
3p0n_BPU_2_INTS_M
   32     0     9     0     0
SMALL
NO_CHARGES


@<TRIPOS>ATOM
      1 N           7.2845  -39.8535  -14.4725 N.am      2 SEC2        0.0000 
      2 N           8.0860  -40.9770  -14.1450 N.am      8 SEL2        0.0000 
      3 N           6.4830  -38.7300  -14.8000 N.am      5 SEP2        0.0000 
      4 N           8.2120  -40.4115  -12.8435 N.am      2 SEC2        0.0000 
      5 N           8.3380  -39.8460  -11.5420 N.am      5 SEP2        0.0000 
      6 CA         10.2870  -42.8345  -21.8295 C.3       3 GLC5        0.0000 
      7 CA          8.2330  -42.8770  -21.2400 C.3       9 GLL5        0.0000 
      8 CA         12.3410  -42.7920  -22.4190 C.3       6 GLP5        0.0000 
      9 CA         11.1015  -43.4320  -20.8100 C.3       3 GLC5        0.0000 
     10 CA          9.8620  -44.0720  -19.2010 C.3       9 GLL5        0.0000 
     11 CA          9.9885  -42.7655  -11.4915 C.3       3 GLC5        0.0000 
     12 CA         10.1730  -43.1070  -13.4360 C.3       9 GLL5        0.0000 
     13 CA          9.8040  -42.4240   -9.5470 C.3       6 GLP5        0.0000 
     14 CA         10.1660  -40.8990  -13.0265 C.3       3 GLC5        0.0000 
     15 CA         10.1590  -38.6910  -12.6170 C.3       6 GLP5        0.0000 
     16 O           7.6760  -40.5415  -16.8130 O.2       1 ALC1        0.0000 
     17 O           8.2050  -41.6680  -16.2610 O.2       7 ALL1        0.0000 
     18 O           7.1470  -39.4150  -17.3650 O.2       4 ALP1        0.0000 
     19 CA         11.8325  -42.7963  -12.3377 C.3       3 GLC5        0.0000 
     20 CA         11.0650  -44.0880  -13.6690 C.3       9 GLL5        0.0000 
     21 CA         13.0460  -41.9950  -11.1230 C.3       6 GLP5        0.0000 
     22 CA          9.4909  -45.5607  -19.6246 C.3       3 GLC5        0.0000 
     23 CA          8.9070  -43.1200  -19.4680 C.3       9 GLL5        0.0000 
     24 CA          9.4890  -47.4820  -20.2390 C.3       6 GLP5        0.0000 
     25 CA          8.8996  -44.7878  -16.2881 C.3       3 GLC5        0.0000 
     26 CA         10.2950  -44.2460  -17.9040 C.3       9 GLL5        0.0000 
     27 CA          8.4030  -46.4170  -15.2660 C.3       6 GLP5        0.0000 
     28 CA          9.3099  -44.8916  -14.8542 C.3       3 GLC5        0.0000 
     29 CA         11.0740  -44.3610  -15.0010 C.3       9 GLL5        0.0000 
     30 CA          9.8984  -41.1271  -17.5215 C.3       3 GLC5        0.0000 
     31 CA          9.7420  -43.4400  -16.9110 C.3       9 GLL5        0.0000 
     32 CA         10.6430  -39.3400  -17.6570 C.3       6 GLP5        0.0000 
@<TRIPOS>BOND
@<TRIPOS>SUBSTRUCTURE
     1 ALC1       16 GROUP        1 X    ALC  0     ROOT ALC X 1
     2 SEC2        1 GROUP        1 X    SEC  0     **** SEC X 2
     3 GLC5        6 GROUP        1 X    GLC  0     **** GLC X 6
     4 ALP1       18 GROUP        1 Y    ALP  0     ROOT ALP Y 8
     5 SEP2        3 GROUP        1 Y    SEP  0     **** SEP Y 9
     6 GLP5        8 GROUP        1 Y    GLP  0     **** GLP Y 13
     7 ALL1       17 GROUP        1 Z    ALL  0     ROOT ALL Z 15
     8 SEL2        2 GROUP        1 Z    SEL  0     **** SEL Z 16
     9 GLL5        7 GROUP        1 Z    GLL  0     **** GLL Z 20
@<TRIPOS>SET

