#    Name: 3p0n_BPU_2_ligand
#    Modification time : Tue Mar 25 05:46:43 2014

@<TRIPOS>MOLECULE
3p0n_BPU_2_ligand
   22    24     1     0     0
SMALL
NO_CHARGES


@<TRIPOS>ATOM
      1 OAA         8.0860  -40.9770  -14.1450 O.2       1 BPU1163     0.0000 
      2 BR          8.2330  -42.8770  -21.2400 Br        1 BPU1163     0.0000 
      3 CAC        11.0650  -44.0880  -13.6690 C.2       1 BPU1163     0.0000 
      4 CAD         9.8620  -44.0720  -19.2010 C.ar      1 BPU1163     0.0000 
      5 CAE        10.1730  -43.1070  -13.4360 C.2       1 BPU1163     0.0000 
      6 CAF        10.2950  -44.2460  -17.9040 C.ar      1 BPU1163     0.0000 
      7 CAG        11.0740  -44.3610  -15.0010 C.2       1 BPU1163     0.0000 
      8 CAH         8.3570  -42.3030  -18.5090 C.ar      1 BPU1163     0.0000 
      9 NAI         8.2050  -41.6680  -16.2610 N.am      1 BPU1163     0.0000 
     10 CAJ         8.9070  -43.1200  -19.4680 C.ar      1 BPU1163     0.0000 
     11 CAK         8.6130  -41.7710  -14.9530 C.2       1 BPU1163     0.0000 
     12 CAL         8.7740  -42.4740  -17.2130 C.ar      1 BPU1163     0.0000 
     13 CAM         9.5870  -42.7530  -14.6080 C.2       1 BPU1163     0.0000 
     14 CAN         9.7420  -43.4400  -16.9110 C.ar      1 BPU1163     0.0000 
     15 NAO        10.1630  -43.5780  -15.5720 N.pl3     1 BPU1163     0.0000 
     16 H          11.6114  -44.5294  -13.0059 H         1 BPU1163     0.0000 
     17 H          10.2497  -44.6482  -19.9585 H         1 BPU1163     0.0000 
     18 H           9.9763  -42.7128  -12.5730 H         1 BPU1163     0.0000 
     19 H          10.9992  -44.9424  -17.6708 H         1 BPU1163     0.0000 
     20 H          11.6412  -45.0047  -15.4333 H         1 BPU1163     0.0000 
     21 H           7.6657  -41.5973  -18.7526 H         1 BPU1163     0.0000 
     22 H           7.4752  -40.9882  -16.5237 H         1 BPU1163     0.0000 
@<TRIPOS>BOND
     1   11    1 2    
     2   10    2 1    
     3    5    3 1    
     4    7    3 2    
     5   16    3 1    
     6    6    4 ar   
     7   10    4 ar   
     8   17    4 1    
     9   13    5 2    
    10   18    5 1    
    11   14    6 ar   
    12   19    6 1    
    13   15    7 1    
    14   20    7 1    
    15   10    8 ar   
    16   12    8 ar   
    17   21    8 1    
    18   11    9 am   
    19   12    9 1    
    20   22    9 1    
    21   13   11 1    
    22   14   12 ar   
    23   15   13 1    
    24   15   14 1    
@<TRIPOS>SUBSTRUCTURE
     1 BPU1163     1 GROUP   
@<TRIPOS>SET

