#    Name: 3eem_53V_1_INTS_M
#    Modification time : Tue Mar 25 01:38:26 2014

@<TRIPOS>MOLECULE
3eem_53V_1_INTS_M
   92     0     9     0     0
SMALL
NO_CHARGES


@<TRIPOS>ATOM
      1 CA         17.6680   -9.5130   -1.1670 C.3       3 GLC5        0.0000 
      2 CA         15.7950   -9.1040   -1.7620 C.3       9 GLL5        0.0000 
      3 CA         19.5410   -9.9220   -0.5720 C.3       6 GLP5        0.0000 
      4 CA         15.5815    0.0075   -6.1190 C.3       3 GLC5        0.0000 
      5 CA         14.4170   -1.0300   -4.8270 C.3       9 GLL5        0.0000 
      6 CA         16.7460    1.0450   -7.4110 C.3       6 GLP5        0.0000 
      7 CA         15.2360   -2.4910   -5.8795 C.3       3 GLC5        0.0000 
      8 CA         16.0550   -3.9520   -6.9320 C.3       6 GLP5        0.0000 
      9 CA         13.5225    0.3040   -4.5785 C.3       3 GLC5        0.0000 
     10 CA         12.6280    1.6380   -4.3300 C.3       6 GLP5        0.0000 
     11 CA         16.0795   -0.6830   -4.0410 C.3       3 GLC5        0.0000 
     12 CA         17.7420   -0.3360   -3.2550 C.3       6 GLP5        0.0000 
     13 CA         16.5060  -12.0555   -1.2285 C.3       3 GLC5        0.0000 
     14 CA         16.5920  -10.8510   -3.0920 C.3       9 GLL5        0.0000 
     15 CA         16.4200  -13.2600    0.6350 C.3       6 GLP5        0.0000 
     16 CA         18.0665  -10.3865   -1.8320 C.3       3 GLC5        0.0000 
     17 CA         18.1735  -10.3860   -4.2245 C.3       3 GLC5        0.0000 
     18 CA         19.7550   -9.9210   -5.3570 C.3       6 GLP5        0.0000 
     19 CA         14.8500  -11.5930   -3.3355 C.3       3 GLC5        0.0000 
     20 CA         13.1080  -12.3350   -3.5790 C.3       6 GLP5        0.0000 
     21 CA         14.6910   -4.5405   -1.8415 C.3       3 GLC5        0.0000 
     22 CA         12.9880   -5.1330   -2.6100 C.3       9 GLL5        0.0000 
     23 CA         16.3940   -3.9480   -1.0730 C.3       6 GLP5        0.0000 
     24 CA         11.7780   -7.2120   -1.1415 C.3       3 GLC5        0.0000 
     25 CA         12.0130   -5.0350   -1.4080 C.3       9 GLL5        0.0000 
     26 CA         11.5430   -9.3890   -0.8750 C.3       6 GLP5        0.0000 
     27 CA         10.3640   -3.9535   -1.3360 C.3       3 GLC5        0.0000 
     28 CA          8.7150   -2.8720   -1.2640 C.3       6 GLP5        0.0000 
     29 CA         11.5155   -5.7155    0.2025 C.3       3 GLC5        0.0000 
     30 CA         11.0180   -6.3960    1.8130 C.3       6 GLP5        0.0000 
     31 CA         13.1755   -2.6100   -1.9810 C.3       3 GLC5        0.0000 
     32 CA         12.8640   -3.2810   -4.0970 C.3       9 GLL5        0.0000 
     33 CA         13.4870   -1.9390    0.1350 C.3       6 GLP5        0.0000 
     34 CA         12.5220   -0.4425   -4.7530 C.3       3 GLC5        0.0000 
     35 CA         12.4160   -2.5230   -5.1760 C.3       9 GLL5        0.0000 
     36 CA         13.2990   -4.1375   -6.6800 C.3       3 GLC5        0.0000 
     37 CA         11.4310   -3.0790   -6.0210 C.3       9 GLL5        0.0000 
     38 CA         15.1670   -5.1960   -7.3390 C.3       6 GLP5        0.0000 
     39 CA         10.0680   -1.9080   -5.2950 C.3       3 GLC5        0.0000 
     40 CA          8.7050   -0.7370   -4.5690 C.3       6 GLP5        0.0000 
     41 CA          7.4750   -6.2535   -3.4635 C.3       3 GLC5        0.0000 
     42 CA          8.4610   -5.9500   -4.7560 C.3       9 GLL5        0.0000 
     43 CA          6.4890   -6.5570   -2.1710 C.3       6 GLP5        0.0000 
     44 CA         12.6225   -7.8950   -1.8420 C.3       3 GLC5        0.0000 
     45 CA         13.7020   -6.4010   -2.8090 C.3       9 GLL5        0.0000 
     46 CA         13.5170   -8.7630   -1.6925 C.3       3 GLC5        0.0000 
     47 CA         14.3540   -7.3940   -2.8700 C.3       9 GLL5        0.0000 
     48 CA         12.6800  -10.1320   -0.5150 C.3       6 GLP5        0.0000 
     49 CA         14.8580   -6.9835   -6.3805 C.3       3 GLC5        0.0000 
     50 CA         14.5490   -8.7710   -5.4220 C.3       9 GLL5        0.0000 
     51 CA         12.9790   -8.4245   -6.1380 C.3       3 GLC5        0.0000 
     52 CA         11.4090   -8.0780   -6.8540 C.3       6 GLP5        0.0000 
     53 N          16.2065  -10.9225   -5.3975 N.am      2 SEC2        0.0000 
     54 N          15.9570  -10.3850   -4.1710 N.am      8 SEL2        0.0000 
     55 N          16.4560  -11.4600   -6.6240 N.am      5 SEP2        0.0000 
     56 O          17.3735  -12.6060   -4.4130 O.2       1 ALC1        0.0000 
     57 O          17.2690  -12.0050   -3.2060 O.2       7 ALL1        0.0000 
     58 O          17.4780  -13.2070   -5.6200 O.2       4 ALP1        0.0000 
     59 O          16.6415   -9.0165    0.3775 O.2       1 ALC1        0.0000 
     60 O          15.7610   -8.5220   -0.5650 O.2       7 ALL1        0.0000 
     61 O          17.5220   -9.5110    1.3200 O.2       4 ALP1        0.0000 
     62 O          16.9760   -7.7560    0.2160 O.2       1 ALC1        0.0000 
     63 O          18.1910   -6.9900    0.9970 O.2       4 ALP1        0.0000 
     64 CA         12.9938   -3.5115   -0.9370 C.3       3 GLC5        0.0000 
     65 CA         14.3475   -3.4270   -5.7843 C.3       3 GLC5        0.0000 
     66 CA         10.8526   -2.7715   -3.6044 C.3       3 GLC5        0.0000 
     67 CA          9.1930   -2.3230   -2.6330 C.3       6 GLP5        0.0000 
     68 CA          9.5653   -2.6442   -6.6905 C.3       3 GLC5        0.0000 
     69 CA          7.9770   -1.5650   -7.4760 C.3       6 GLP5        0.0000 
     70 CA         10.1552   -3.5325   -3.9323 C.3       3 GLC5        0.0000 
     71 CA         10.8760   -4.3680   -5.7890 C.3       9 GLL5        0.0000 
     72 CA          9.2413   -2.8950   -7.9685 C.3       3 GLC5        0.0000 
     73 CA          9.9450   -4.6170   -8.0970 C.3       9 GLL5        0.0000 
     74 CA         10.4247   -6.4615   -7.6928 C.3       3 GLC5        0.0000 
     75 CA          8.1848   -3.5010   -8.0948 C.3       3 GLC5        0.0000 
     76 CA          8.9360   -5.0730   -8.9660 C.3       9 GLL5        0.0000 
     77 CA          6.0090   -5.1718   -7.0688 C.3       3 GLC5        0.0000 
     78 CA          7.8490   -5.8010   -8.4610 C.3       9 GLL5        0.0000 
     79 CA          4.2170   -4.4160   -6.3710 C.3       6 GLP5        0.0000 
     80 CA          7.7963   -4.1405   -4.7348 C.3       3 GLC5        0.0000 
     81 CA          8.7380   -5.5880   -6.1950 C.3       9 GLL5        0.0000 
     82 CA          6.9930   -2.5120   -3.9940 C.3       6 GLP5        0.0000 
     83 CA          8.6445   -3.3940   -6.9547 C.3       3 GLC5        0.0000 
     84 CA          9.8811   -6.9817   -6.2744 C.3       3 GLC5        0.0000 
     85 CA          7.7530   -6.0540   -7.0720 C.3       9 GLL5        0.0000 
     86 CA         11.1395   -6.4712   -6.1531 C.3       3 GLC5        0.0000 
     87 CA          9.8860   -4.8580   -6.6720 C.3       9 GLL5        0.0000 
     88 CA         15.5220   -6.0032   -2.2263 C.3       3 GLC5        0.0000 
     89 CA         17.0160   -5.1090   -1.6130 C.3       6 GLP5        0.0000 
     90 CA         13.8550  -10.3345   -3.7894 C.3       3 GLC5        0.0000 
     91 CA         15.1330   -8.5800   -2.9110 C.3       9 GLL5        0.0000 
     92 CA         12.5770  -11.3110   -2.6350 C.3       6 GLP5        0.0000 
@<TRIPOS>BOND
@<TRIPOS>SUBSTRUCTURE
     1 ALC1       56 GROUP        1 X    ALC  0     ROOT ALC X 1
     2 SEC2       53 GROUP        1 X    SEC  0     **** SEC X 2
     3 GLC5        1 GROUP        1 X    GLC  0     **** GLC X 6
     4 ALP1       58 GROUP        1 Y    ALP  0     ROOT ALP Y 8
     5 SEP2       55 GROUP        1 Y    SEP  0     **** SEP Y 9
     6 GLP5        3 GROUP        1 Y    GLP  0     **** GLP Y 13
     7 ALL1       57 GROUP        1 Z    ALL  0     ROOT ALL Z 15
     8 SEL2       54 GROUP        1 Z    SEL  0     **** SEL Z 16
     9 GLL5        2 GROUP        1 Z    GLL  0     **** GLL Z 20
@<TRIPOS>SET

