#    Name: 3eem_53V_1_ligand
#    Modification time : Tue Mar 25 01:38:26 2014

@<TRIPOS>MOLECULE
3eem_53V_1_ligand
   55    57     1     0     0
SMALL
NO_CHARGES


@<TRIPOS>ATOM
      1 C1         15.7950   -9.1040   -1.7620 C.ar      1 53V229      0.0000 
      2 C2         14.4170   -1.0300   -4.8270 C.3       1 53V229      0.0000 
      3 C3         16.5920  -10.8510   -3.0920 C.ar      1 53V229      0.0000 
      4 C6         15.1330   -8.5800   -2.9110 C.ar      1 53V229      0.0000 
      5 C12        12.9880   -5.1330   -2.6100 C.3       1 53V229      0.0000 
      6 C13        12.0130   -5.0350   -1.4080 C.3       1 53V229      0.0000 
      7 C14        12.3530   -4.5530   -3.8540 C.ar      1 53V229      0.0000 
      8 C15        12.8640   -3.2810   -4.0970 C.ar      1 53V229      0.0000 
      9 C16        12.4160   -2.5230   -5.1760 C.ar      1 53V229      0.0000 
     10 C17        11.4310   -3.0790   -6.0210 C.ar      1 53V229      0.0000 
     11 C18        10.8760   -4.3680   -5.7890 C.ar      1 53V229      0.0000 
     12 C26        11.0660   -3.8330   -8.8250 C.3       1 53V229      0.0000 
     13 C20         9.9450   -4.6170   -8.0970 C.ar      1 53V229      0.0000 
     14 C21         8.9360   -5.0730   -8.9660 C.ar      1 53V229      0.0000 
     15 C22         7.8490   -5.8010   -8.4610 C.ar      1 53V229      0.0000 
     16 C23         7.7530   -6.0540   -7.0720 C.ar      1 53V229      0.0000 
     17 C24         8.7380   -5.5880   -6.1950 C.ar      1 53V229      0.0000 
     18 C27         8.4610   -5.9500   -4.7560 C.3       1 53V229      0.0000 
     19 C25         9.8860   -4.8580   -6.6720 C.ar      1 53V229      0.0000 
     20 C19        11.3590   -5.1160   -4.6740 C.ar      1 53V229      0.0000 
     21 O17        12.9770   -1.2610   -5.3610 O.3       1 53V229      0.0000 
     22 C11        13.7020   -6.4010   -2.8090 C.1       1 53V229      0.0000 
     23 C10        14.3540   -7.3940   -2.8700 C.1       1 53V229      0.0000 
     24 C5         15.2390   -9.2620   -4.1320 C.ar      1 53V229      0.0000 
     25 C8         14.5490   -8.7710   -5.4220 C.3       1 53V229      0.0000 
     26 N4         15.9570  -10.3850   -4.1710 N.ar      1 53V229      0.0000 
     27 N7         17.2690  -12.0050   -3.2060 N.pl3     1 53V229      0.0000 
     28 N2         16.4900  -10.2320   -1.9060 N.ar      1 53V229      0.0000 
     29 N9         15.7610   -8.5220   -0.5650 N.pl3     1 53V229      0.0000 
     30 H          13.8109   -4.3390   -2.3390 H         1 53V229      0.0000 
     31 H          13.5870   -2.8930   -3.4671 H         1 53V229      0.0000 
     32 H          11.0993   -2.5351   -6.8361 H         1 53V229      0.0000 
     33 H           8.9979   -4.8716   -9.9683 H         1 53V229      0.0000 
     34 H           7.1242   -6.1508   -9.0905 H         1 53V229      0.0000 
     35 H           6.9511   -6.5846   -6.7121 H         1 53V229      0.0000 
     36 H          10.9855   -6.0379   -4.4839 H         1 53V229      0.0000 
     37 H          17.2742  -12.4243   -4.1138 H         1 53V229      0.0000 
     38 H          17.7075  -12.3420   -2.3729 H         1 53V229      0.0000 
     39 H          14.9371   -7.9956   -0.3549 H         1 53V229      0.0000 
     40 H          16.5625   -8.6637    0.0161 H         1 53V229      0.0000 
     41 H          15.0759   -1.6475   -5.2566 H         1 53V229      0.0000 
     42 H          14.7326   -0.0973   -5.0013 H         1 53V229      0.0000 
     43 H          14.4755   -1.1796   -3.8400 H         1 53V229      0.0000 
     44 H          12.4129   -5.4142   -0.5736 H         1 53V229      0.0000 
     45 H          11.7630   -4.0874   -1.2088 H         1 53V229      0.0000 
     46 H          11.1626   -5.5329   -1.5780 H         1 53V229      0.0000 
     47 H          11.7716   -3.5183   -8.1901 H         1 53V229      0.0000 
     48 H          11.5224   -4.3933   -9.5162 H         1 53V229      0.0000 
     49 H          10.7100   -3.0236   -9.2921 H         1 53V229      0.0000 
     50 H           8.4111   -6.9401   -4.6251 H         1 53V229      0.0000 
     51 H           9.1740   -5.6089   -4.1434 H         1 53V229      0.0000 
     52 H           7.5934   -5.5681   -4.4374 H         1 53V229      0.0000 
     53 H          14.8587   -7.8570   -5.6840 H         1 53V229      0.0000 
     54 H          14.7346   -9.3764   -6.1960 H         1 53V229      0.0000 
     55 H          13.5555   -8.7251   -5.3174 H         1 53V229      0.0000 
@<TRIPOS>BOND
     1    4    1 ar   
     2   28    1 ar   
     3   29    1 1    
     4   21    2 1    
     5   41    2 1    
     6   42    2 1    
     7   43    2 1    
     8   26    3 ar   
     9   27    3 1    
    10   28    3 ar   
    11   23    4 1    
    12   24    4 ar   
    13    6    5 1    
    14    7    5 1    
    15   22    5 1    
    16   30    5 1    
    17   44    6 1    
    18   45    6 1    
    19   46    6 1    
    20    8    7 ar   
    21   20    7 ar   
    22    9    8 ar   
    23   31    8 1    
    24   10    9 ar   
    25   21    9 1    
    26   11   10 ar   
    27   32   10 1    
    28   19   11 1    
    29   20   11 ar   
    30   13   12 1    
    31   47   12 1    
    32   48   12 1    
    33   49   12 1    
    34   14   13 ar   
    35   19   13 ar   
    36   15   14 ar   
    37   33   14 1    
    38   16   15 ar   
    39   34   15 1    
    40   17   16 ar   
    41   35   16 1    
    42   18   17 1    
    43   19   17 ar   
    44   50   18 1    
    45   51   18 1    
    46   52   18 1    
    47   36   20 1    
    48   23   22 3    
    49   25   24 1    
    50   26   24 ar   
    51   53   25 1    
    52   54   25 1    
    53   55   25 1    
    54   37   27 1    
    55   38   27 1    
    56   39   29 1    
    57   40   29 1    
@<TRIPOS>SUBSTRUCTURE
     1 53V229      1 GROUP   
@<TRIPOS>SET

