#    Name: 3r5n_MLO_2_INTS_M
#    Modification time : Tue Mar 25 10:57:26 2014

@<TRIPOS>MOLECULE
3r5n_MLO_2_INTS_M
   53     0     3     0     0
SMALL
NO_CHARGES


@<TRIPOS>ATOM
      1 CA         65.2630   26.5020    3.7415 C.3       1 GLC5        0.0000 
      2 CA         63.9110   28.0890    3.4750 C.3       3 GLL5        0.0000 
      3 CA         66.6150   24.9150    4.0080 C.3       2 GLP5        0.0000 
      4 CA         65.2985   29.5150    3.0230 C.3       1 GLC5        0.0000 
      5 CA         66.6860   30.9410    2.5710 C.3       2 GLP5        0.0000 
      6 CA         50.7530   28.9045    4.7700 C.3       1 GLC5        0.0000 
      7 CA         52.7780   28.0210    5.1770 C.3       3 GLL5        0.0000 
      8 CA         48.7280   29.7880    4.3630 C.3       2 GLP5        0.0000 
      9 CA         57.2890   27.2580    8.4760 C.3       1 GLC5        0.0000 
     10 CA         55.9530   28.7810    7.8420 C.3       3 GLL5        0.0000 
     11 CA         58.6250   25.7350    9.1100 C.3       2 GLP5        0.0000 
     12 CA         61.6955   29.7995    2.3650 C.3       1 GLC5        0.0000 
     13 CA         61.0710   30.3540    4.3500 C.3       3 GLL5        0.0000 
     14 CA         62.3200   29.2450    0.3800 C.3       2 GLP5        0.0000 
     15 CA         61.7255   27.0785    6.7940 C.3       1 GLC5        0.0000 
     16 CA         62.1300   28.1520    5.0890 C.3       3 GLL5        0.0000 
     17 CA         61.3210   26.0050    8.4990 C.3       2 GLP5        0.0000 
     18 CA         57.7720   30.0370    9.3060 C.3       1 GLC5        0.0000 
     19 CA         57.1740   29.2040    7.3220 C.3       3 GLL5        0.0000 
     20 CA         58.3700   30.8700   11.2900 C.3       2 GLP5        0.0000 
     21 CA         62.9855   26.2982    2.7475 C.3       1 GLC5        0.0000 
     22 CA         62.6010   27.7900    3.8310 C.3       3 GLL5        0.0000 
     23 CA         62.7150   24.6570    1.8420 C.3       2 GLP5        0.0000 
     24 CA         62.7880   28.5922    2.0165 C.3       1 GLC5        0.0000 
     25 CA         52.0427   28.7793    6.7203 C.3       1 GLC5        0.0000 
     26 CA         51.9990   26.9280    5.5400 C.3       3 GLL5        0.0000 
     27 CA         51.6970   30.0840    8.0820 C.3       2 GLP5        0.0000 
     28 CA         60.6638   27.0820    3.7065 C.3       1 GLC5        0.0000 
     29 CA         58.9620   26.1930    2.9530 C.3       2 GLP5        0.0000 
     30 CA         52.8350   29.4575    3.8022 C.3       1 GLC5        0.0000 
     31 CA         54.0500   27.8210    4.6520 C.3       3 GLL5        0.0000 
     32 CA         52.2560   30.9940    2.6900 C.3       2 GLP5        0.0000 
     33 CA         59.4750   29.3095    3.3695 C.3       1 GLC5        0.0000 
     34 CA         59.9770   31.2120    4.2520 C.3       3 GLL5        0.0000 
     35 CA         58.4260   27.8360    2.4380 C.3       2 GLP5        0.0000 
     36 CA         53.5718   29.3210    7.7503 C.3       1 GLC5        0.0000 
     37 CA         55.3338   27.5340    8.9363 C.3       1 GLC5        0.0000 
     38 CA         54.9400   28.3350    6.9950 C.3       3 GLL5        0.0000 
     39 CA         55.2210   26.5100   10.4540 C.3       2 GLP5        0.0000 
     40 CA         59.3732   28.3810    3.8360 C.3       1 GLC5        0.0000 
     41 CA         60.9370   29.1120    4.9700 C.3       3 GLL5        0.0000 
     42 CA         57.6513   28.3972    3.9783 C.3       1 GLC5        0.0000 
     43 CA         57.3840   29.1830    5.9420 C.3       3 GLL5        0.0000 
     44 CA         62.3975   29.4832    6.4533 C.3       1 GLC5        0.0000 
     45 CA         63.2280   30.0240    8.0320 C.3       2 GLP5        0.0000 
     46 CA         52.7051   26.8099    3.4486 C.3       1 GLC5        0.0000 
     47 CA         52.1910   25.9720    1.8920 C.3       2 GLP5        0.0000 
     48 CA         58.5495   29.0257    3.7658 C.3       1 GLC5        0.0000 
     49 CA         58.6040   29.5950    5.4070 C.3       3 GLL5        0.0000 
     50 CA         58.5240   28.0597    7.5305 C.3       1 GLC5        0.0000 
     51 CA         59.7690   26.9260    8.4290 C.3       2 GLP5        0.0000 
     52 CA         59.6156   28.0932    6.8748 C.3       1 GLC5        0.0000 
     53 CA         59.7040   28.7400    5.4980 C.3       3 GLL5        0.0000 
@<TRIPOS>BOND
@<TRIPOS>SUBSTRUCTURE
     1 GLC5        1 GROUP        1 X    GLC  0     ROOT GLC X 6
     2 GLP5        3 GROUP        1 Y    GLP  0     ROOT GLP Y 13
     3 GLL5        2 GROUP        1 Z    GLL  0     ROOT GLL Z 20
@<TRIPOS>SET

