#    Name: 3r5n_MLO_2_ligand
#    Modification time : Tue Mar 25 10:57:26 2014

@<TRIPOS>MOLECULE
3r5n_MLO_2_ligand
   34    35     1     0     0
SMALL
NO_CHARGES


@<TRIPOS>ATOM
      1 CAA        63.9110   28.0890    3.4750 C.2       1 MLO2        0.0000 
      2 CAB        51.9990   26.9280    5.5400 C.2       1 MLO2        0.0000 
      3 OAC        57.6820   31.6850    4.6770 O.3       1 MLO2        0.0000 
      4 OAD        58.1510   29.6330    8.1690 O.3       1 MLO2        0.0000 
      5 CAE        62.6010   27.7900    3.8310 C.2       1 MLO2        0.0000 
      6 CAF        52.7780   28.0210    5.1770 C.2       1 MLO2        0.0000 
      7 CAG        59.9770   31.2120    4.2520 C.ar      1 MLO2        0.0000 
      8 CAH        55.9530   28.7810    7.8420 C.ar      1 MLO2        0.0000 
      9 CAI        61.0710   30.3540    4.3500 C.ar      1 MLO2        0.0000 
     10 CAJ        54.9400   28.3350    6.9950 C.ar      1 MLO2        0.0000 
     11 CAK        59.7040   28.7400    5.4980 C.ar      1 MLO2        0.0000 
     12 CAL        56.3690   28.7340    5.0950 C.ar      1 MLO2        0.0000 
     13 CAM        62.1300   28.1520    5.0890 C.3       1 MLO2        0.0000 
     14 CAN        54.0500   27.8210    4.6520 C.3       1 MLO2        0.0000 
     15 CAO        58.7420   30.8360    4.7800 C.ar      1 MLO2        0.0000 
     16 CAP        57.1740   29.2040    7.3220 C.ar      1 MLO2        0.0000 
     17 CAQ        60.9370   29.1120    4.9700 C.ar      1 MLO2        0.0000 
     18 CAR        55.1450   28.3120    5.6140 C.ar      1 MLO2        0.0000 
     19 CAS        58.6040   29.5950    5.4070 C.ar      1 MLO2        0.0000 
     20 CAT        57.3840   29.1830    5.9420 C.ar      1 MLO2        0.0000 
     21 H          61.9844   27.3050    3.1700 H         1 MLO2        0.0000 
     22 H          52.4146   28.9745    5.2964 H         1 MLO2        0.0000 
     23 H          60.0801   32.1244    3.7894 H         1 MLO2        0.0000 
     24 H          55.7971   28.7978    8.8608 H         1 MLO2        0.0000 
     25 H          61.9814   30.6377    3.9634 H         1 MLO2        0.0000 
     26 H          54.0430   28.0233    7.3852 H         1 MLO2        0.0000 
     27 H          59.6000   27.8242    5.9613 H         1 MLO2        0.0000 
     28 H          56.5263   28.7144    4.0762 H         1 MLO2        0.0000 
     29 H          62.8950   28.6660    5.6981 H         1 MLO2        0.0000 
     30 H          61.7852   27.2847    5.6801 H         1 MLO2        0.0000 
     31 H          54.2043   28.3565    3.6942 H         1 MLO2        0.0000 
     32 H          54.2626   26.7531    4.4462 H         1 MLO2        0.0000 
     33 H          58.0714   32.5466    4.3514 H         1 MLO2        0.0000 
     34 H          58.7166   28.8265    8.3411 H         1 MLO2        0.0000 
@<TRIPOS>BOND
     1    5    1 2    
     2    6    2 2    
     3   15    3 1    
     4   33    3 1    
     5   16    4 1    
     6   34    4 1    
     7   13    5 1    
     8   21    5 1    
     9   14    6 1    
    10   22    6 1    
    11    9    7 ar   
    12   15    7 ar   
    13   23    7 1    
    14   10    8 ar   
    15   16    8 ar   
    16   24    8 1    
    17   17    9 ar   
    18   25    9 1    
    19   18   10 ar   
    20   26   10 1    
    21   17   11 ar   
    22   19   11 ar   
    23   27   11 1    
    24   18   12 ar   
    25   20   12 ar   
    26   28   12 1    
    27   17   13 1    
    28   29   13 1    
    29   30   13 1    
    30   18   14 1    
    31   31   14 1    
    32   32   14 1    
    33   19   15 ar   
    34   20   16 ar   
    35   20   19 1    
@<TRIPOS>SUBSTRUCTURE
     1 MLO2        1 GROUP   
@<TRIPOS>SET

