#    Name: 2QK5_2_CAVITY_N1_6.mol2
#    Modification time : Tue Mar 11 08:17:15 2014

@<TRIPOS>MOLECULE
2QK5_2_CAVITY_N1_6.mol2
  130     0     6     0     0
SMALL
NO_CHARGES


@<TRIPOS>ATOM
      1 N          20.1599   31.9137   53.2000 N.2       2 ALA2        0.0000 
      2 N          18.6305   30.5434   53.7321 N.2       2 ALA2        0.0000 
      3 N          18.8650   31.4768   52.5816 N.2       2 ALA2        0.0000 
      4 O          17.1012   29.1730   54.2643 O.2       2 ALA2        0.0000 
      5 N          17.3356   30.1065   53.1138 N.2       2 ALA2        0.0000 
      6 DU         15.8063   28.7361   53.6459 H         6 CUB7        0.0000 
      7 N          16.0407   29.6695   52.4954 N.2       2 ALA2        0.0000 
      8 CA         14.7459   29.2326   51.8770 C.3       5 GLY6        0.0000 
      9 NZ         22.4762   34.1306   61.3376 N.2       3 LYS4        0.0000 
     10 N          22.7106   35.0640   60.1871 N.2       2 ALA2        0.0000 
     11 NZ         21.1813   33.6936   60.7192 N.2       3 LYS4        0.0000 
     12 NZ         21.4158   34.6271   59.5687 N.2       3 LYS4        0.0000 
     13 NZ         21.6502   35.5606   58.4182 N.2       3 LYS4        0.0000 
     14 OG         20.1209   34.1902   58.9503 O.2       1 SER1        0.0000 
     15 N          20.3553   35.1236   57.7998 N.2       2 ALA2        0.0000 
     16 N          19.2949   35.6202   56.0309 N.2       2 ALA2        0.0000 
     17 OG         17.2966   32.3829   58.8641 O.2       1 SER1        0.0000 
     18 N          18.0000   35.1833   55.4125 N.2       2 ALA2        0.0000 
     19 CA         15.0639   28.2121   62.8478 C.3       5 GLY6        0.0000 
     20 CA         15.2984   29.1456   61.6972 C.3       5 GLY6        0.0000 
     21 CA         15.5328   30.0791   60.5467 C.3       5 GLY6        0.0000 
     22 CA         15.7673   31.0125   59.3962 C.3       5 GLY6        0.0000 
     23 N          16.0018   31.9460   58.2457 N.2       2 ALA2        0.0000 
     24 N          16.2362   32.8794   57.0952 N.2       2 ALA2        0.0000 
     25 N          16.4707   33.8129   55.9447 N.2       2 ALA2        0.0000 
     26 CA         16.7052   34.7464   54.7942 C.3       5 GLY6        0.0000 
     27 OG         13.7690   27.7752   62.2294 O.2       1 SER1        0.0000 
     28 O          14.0035   28.7087   61.0789 O.2       2 ALA2        0.0000 
     29 CA         14.2380   29.6421   59.9284 C.3       5 GLY6        0.0000 
     30 O          14.4724   30.5756   58.7778 O.2       2 ALA2        0.0000 
     31 OG         14.7069   31.5091   57.6273 O.2       1 SER1        0.0000 
     32 N          14.9413   32.4425   56.4768 N.2       2 ALA2        0.0000 
     33 N          15.1758   33.3760   55.3263 N.2       2 ALA2        0.0000 
     34 CA         15.4103   34.3094   54.1758 C.3       5 GLY6        0.0000 
     35 O          12.7086   28.2718   60.4605 O.2       2 ALA2        0.0000 
     36 CA         12.9431   29.2052   59.3100 C.3       5 GLY6        0.0000 
     37 OG         13.1775   30.1387   58.1595 O.2       1 SER1        0.0000 
     38 OG         13.4120   31.0721   57.0090 O.2       1 SER1        0.0000 
     39 OG         13.6465   32.0056   55.8584 O.2       1 SER1        0.0000 
     40 CA         13.8809   32.9391   54.7079 C.3       5 GLY6        0.0000 
     41 N          12.1171   30.6352   56.3906 N.2       2 ALA2        0.0000 
     42 O          21.3263   31.0770   58.6258 O.2       2 ALA2        0.0000 
     43 CA         19.7969   29.7067   59.1579 C.3       5 GLY6        0.0000 
     44 O          20.0314   30.6401   58.0074 O.2       2 ALA2        0.0000 
     45 N          20.2659   31.5736   56.8569 N.2       2 ALA2        0.0000 
     46 N          20.5003   32.5070   55.7064 N.2       2 ALA2        0.0000 
     47 CZ         20.7348   33.4405   54.5559 C.ar      4 PHE5        0.0000 
     48 N          18.0331   27.4028   60.8406 N.2       2 ALA2        0.0000 
     49 CA         18.2676   28.3363   59.6901 C.3       5 GLY6        0.0000 
     50 CA         18.5021   29.2697   58.5396 C.3       5 GLY6        0.0000 
     51 N          18.7365   30.2032   57.3890 N.2       2 ALA2        0.0000 
     52 N          18.9710   31.1367   56.2385 N.2       2 ALA2        0.0000 
     53 N          19.2054   32.0701   55.0880 N.2       2 ALA2        0.0000 
     54 CZ         19.4399   33.0036   53.9375 C.ar      4 PHE5        0.0000 
     55 CZ         19.6744   33.9370   52.7870 C.ar      4 PHE5        0.0000 
     56 O          16.2693   25.0990   62.5232 O.2       2 ALA2        0.0000 
     57 N          16.5038   26.0325   61.3727 N.2       2 ALA2        0.0000 
     58 O          17.2072   28.8328   57.9212 O.2       2 ALA2        0.0000 
     59 O          17.4416   29.7663   56.7707 O.2       2 ALA2        0.0000 
     60 N          17.6761   30.6998   55.6202 N.2       2 ALA2        0.0000 
     61 N          17.9106   31.6332   54.4696 N.2       2 ALA2        0.0000 
     62 N          18.1450   32.5667   53.3191 N.2       2 ALA2        0.0000 
     63 N          18.3795   33.5001   52.1686 N.2       2 ALA2        0.0000 
     64 OG         14.9744   24.6621   61.9049 O.2       1 SER1        0.0000 
     65 N          15.2089   25.5955   60.7543 N.2       2 ALA2        0.0000 
     66 O          16.1468   29.3294   56.1523 O.2       2 ALA2        0.0000 
     67 DU         16.3812   30.2628   55.0018 H         6 CUB7        0.0000 
     68 DU         16.6157   31.1963   53.8513 H         6 CUB7        0.0000 
     69 N          16.8502   32.1298   52.7008 N.2       2 ALA2        0.0000 
     70 O          14.8519   28.8925   55.5339 O.2       2 ALA2        0.0000 
     71 DU         15.0863   29.8259   54.3834 H         6 CUB7        0.0000 
     72 CA         15.3208   30.7594   53.2329 C.3       5 GLY6        0.0000 
     73 CA         15.9852   35.8362   55.5317 C.3       5 GLY6        0.0000 
     74 O          13.2836   29.7985   61.8164 O.2       2 ALA2        0.0000 
     75 O          13.5180   30.7320   60.6659 O.2       2 ALA2        0.0000 
     76 OG         14.2214   33.5324   57.2143 O.2       1 SER1        0.0000 
     77 N          14.4559   34.4658   56.0638 N.2       2 ALA2        0.0000 
     78 CA         14.6903   35.3993   54.9133 C.3       5 GLY6        0.0000 
     79 OG         12.9265   33.0954   56.5960 O.2       1 SER1        0.0000 
     80 O          13.1610   34.0289   55.4455 O.2       2 ALA2        0.0000 
     81 CA         13.7359   35.5557   56.8013 C.3       5 GLY6        0.0000 
     82 N          17.8211   28.0832   53.5267 N.2       2 ALA2        0.0000 
     83 N          16.5262   27.6462   52.9084 N.2       2 ALA2        0.0000 
     84 OG         23.1961   33.0407   60.6001 O.2       1 SER1        0.0000 
     85 CZ         23.4306   33.9742   59.4496 C.ar      4 PHE5        0.0000 
     86 OG         21.9012   32.6038   59.9817 O.2       1 SER1        0.0000 
     87 CZ         22.1357   33.5373   58.8312 C.ar      4 PHE5        0.0000 
     88 OG         20.3719   31.2334   60.5138 O.2       1 SER1        0.0000 
     89 OG         20.6063   32.1669   59.3633 O.2       1 SER1        0.0000 
     90 CA         20.8408   33.1003   58.2128 C.3       5 GLY6        0.0000 
     91 CZ         21.0753   34.0338   57.0623 C.ar      4 PHE5        0.0000 
     92 CZ         21.3097   34.9673   55.9118 C.ar      4 PHE5        0.0000 
     93 O          18.8425   29.8630   61.0460 O.2       2 ALA2        0.0000 
     94 OG         19.0770   30.7965   59.8955 O.2       1 SER1        0.0000 
     95 OG         19.3115   31.7300   58.7449 O.2       1 SER1        0.0000 
     96 N          19.5459   32.6634   57.5944 N.2       2 ALA2        0.0000 
     97 N          19.7804   33.5969   56.4439 N.2       2 ALA2        0.0000 
     98 DU         20.0149   34.5303   55.2934 H         6 CUB7        0.0000 
     99 CA         20.2493   35.4638   54.1429 C.3       5 GLY6        0.0000 
    100 O          17.3132   28.4927   61.5781 O.2       2 ALA2        0.0000 
    101 CA         17.5477   29.4261   60.4276 C.3       5 GLY6        0.0000 
    102 CA         17.7821   30.3596   59.2771 C.3       5 GLY6        0.0000 
    103 OG         18.0166   31.2931   58.1266 O.2       1 SER1        0.0000 
    104 N          18.2510   32.2265   56.9761 N.2       2 ALA2        0.0000 
    105 N          18.4855   33.1600   55.8255 N.2       2 ALA2        0.0000 
    106 N          18.7200   34.0934   54.6750 N.2       2 ALA2        0.0000 
    107 CZ         18.9544   35.0269   53.5245 C.ar      4 PHE5        0.0000 
    108 O          15.7838   27.1223   62.1102 O.2       2 ALA2        0.0000 
    109 O          16.0183   28.0558   60.9597 O.2       2 ALA2        0.0000 
    110 O          16.2528   28.9892   59.8092 O.2       2 ALA2        0.0000 
    111 O          16.4872   29.9227   58.6587 O.2       2 ALA2        0.0000 
    112 DU         16.7217   30.8561   57.5082 H         6 CUB7        0.0000 
    113 N          16.9562   31.7896   56.3577 N.2       2 ALA2        0.0000 
    114 N          17.1906   32.7231   55.2072 N.2       2 ALA2        0.0000 
    115 DU         17.4251   33.6565   54.0567 H         6 CUB7        0.0000 
    116 CZ         17.6596   34.5900   52.9061 C.ar      4 PHE5        0.0000 
    117 OG         14.4890   26.6854   61.4919 O.2       1 SER1        0.0000 
    118 N          14.7234   27.6188   60.3414 N.2       2 ALA2        0.0000 
    119 O          14.9579   28.5523   59.1908 O.2       2 ALA2        0.0000 
    120 O          15.1924   29.4858   58.0403 O.2       2 ALA2        0.0000 
    121 DU         15.4268   30.4192   56.8898 H         6 CUB7        0.0000 
    122 DU         15.6613   31.3527   55.7393 H         6 CUB7        0.0000 
    123 CA         15.8958   32.2861   54.5888 C.3       5 GLY6        0.0000 
    124 CA         16.1302   33.2196   53.4383 C.3       5 GLY6        0.0000 
    125 O          13.1941   26.2485   60.8735 O.2       2 ALA2        0.0000 
    126 DU         13.4285   27.1819   59.7230 H         6 CUB7        0.0000 
    127 O          13.8975   29.0488   57.4220 O.2       2 ALA2        0.0000 
    128 DU         14.1319   29.9823   56.2714 H         6 CUB7        0.0000 
    129 CA         14.3664   30.9158   55.1209 C.3       5 GLY6        0.0000 
    130 CA         13.0715   30.4788   54.5026 C.3       5 GLY6        0.0000 
@<TRIPOS>BOND
@<TRIPOS>SUBSTRUCTURE
     1 SER1       14 GROUP   
     2 ALA2        1 GROUP   
     3 LYS4        9 GROUP   
     4 PHE5       47 GROUP   
     5 GLY6        8 GROUP   
     6 CUB7        6 GROUP   
@<TRIPOS>SET

