#    Name: 2qk5_CS5_2_INTS_M
#    Modification time : Mon Mar 24 22:24:51 2014

@<TRIPOS>MOLECULE
2qk5_CS5_2_INTS_M
  102     0    12     0     0
SMALL
NO_CHARGES


@<TRIPOS>ATOM
      1 CA         20.4195   29.4680   59.6630 C.3       4 GLC5        0.0000 
      2 CA         18.7200   30.0300   59.1900 C.3      12 GLL5        0.0000 
      3 CA         22.1190   28.9060   60.1360 C.3       8 GLP5        0.0000 
      4 CA         19.1170   28.5765   57.8110 C.3       4 GLC5        0.0000 
      5 CA         19.5140   27.1230   56.4320 C.3       8 GLP5        0.0000 
      6 CA         16.4790   33.0310   59.2485 C.3       4 GLC5        0.0000 
      7 CA         17.2650   31.6580   58.0190 C.3      12 GLL5        0.0000 
      8 CA         15.6930   34.4040   60.4780 C.3       8 GLP5        0.0000 
      9 N          13.6415   32.4975   59.5565 N.am      2 SEC2        0.0000 
     10 N          13.8560   31.4680   58.6370 N.am     10 SEL2        0.0000 
     11 N          13.4270   33.5270   60.4760 N.am      6 SEP2        0.0000 
     12 N          12.6185   32.0980   58.6295 N.am      2 SEC2        0.0000 
     13 N          11.3810   32.7280   58.6220 N.am      6 SEP2        0.0000 
     14 CA         12.2365   32.1405   58.0540 C.3       4 GLC5        0.0000 
     15 CA         13.2210   31.8400   56.0890 C.3      12 GLL5        0.0000 
     16 CA         11.2520   32.4410   60.0190 C.3       8 GLP5        0.0000 
     17 CA         11.6480   33.9870   54.5390 C.3       4 GLC5        0.0000 
     18 CA         13.1740   33.2690   55.5430 C.3      12 GLL5        0.0000 
     19 CA         10.1220   34.7050   53.5350 C.3       8 GLP5        0.0000 
     20 CA         12.8560   35.9980   55.7425 C.3       4 GLC5        0.0000 
     21 CA         13.9540   34.2750   56.3620 C.3      12 GLL5        0.0000 
     22 CA         11.7580   37.7210   55.1230 C.3       8 GLP5        0.0000 
     23 CA         14.8235   34.3395   58.4200 C.3       4 GLC5        0.0000 
     24 O          18.2280   34.2470   58.0700 O.2       1 ALC1        0.0000 
     25 O          19.4510   33.4130   58.0140 O.2       9 ALL1        0.0000 
     26 O          17.0050   35.0810   58.1260 O.2       5 ALP1        0.0000 
     27 N          22.2280   30.7240   58.2115 N.am      2 SEC2        0.0000 
     28 N          20.8540   31.6450   58.0550 N.am     10 SEL2        0.0000 
     29 N          23.6020   29.8030   58.3680 N.am      6 SEP2        0.0000 
     30 CA         21.5450   36.8875   60.1055 C.3       4 GLC5        0.0000 
     31 CA         21.0920   35.1100   58.9080 C.3      12 GLL5        0.0000 
     32 CA         21.9980   38.6650   61.3030 C.3       8 GLP5        0.0000 
     33 CA         18.6910   36.2965   57.5715 C.3       4 GLC5        0.0000 
     34 CA         20.2710   35.1790   56.5000 C.3      12 GLL5        0.0000 
     35 CA         17.1110   37.4140   58.6430 C.3       8 GLP5        0.0000 
     36 O          20.9540   37.3665   58.6440 O.2       1 ALC1        0.0000 
     37 O          22.0730   36.0400   58.4330 O.2       9 ALL1        0.0000 
     38 O          19.8350   38.6930   58.8550 O.2       5 ALP1        0.0000 
     39 O          21.7240   37.1825   57.8840 O.2       1 ALC1        0.0000 
     40 O          21.3750   38.3250   57.3350 O.2       5 ALP1        0.0000 
     41 OD1        21.2520   35.3030   61.5605 O.co2     3 ASC3        0.0000 
     42 OD1        22.4310   35.0190   60.9850 O.co2    11 ASL3        0.0000 
     43 OD1        20.0730   35.5870   62.1360 O.co2     7 ASP3        0.0000 
     44 CA         24.8155   35.0680   62.6050 C.3       4 GLC5        0.0000 
     45 CA         23.3610   34.2110   61.8110 C.3      12 GLL5        0.0000 
     46 CA         26.2700   35.9250   63.3990 C.3       8 GLP5        0.0000 
     47 CA         22.8245   34.9635   63.6650 C.3       4 GLC5        0.0000 
     48 CA         22.2880   35.7160   65.5190 C.3       8 GLP5        0.0000 
     49 CA         19.0310   31.9640   51.3830 C.3       4 GLC5        0.0000 
     50 CA         18.3960   32.8240   53.3400 C.3      12 GLL5        0.0000 
     51 CA         19.6660   31.1040   49.4260 C.3       8 GLP5        0.0000 
     52 CA         21.9535   32.5420   55.4710 C.3       4 GLC5        0.0000 
     53 CA         20.3440   33.3150   54.7760 C.3      12 GLL5        0.0000 
     54 CA         23.5630   31.7690   56.1660 C.3       8 GLP5        0.0000 
     55 CA         23.4690   30.5680   60.6330 C.3       4 GLC5        0.0000 
     56 CA         24.8190   32.2300   61.1300 C.3      12 GLL5        0.0000 
     57 CA         24.5385   30.1315   59.7265 C.3       4 GLC5        0.0000 
     58 CA         25.8960   31.6690   60.3780 C.3      12 GLL5        0.0000 
     59 CA         23.1810   28.5940   59.0750 C.3       8 GLP5        0.0000 
     60 CA         25.6410   37.2155   58.0035 C.3       4 GLC5        0.0000 
     61 CA         26.7630   36.0440   58.5710 C.3      12 GLL5        0.0000 
     62 CA         24.5190   38.3870   57.4360 C.3       8 GLP5        0.0000 
     63 CA         25.3525   35.1575   57.2995 C.3       4 GLC5        0.0000 
     64 CA         23.9420   34.2710   56.0280 C.3       8 GLP5        0.0000 
     65 CA         27.2650   37.4990   60.1725 C.3       4 GLC5        0.0000 
     66 CA         27.7670   38.9540   61.7740 C.3       8 GLP5        0.0000 
     67 CA         19.6915   27.7950   60.5100 C.3       4 GLC5        0.0000 
     68 CA         17.7420   27.9590   60.2120 C.3      12 GLL5        0.0000 
     69 CA         21.6410   27.6310   60.8080 C.3       8 GLP5        0.0000 
     70 CA         17.3565   28.6480   62.1850 C.3       4 GLC5        0.0000 
     71 CA         16.9710   29.3370   64.1580 C.3       8 GLP5        0.0000 
     72 CA         14.8800   33.3950   52.7905 C.3       4 GLC5        0.0000 
     73 CA         16.4120   34.1470   53.6010 C.3      12 GLL5        0.0000 
     74 CA         13.3480   32.6430   51.9800 C.3       8 GLP5        0.0000 
     75 CA         15.9295   35.0650   52.2010 C.3       4 GLC5        0.0000 
     76 CA         15.4470   35.9830   50.8010 C.3       8 GLP5        0.0000 
     77 CA         22.1645   32.2910   53.5750 C.3       4 GLC5        0.0000 
     78 CA         20.4100   31.5590   53.1510 C.3      12 GLL5        0.0000 
     79 CA         23.9190   33.0230   53.9990 C.3       8 GLP5        0.0000 
     80 CA         21.1460   30.0965   52.9435 C.3       4 GLC5        0.0000 
     81 CA         21.8820   28.6340   52.7360 C.3       8 GLP5        0.0000 
     82 CA         20.8145   32.5825   51.9060 C.3       4 GLC5        0.0000 
     83 CA         21.2190   33.6060   50.6610 C.3       8 GLP5        0.0000 
     84 CA         18.4385   27.4112   58.7302 C.3       4 GLC5        0.0000 
     85 CA         17.5820   29.2180   59.4650 C.3      12 GLL5        0.0000 
     86 CA         19.2150   26.2340   57.6220 C.3       8 GLP5        0.0000 
     87 CA         17.4032   31.5375   60.4032 C.3       4 GLC5        0.0000 
     88 CA         16.1670   32.4330   61.9780 C.3       8 GLP5        0.0000 
     89 CA         16.3473   31.2832   60.3715 C.3       4 GLC5        0.0000 
     90 CA         14.3435   31.6553   53.4813 C.3       4 GLC5        0.0000 
     91 CA         15.5810   31.2010   55.4670 C.3      12 GLL5        0.0000 
     92 CA         13.2728   32.5988   53.8980 C.3       4 GLC5        0.0000 
     93 CA         22.2504   34.6038   56.7144 C.3       4 GLC5        0.0000 
     94 CA         20.6010   34.2780   57.6950 C.3      12 GLL5        0.0000 
     95 CA         20.5770   36.4507   54.8828 C.3       4 GLC5        0.0000 
     96 CA         21.2080   38.1300   53.8120 C.3       8 GLP5        0.0000 
     97 CA         25.5711   32.0037   58.1406 C.3       4 GLC5        0.0000 
     98 CA         26.6650   32.4950   59.5010 C.3      12 GLL5        0.0000 
     99 CA         24.8230   31.0250   56.6240 C.3       8 GLP5        0.0000 
    100 CA         16.8139   35.9264   53.7828 C.3       4 GLC5        0.0000 
    101 CA         18.2840   34.6450   55.0070 C.3      12 GLL5        0.0000 
    102 CA         16.4330   37.6490   53.5200 C.3       8 GLP5        0.0000 
@<TRIPOS>BOND
@<TRIPOS>SUBSTRUCTURE
     1 ALC1       24 GROUP        1 X    ALC  0     ROOT ALC X 1
     2 SEC2        9 GROUP        1 X    SEC  0     **** SEC X 2
     3 ASC3       41 GROUP        1 X    ASC  0     **** ASC X 3
     4 GLC5        1 GROUP        1 X    GLC  0     **** GLC X 6
     5 ALP1       26 GROUP        1 Y    ALP  0     ROOT ALP Y 8
     6 SEP2       11 GROUP        1 Y    SEP  0     **** SEP Y 9
     7 ASP3       43 GROUP        1 Y    ASP  0     **** ASP Y 10
     8 GLP5        3 GROUP        1 Y    GLP  0     **** GLP Y 13
     9 ALL1       25 GROUP        1 Z    ALL  0     ROOT ALL Z 15
    10 SEL2       10 GROUP        1 Z    SEL  0     **** SEL Z 16
    11 ASL3       42 GROUP        1 Z    ASL  0     **** ASL Z 17
    12 GLL5        2 GROUP        1 Z    GLL  0     **** GLL Z 20
@<TRIPOS>SET

