#    Name: 2qk5_CS5_2_ligand
#    Modification time : Mon Mar 24 22:24:51 2014

@<TRIPOS>MOLECULE
2qk5_CS5_2_ligand
   82    84     1     0     0
SMALL
NO_CHARGES


@<TRIPOS>ATOM
      1 C1         16.2880   29.6260   59.0170 C.ar      1 CS51        0.0000 
      2 C2         17.5820   29.2180   59.4650 C.ar      1 CS51        0.0000 
      3 C3         18.7200   30.0300   59.1900 C.ar      1 CS51        0.0000 
      4 C4         18.5590   31.2540   58.4670 C.ar      1 CS51        0.0000 
      5 C5         17.2650   31.6580   58.0190 C.ar      1 CS51        0.0000 
      6 C6         16.1200   30.8450   58.2890 C.ar      1 CS51        0.0000 
      7 C7         14.7690   31.2640   57.8390 C.2       1 CS51        0.0000 
      8 N1         14.5630   31.4280   56.4910 N.am      1 CS51        0.0000 
      9 O1         13.8560   31.4680   58.6370 O.2       1 CS51        0.0000 
     10 C8         15.5810   31.2010   55.4670 C.3       1 CS51        0.0000 
     11 C9         15.0970   30.1340   54.4980 C.3       1 CS51        0.0000 
     12 C10        14.5770   28.8910   55.2270 C.3       1 CS51        0.0000 
     13 C11        13.2210   31.8400   56.0890 C.3       1 CS51        0.0000 
     14 C12        13.1740   33.2690   55.5430 C.3       1 CS51        0.0000 
     15 C13        13.9540   34.2750   56.3620 C.3       1 CS51        0.0000 
     16 C14        19.7180   32.0920   58.1680 C.2       1 CS51        0.0000 
     17 N2         19.4510   33.4130   58.0140 N.am      1 CS51        0.0000 
     18 O2         20.8540   31.6450   58.0550 O.2       1 CS51        0.0000 
     19 C15        20.6010   34.2780   57.6950 C.3       1 CS51        0.0000 
     20 C16        21.0920   35.1100   58.9080 C.3       1 CS51        0.0000 
     21 C17        20.2710   35.1790   56.5000 C.3       1 CS51        0.0000 
     22 O3         22.0730   36.0400   58.4330 O.3       1 CS51        0.0000 
     23 C18        21.7340   34.1920   59.9770 C.3       1 CS51        0.0000 
     24 N3         22.4310   35.0190   60.9850 N.4       1 CS51        0.0000 
     25 C19        23.3610   34.2110   61.8110 C.3       1 CS51        0.0000 
     26 C20        24.5080   33.6190   61.0080 C.ar      1 CS51        0.0000 
     27 C21        19.6210   34.3640   55.4070 C.ar      1 CS51        0.0000 
     28 C22        18.2840   34.6450   55.0070 C.ar      1 CS51        0.0000 
     29 C23        17.6710   33.8760   53.9730 C.ar      1 CS51        0.0000 
     30 C24        18.3960   32.8240   53.3400 C.ar      1 CS51        0.0000 
     31 C25        19.7320   32.5450   53.7440 C.ar      1 CS51        0.0000 
     32 C26        20.3440   33.3150   54.7760 C.ar      1 CS51        0.0000 
     33 C27        24.8190   32.2300   61.1300 C.ar      1 CS51        0.0000 
     34 C28        25.8960   31.6690   60.3780 C.ar      1 CS51        0.0000 
     35 C29        26.6650   32.4950   59.5010 C.ar      1 CS51        0.0000 
     36 C30        26.3580   33.8830   59.3750 C.ar      1 CS51        0.0000 
     37 C31        25.2780   34.4420   60.1310 C.ar      1 CS51        0.0000 
     38 O4         27.1180   34.6680   58.5150 O.3       1 CS51        0.0000 
     39 C32        26.7630   36.0440   58.5710 C.3       1 CS51        0.0000 
     40 C33        17.7420   27.9590   60.2120 C.3       1 CS51        0.0000 
     41 F2         16.4120   34.1470   53.6010 F         1 CS51        0.0000 
     42 F1         20.4100   31.5590   53.1510 F         1 CS51        0.0000 
     43 H          15.4762   29.0424   59.2183 H         1 CS51        0.0000 
     44 H          19.6404   29.7441   59.5040 H         1 CS51        0.0000 
     45 H          17.1558   32.5297   57.5043 H         1 CS51        0.0000 
     46 H          16.5162   30.8622   55.9166 H         1 CS51        0.0000 
     47 H          15.7781   32.1158   54.9049 H         1 CS51        0.0000 
     48 H          15.9202   29.8409   53.8398 H         1 CS51        0.0000 
     49 H          14.2940   30.5437   53.8781 H         1 CS51        0.0000 
     50 H          12.5222   31.7801   56.9434 H         1 CS51        0.0000 
     51 H          12.8232   31.1655   55.3089 H         1 CS51        0.0000 
     52 H          12.1178   33.5886   55.4831 H         1 CS51        0.0000 
     53 H          13.5611   33.2635   54.5079 H         1 CS51        0.0000 
     54 H          18.5513   33.8295   58.0997 H         1 CS51        0.0000 
     55 H          21.4502   33.6393   57.3822 H         1 CS51        0.0000 
     56 H          20.2524   35.6047   59.3383 H         1 CS51        0.0000 
     57 H          21.1894   35.6256   56.1305 H         1 CS51        0.0000 
     58 H          19.5952   35.9643   56.8260 H         1 CS51        0.0000 
     59 H          22.4294   33.5243   59.4750 H         1 CS51        0.0000 
     60 H          20.9432   33.6048   60.4366 H         1 CS51        0.0000 
     61 H          22.8124   33.3860   62.2981 H         1 CS51        0.0000 
     62 H          23.7839   34.8327   62.6194 H         1 CS51        0.0000 
     63 H          17.7641   35.3940   55.4575 H         1 CS51        0.0000 
     64 H          17.9602   32.2770   52.6044 H         1 CS51        0.0000 
     65 H          21.3002   33.1120   55.0602 H         1 CS51        0.0000 
     66 H          24.2734   31.6406   61.7524 H         1 CS51        0.0000 
     67 H          26.1162   30.6807   60.4664 H         1 CS51        0.0000 
     68 H          27.4304   32.0929   58.9674 H         1 CS51        0.0000 
     69 H          25.0592   35.4321   60.0416 H         1 CS51        0.0000 
     70 H          15.2855   28.4683   55.7922 H         1 CS51        0.0000 
     71 H          13.8107   29.1084   55.8316 H         1 CS51        0.0000 
     72 H          14.2566   28.1922   54.5874 H         1 CS51        0.0000 
     73 H          14.9235   34.0364   56.4182 H         1 CS51        0.0000 
     74 H          13.9005   35.1938   55.9708 H         1 CS51        0.0000 
     75 H          13.6121   34.3354   57.2998 H         1 CS51        0.0000 
     76 H          26.8840   36.4217   59.4890 H         1 CS51        0.0000 
     77 H          27.3197   36.5967   57.9509 H         1 CS51        0.0000 
     78 H          25.8071   36.1916   58.3170 H         1 CS51        0.0000 
     79 H          18.6964   27.7931   60.4602 H         1 CS51        0.0000 
     80 H          17.2144   27.9616   61.0615 H         1 CS51        0.0000 
     81 H          17.4362   27.1698   59.6795 H         1 CS51        0.0000 
     82 H          21.5461   36.7914   58.0358 H         1 CS51        0.0000 
@<TRIPOS>BOND
     1    2    1 ar   
     2    6    1 ar   
     3   43    1 1    
     4    3    2 ar   
     5   40    2 1    
     6    4    3 ar   
     7   44    3 1    
     8    5    4 ar   
     9   16    4 1    
    10    6    5 ar   
    11   45    5 1    
    12    7    6 1    
    13    8    7 am   
    14    9    7 2    
    15   10    8 1    
    16   13    8 1    
    17   11   10 1    
    18   46   10 1    
    19   47   10 1    
    20   12   11 1    
    21   48   11 1    
    22   49   11 1    
    23   70   12 1    
    24   71   12 1    
    25   72   12 1    
    26   14   13 1    
    27   50   13 1    
    28   51   13 1    
    29   15   14 1    
    30   52   14 1    
    31   53   14 1    
    32   73   15 1    
    33   74   15 1    
    34   75   15 1    
    35   17   16 am   
    36   18   16 2    
    37   19   17 1    
    38   54   17 1    
    39   20   19 1    
    40   21   19 1    
    41   55   19 1    
    42   22   20 1    
    43   23   20 1    
    44   56   20 1    
    45   27   21 1    
    46   57   21 1    
    47   58   21 1    
    48   82   22 1    
    49   24   23 1    
    50   59   23 1    
    51   60   23 1    
    52   25   24 1    
    53   26   25 1    
    54   61   25 1    
    55   62   25 1    
    56   33   26 ar   
    57   37   26 ar   
    58   28   27 ar   
    59   32   27 ar   
    60   29   28 ar   
    61   63   28 1    
    62   30   29 ar   
    63   41   29 1    
    64   31   30 ar   
    65   64   30 1    
    66   32   31 ar   
    67   42   31 1    
    68   65   32 1    
    69   34   33 ar   
    70   66   33 1    
    71   35   34 ar   
    72   67   34 1    
    73   36   35 ar   
    74   68   35 1    
    75   37   36 ar   
    76   38   36 1    
    77   69   37 1    
    78   39   38 1    
    79   76   39 1    
    80   77   39 1    
    81   78   39 1    
    82   79   40 1    
    83   80   40 1    
    84   81   40 1    
@<TRIPOS>SUBSTRUCTURE
     1 CS51        1 GROUP   
@<TRIPOS>SET

