#    Name: 2x23_TCU_2_INTS_M
#    Modification time : Tue Mar 25 05:00:00 2014

@<TRIPOS>MOLECULE
2x23_TCU_2_INTS_M
   84     0     9     0     0
SMALL
NO_CHARGES


@<TRIPOS>ATOM
      1 N          -4.8740  -15.0780   -7.9050 N.am      2 SEC2        0.0000 
      2 N          -5.7440  -15.0640   -7.0370 N.am      8 SEL2        0.0000 
      3 N          -4.0040  -15.0920   -8.7730 N.am      5 SEP2        0.0000 
      4 O          -6.8505  -14.5515   -7.4410 O.2       1 ALC1        0.0000 
      5 O          -5.7440  -15.0640   -7.0370 O.2       7 ALL1        0.0000 
      6 O          -7.9570  -14.0390   -7.8450 O.2       4 ALP1        0.0000 
      7 CA         -7.9440  -16.5430   -6.4140 C.3       3 GLC5        0.0000 
      8 CA         -6.6460  -15.9380   -4.9500 C.3       9 GLL5        0.0000 
      9 CA         -9.2420  -17.1480   -7.8780 C.3       6 GLP5        0.0000 
     10 CA         -8.8695  -17.8690   -3.7305 C.3       3 GLC5        0.0000 
     11 CA         -7.5170  -16.8160   -2.7930 C.3       9 GLL5        0.0000 
     12 CA        -10.2220  -18.9220   -4.6680 C.3       6 GLP5        0.0000 
     13 CA         -7.3320  -18.8540   -2.2115 C.3       3 GLC5        0.0000 
     14 CA         -7.1470  -20.8920   -1.6300 C.3       6 GLP5        0.0000 
     15 CA         -6.6510  -18.0185   -4.2755 C.3       3 GLC5        0.0000 
     16 CA         -5.7850  -19.2210   -5.7580 C.3       6 GLP5        0.0000 
     17 CA         -9.6975  -16.9590   -2.9715 C.3       3 GLC5        0.0000 
     18 CA         -8.2810  -15.8990   -1.8520 C.3       9 GLL5        0.0000 
     19 CA        -11.1140  -18.0190   -4.0910 C.3       6 GLP5        0.0000 
     20 CA         -8.9030  -16.8345   -0.0390 C.3       3 GLC5        0.0000 
     21 CA         -9.5250  -17.7700    1.7740 C.3       6 GLP5        0.0000 
     22 CA        -12.3685  -14.7665   -2.6370 C.3       3 GLC5        0.0000 
     23 CA        -10.5380  -14.9780   -1.4580 C.3       9 GLL5        0.0000 
     24 CA        -14.1990  -14.5550   -3.8160 C.3       6 GLP5        0.0000 
     25 CA        -11.2180  -16.5810   -0.1325 C.3       3 GLC5        0.0000 
     26 CA        -11.8980  -18.1840    1.1930 C.3       6 GLP5        0.0000 
     27 CA        -11.0720  -12.6195   -2.5335 C.3       3 GLC5        0.0000 
     28 CA        -10.4340  -13.6290   -0.7580 C.3       9 GLL5        0.0000 
     29 CA        -11.7100  -11.6100   -4.3090 C.3       6 GLP5        0.0000 
     30 CA         -9.8920  -15.7785    1.2570 C.3       3 GLC5        0.0000 
     31 CA        -10.2590  -13.7870    0.7400 C.3       9 GLL5        0.0000 
     32 CA         -5.4105  -16.7020   -1.3430 C.3       3 GLC5        0.0000 
     33 CA         -5.2350  -15.7380   -2.9480 C.3       9 GLL5        0.0000 
     34 CA         -5.5860  -17.6660    0.2620 C.3       6 GLP5        0.0000 
     35 CA         -3.3530  -14.8120   -1.8960 C.3       3 GLC5        0.0000 
     36 CA         -4.2030  -15.1210   -3.6490 C.3       9 GLL5        0.0000 
     37 CA         -2.5030  -14.5030   -0.1430 C.3       6 GLP5        0.0000 
     38 CA         -6.0195   -9.8990   -4.5840 C.3       3 GLC5        0.0000 
     39 CA         -4.5730  -10.7720   -5.6650 C.3       9 GLL5        0.0000 
     40 CA         -7.4660   -9.0260   -3.5030 C.3       6 GLP5        0.0000 
     41 CA         -4.3295   -8.2725   -6.9150 C.3       3 GLC5        0.0000 
     42 CA         -3.5490  -10.1450   -6.3800 C.3       9 GLL5        0.0000 
     43 CA         -5.1100   -6.4000   -7.4500 C.3       6 GLP5        0.0000 
     44 CA         -4.7920  -10.0445   -7.7865 C.3       3 GLC5        0.0000 
     45 CA         -6.0350   -9.9440   -9.1930 C.3       6 GLP5        0.0000 
     46 CA         -0.8195  -13.2370   -5.6180 C.3       3 GLC5        0.0000 
     47 CA         -1.2600  -13.1040   -7.2730 C.3       9 GLL5        0.0000 
     48 CA         -0.3790  -13.3700   -3.9630 C.3       6 GLP5        0.0000 
     49 CA         -2.1025  -14.5695   -7.9080 C.3       3 GLC5        0.0000 
     50 CA         -2.9450  -16.0350   -8.5430 C.3       6 GLP5        0.0000 
     51 CA         -3.9802  -15.5725   -6.9505 C.3       3 GLC5        0.0000 
     52 CA         -4.3860  -14.9050   -5.0140 C.3       9 GLL5        0.0000 
     53 CA         -6.6069  -16.9262   -1.1293 C.3       3 GLC5        0.0000 
     54 CA         -6.4320  -16.1320   -3.5850 C.3       9 GLL5        0.0000 
     55 CA        -10.6792  -15.9367   -3.3475 C.3       3 GLC5        0.0000 
     56 CA         -9.4030  -15.1250   -2.4720 C.3       9 GLL5        0.0000 
     57 CA        -11.3880  -16.8220   -4.7300 C.3       6 GLP5        0.0000 
     58 CA         -9.6683  -13.7453   -3.3950 C.3       3 GLC5        0.0000 
     59 CA         -9.3660  -12.4390   -4.8250 C.3       6 GLP5        0.0000 
     60 CA        -11.0117  -11.8960    0.4150 C.3       3 GLC5        0.0000 
     61 CA        -11.6770  -10.0840    0.8390 C.3       6 GLP5        0.0000 
     62 CA         -8.7327  -12.7945    0.2225 C.3       3 GLC5        0.0000 
     63 CA         -7.1190  -11.8810    0.4540 C.3       6 GLP5        0.0000 
     64 CA         -5.1530  -13.7088   -2.4627 C.3       3 GLC5        0.0000 
     65 CA         -5.5870  -11.9880   -1.6270 C.3       6 GLP5        0.0000 
     66 CA         -2.3368  -14.1915   -4.1472 C.3       3 GLC5        0.0000 
     67 CA         -2.9535  -14.3150   -7.4402 C.3       3 GLC5        0.0000 
     68 CA         -2.4130  -12.2610   -6.7060 C.3       9 GLL5        0.0000 
     69 CA         -5.9177  -11.1145   -6.8533 C.3       3 GLC5        0.0000 
     70 CA         -4.5700  -12.1580   -5.4780 C.3       9 GLL5        0.0000 
     71 CA         -7.2640  -10.7640   -8.1350 C.3       6 GLP5        0.0000 
     72 CA         -5.0793  -11.7265   -3.5992 C.3       3 GLC5        0.0000 
     73 CA         -3.5380   -9.3398   -4.6273 C.3       3 GLC5        0.0000 
     74 CA         -3.0150   -8.2210   -3.2320 C.3       6 GLP5        0.0000 
     75 CA         -2.0805   -9.3897   -7.8105 C.3       3 GLC5        0.0000 
     76 CA         -1.1490   -8.2690   -8.9870 C.3       6 GLP5        0.0000 
     77 CA         -3.8703  -11.5602   -8.1349 C.3       3 GLC5        0.0000 
     78 CA         -2.4750  -10.8760   -6.8880 C.3       9 GLL5        0.0000 
     79 CA         -5.0220  -11.3850   -9.6570 C.3       6 GLP5        0.0000 
     80 CA         -1.5488  -12.5527   -5.2879 C.3       3 GLC5        0.0000 
     81 CA         -1.3970  -10.2632   -5.6665 C.3       3 GLC5        0.0000 
     82 CA         -0.3500   -8.9580   -4.5360 C.3       6 GLP5        0.0000 
     83 CA         -1.5035  -11.9931   -8.8560 C.3       3 GLC5        0.0000 
     84 CA         -1.1550  -11.6500  -10.6770 C.3       6 GLP5        0.0000 
@<TRIPOS>BOND
@<TRIPOS>SUBSTRUCTURE
     1 ALC1        4 GROUP        1 X    ALC  0     ROOT ALC X 1
     2 SEC2        1 GROUP        1 X    SEC  0     **** SEC X 2
     3 GLC5        7 GROUP        1 X    GLC  0     **** GLC X 6
     4 ALP1        6 GROUP        1 Y    ALP  0     ROOT ALP Y 8
     5 SEP2        3 GROUP        1 Y    SEP  0     **** SEP Y 9
     6 GLP5        9 GROUP        1 Y    GLP  0     **** GLP Y 13
     7 ALL1        5 GROUP        1 Z    ALL  0     ROOT ALL Z 15
     8 SEL2        2 GROUP        1 Z    SEL  0     **** SEL Z 16
     9 GLL5        8 GROUP        1 Z    GLL  0     **** GLL Z 20
@<TRIPOS>SET

