#    Name: 2x23_TCU_2_ligand
#    Modification time : Tue Mar 25 05:00:00 2014

@<TRIPOS>MOLECULE
2x23_TCU_2_ligand
   45    46     1     0     0
SMALL
NO_CHARGES


@<TRIPOS>ATOM
      1 O17        -5.7440  -15.0640   -7.0370 O.3       1 TCU1271     0.0000 
      2 C6         -5.6450  -15.3150   -5.7020 C.ar      1 TCU1271     0.0000 
      3 C1         -6.6460  -15.9380   -4.9500 C.ar      1 TCU1271     0.0000 
      4 C2         -6.4320  -16.1320   -3.5850 C.ar      1 TCU1271     0.0000 
      5 C16        -7.5170  -16.8160   -2.7930 C.3       1 TCU1271     0.0000 
      6 C17        -8.2810  -15.8990   -1.8520 C.3       1 TCU1271     0.0000 
      7 C18        -9.4030  -15.1250   -2.4720 C.3       1 TCU1271     0.0000 
      8 C19       -10.5380  -14.9780   -1.4580 C.3       1 TCU1271     0.0000 
      9 C20       -10.4340  -13.6290   -0.7580 C.3       1 TCU1271     0.0000 
     10 C21       -10.2590  -13.7870    0.7400 C.3       1 TCU1271     0.0000 
     11 C3         -5.2350  -15.7380   -2.9480 C.ar      1 TCU1271     0.0000 
     12 C4         -4.2030  -15.1210   -3.6490 C.ar      1 TCU1271     0.0000 
     13 C5         -4.3860  -14.9050   -5.0140 C.ar      1 TCU1271     0.0000 
     14 O7         -3.4600  -14.2950   -5.7900 O.3       1 TCU1271     0.0000 
     15 C8         -3.5110  -12.9290   -5.9690 C.ar      1 TCU1271     0.0000 
     16 C9         -4.5700  -12.1580   -5.4780 C.ar      1 TCU1271     0.0000 
     17 C10        -4.5730  -10.7720   -5.6650 C.ar      1 TCU1271     0.0000 
     18 C11        -3.5490  -10.1450   -6.3800 C.ar      1 TCU1271     0.0000 
     19 C12        -2.4750  -10.8760   -6.8880 C.ar      1 TCU1271     0.0000 
     20 C13        -2.4130  -12.2610   -6.7060 C.ar      1 TCU1271     0.0000 
     21 C14        -1.2600  -13.1040   -7.2730 C.3       1 TCU1271     0.0000 
     22 H          -7.5101  -16.2423   -5.3896 H         1 TCU1271     0.0000 
     23 H          -7.0723  -17.6405   -2.2024 H         1 TCU1271     0.0000 
     24 H          -8.2358  -17.2873   -3.4913 H         1 TCU1271     0.0000 
     25 H          -7.5579  -15.1903   -1.3877 H         1 TCU1271     0.0000 
     26 H          -8.6776  -16.5108   -1.0099 H         1 TCU1271     0.0000 
     27 H          -9.7788  -15.6466   -3.3471 H         1 TCU1271     0.0000 
     28 H          -9.0603  -14.1363   -2.7618 H         1 TCU1271     0.0000 
     29 H         -10.4669  -15.7733   -0.7235 H         1 TCU1271     0.0000 
     30 H         -11.4899  -15.0455   -1.9741 H         1 TCU1271     0.0000 
     31 H         -11.3410  -13.0508   -0.9585 H         1 TCU1271     0.0000 
     32 H          -9.5815  -13.0783   -1.1669 H         1 TCU1271     0.0000 
     33 H          -5.1306  -15.9166   -1.9325 H         1 TCU1271     0.0000 
     34 H          -3.3497  -14.8388   -3.1853 H         1 TCU1271     0.0000 
     35 H          -5.3451  -12.6098   -4.9803 H         1 TCU1271     0.0000 
     36 H          -5.3399  -10.2066   -5.2706 H         1 TCU1271     0.0000 
     37 H          -3.5890   -9.1238   -6.5342 H         1 TCU1271     0.0000 
     38 H          -1.7233  -10.3946   -7.3998 H         1 TCU1271     0.0000 
     39 H          -9.4303  -14.2994    0.9651 H         1 TCU1271     0.0000 
     40 H         -10.1911  -12.9024    1.2013 H         1 TCU1271     0.0000 
     41 H         -11.0271  -14.2753    1.1542 H         1 TCU1271     0.0000 
     42 H          -0.5859  -12.5390   -7.7488 H         1 TCU1271     0.0000 
     43 H          -0.7725  -13.5983   -6.5533 H         1 TCU1271     0.0000 
     44 H          -1.5856  -13.7859   -7.9280 H         1 TCU1271     0.0000 
     45 H          -6.4659  -14.3767   -7.1182 H         1 TCU1271     0.0000 
@<TRIPOS>BOND
     1    2    1 1    
     2   45    1 1    
     3    3    2 ar   
     4   13    2 ar   
     5    4    3 ar   
     6   22    3 1    
     7    5    4 1    
     8   11    4 ar   
     9    6    5 1    
    10   23    5 1    
    11   24    5 1    
    12    7    6 1    
    13   25    6 1    
    14   26    6 1    
    15    8    7 1    
    16   27    7 1    
    17   28    7 1    
    18    9    8 1    
    19   29    8 1    
    20   30    8 1    
    21   10    9 1    
    22   31    9 1    
    23   32    9 1    
    24   39   10 1    
    25   40   10 1    
    26   41   10 1    
    27   12   11 ar   
    28   33   11 1    
    29   13   12 ar   
    30   34   12 1    
    31   14   13 1    
    32   15   14 1    
    33   16   15 ar   
    34   20   15 ar   
    35   17   16 ar   
    36   35   16 1    
    37   18   17 ar   
    38   36   17 1    
    39   19   18 ar   
    40   37   18 1    
    41   20   19 ar   
    42   38   19 1    
    43   21   20 1    
    44   42   21 1    
    45   43   21 1    
    46   44   21 1    
@<TRIPOS>SUBSTRUCTURE
     1 TCU1271     1 GROUP   
@<TRIPOS>SET

