#    Name: 2hzq_STR_1_INTS_M
#    Modification time : Tue Mar 25 17:15:13 2014

@<TRIPOS>MOLECULE
2hzq_STR_1_INTS_M
   57     0     6     0     0
SMALL
NO_CHARGES


@<TRIPOS>ATOM
      1 CA          9.5520   33.2195   54.3225 C.3       2 GLC5        0.0000 
      2 CA          8.8390   33.3880   56.1740 C.3       6 GLL5        0.0000 
      3 CA         10.2650   33.0510   52.4710 C.3       4 GLP5        0.0000 
      4 CA          5.5155   27.5605   55.9205 C.3       2 GLC5        0.0000 
      5 CA          5.8770   28.5000   57.9220 C.3       6 GLL5        0.0000 
      6 CA          5.1540   26.6210   53.9190 C.3       4 GLP5        0.0000 
      7 CA          4.2025   29.1070   55.1120 C.3       2 GLC5        0.0000 
      8 CA          3.8630   29.5320   56.9380 C.3       6 GLL5        0.0000 
      9 CA          4.5420   28.6820   53.2860 C.3       4 GLP5        0.0000 
     10 CA          2.8965   28.5355   54.9780 C.3       2 GLC5        0.0000 
     11 CA          2.3640   29.2350   56.8130 C.3       6 GLL5        0.0000 
     12 CA          3.4290   27.8360   53.1430 C.3       4 GLP5        0.0000 
     13 CA          3.0660   27.1165   55.2735 C.3       2 GLC5        0.0000 
     14 CA          2.2970   27.7200   57.0120 C.3       6 GLL5        0.0000 
     15 CA          3.8350   26.5130   53.5350 C.3       4 GLP5        0.0000 
     16 CA          1.2705   25.8090   57.3395 C.3       2 GLC5        0.0000 
     17 CA          0.2440   23.8980   57.6670 C.3       4 GLP5        0.0000 
     18 CA          4.4050   26.9565   55.7660 C.3       2 GLC5        0.0000 
     19 CA          3.6560   27.2920   57.6130 C.3       6 GLL5        0.0000 
     20 CA          3.1250   25.2805   57.2335 C.3       2 GLC5        0.0000 
     21 CA          2.5940   23.2690   56.8540 C.3       4 GLP5        0.0000 
     22 CA          3.6840   27.6375   60.9660 C.3       2 GLC5        0.0000 
     23 CA          3.8420   28.9620   59.4280 C.3       6 GLL5        0.0000 
     24 CA          3.5260   26.3130   62.5040 C.3       4 GLP5        0.0000 
     25 CA          2.8610   29.5700   61.3010 C.3       2 GLC5        0.0000 
     26 CA          1.8800   30.1780   63.1740 C.3       4 GLP5        0.0000 
     27 CA          5.3840   29.1820   60.9960 C.3       2 GLC5        0.0000 
     28 CA          6.9260   29.4020   62.5640 C.3       4 GLP5        0.0000 
     29 CA          3.6815   30.9625   60.0925 C.3       2 GLC5        0.0000 
     30 CA          3.5210   32.9630   60.7570 C.3       4 GLP5        0.0000 
     31 CA          7.4595   32.9005   60.4540 C.3       2 GLC5        0.0000 
     32 CA          6.6480   32.9430   58.4740 C.3       6 GLL5        0.0000 
     33 CA          8.2710   32.8580   62.4340 C.3       4 GLP5        0.0000 
     34 N           1.4445   26.7340   59.6765 N.am      1 SEC2        0.0000 
     35 N           2.5280   26.1210   59.3470 N.am      5 SEL2        0.0000 
     36 N           0.3610   27.3470   60.0060 N.am      3 SEP2        0.0000 
     37 CA          5.8445   23.9900   58.0890 C.3       2 GLC5        0.0000 
     38 CA          4.7990   25.4470   59.0420 C.3       6 GLL5        0.0000 
     39 CA          6.8900   22.5330   57.1360 C.3       4 GLP5        0.0000 
     40 CA          6.9565   25.1355   59.2170 C.3       2 GLC5        0.0000 
     41 CA          9.1140   24.8240   59.3920 C.3       4 GLP5        0.0000 
     42 CA          4.1625   25.8800   60.7730 C.3       2 GLC5        0.0000 
     43 CA          3.6965   24.3580   57.9480 C.3       2 GLC5        0.0000 
     44 CA          4.3152   33.5373   57.9015 C.3       2 GLC5        0.0000 
     45 CA          4.3990   33.2830   56.1580 C.3       6 GLL5        0.0000 
     46 CA          3.4810   33.8730   59.6850 C.3       4 GLP5        0.0000 
     47 CA          2.1507   33.5855   56.6685 C.3       2 GLC5        0.0000 
     48 CA          0.2440   34.5670   57.2050 C.3       4 GLP5        0.0000 
     49 CA          3.7607   32.6615   58.1515 C.3       2 GLC5        0.0000 
     50 CA          3.7160   31.9250   56.1060 C.3       6 GLL5        0.0000 
     51 CA          4.7399   30.6172   54.8885 C.3       2 GLC5        0.0000 
     52 CA          4.3650   30.9750   57.1300 C.3       6 GLL5        0.0000 
     53 CA          4.5000   30.0520   52.9490 C.3       4 GLP5        0.0000 
     54 CA          5.0667   33.2417   58.7308 C.3       2 GLC5        0.0000 
     55 CA          6.6570   32.2780   57.0790 C.3       6 GLL5        0.0000 
     56 CA          0.6118   28.9473   57.2623 C.3       2 GLC5        0.0000 
     57 CA         -1.1070   29.4170   57.6120 C.3       4 GLP5        0.0000 
@<TRIPOS>BOND
@<TRIPOS>SUBSTRUCTURE
     1 SEC2       34 GROUP        1 X    SEC  0     ROOT SEC X 2
     2 GLC5        1 GROUP        1 X    GLC  0     **** GLC X 6
     3 SEP2       36 GROUP        1 Y    SEP  0     ROOT SEP Y 9
     4 GLP5        3 GROUP        1 Y    GLP  0     **** GLP Y 13
     5 SEL2       35 GROUP        1 Z    SEL  0     ROOT SEL Z 16
     6 GLL5        2 GROUP        1 Z    GLL  0     **** GLL Z 20
@<TRIPOS>SET

