#    Name: 2hzq_STR_1_ligand
#    Modification time : Tue Mar 25 17:15:13 2014

@<TRIPOS>MOLECULE
2hzq_STR_1_ligand
   53    56     1     0     0
SMALL
NO_CHARGES


@<TRIPOS>ATOM
      1 C1          8.1410   32.1210   56.6850 C.3       1 STR300      0.0000 
      2 C2          8.8390   33.3880   56.1740 C.3       1 STR300      0.0000 
      3 C3          7.9340   34.1130   55.1930 C.2       1 STR300      0.0000 
      4 O3          8.3340   35.0380   54.4870 O.2       1 STR300      0.0000 
      5 C4          6.5320   33.7110   55.0630 C.2       1 STR300      0.0000 
      6 C5          5.9000   33.1200   56.0780 C.2       1 STR300      0.0000 
      7 C6          4.3990   33.2830   56.1580 C.3       1 STR300      0.0000 
      8 C7          3.7160   31.9250   56.1060 C.3       1 STR300      0.0000 
      9 C8          4.3650   30.9750   57.1300 C.3       1 STR300      0.0000 
     10 C9          5.9190   30.9150   57.0380 C.3       1 STR300      0.0000 
     11 C10         6.6570   32.2780   57.0790 C.3       1 STR300      0.0000 
     12 C11         6.5490   29.8770   57.9940 C.3       1 STR300      0.0000 
     13 C12         5.8770   28.5000   57.9220 C.3       1 STR300      0.0000 
     14 C13         4.3540   28.5790   58.0190 C.3       1 STR300      0.0000 
     15 C14         3.8630   29.5320   56.9380 C.3       1 STR300      0.0000 
     16 C15         2.3640   29.2350   56.8130 C.3       1 STR300      0.0000 
     17 C16         2.2970   27.7200   57.0120 C.3       1 STR300      0.0000 
     18 C17         3.6560   27.2920   57.6130 C.3       1 STR300      0.0000 
     19 C18         3.8420   28.9620   59.4280 C.3       1 STR300      0.0000 
     20 C19         6.6480   32.9430   58.4740 C.3       1 STR300      0.0000 
     21 C20         3.5760   26.2720   58.7320 C.2       1 STR300      0.0000 
     22 O20         2.5280   26.1210   59.3470 O.2       1 STR300      0.0000 
     23 C21         4.7990   25.4470   59.0420 C.3       1 STR300      0.0000 
     24 H           8.6979   31.7364   57.5638 H         1 STR300      0.0000 
     25 H           8.2155   31.3340   55.9069 H         1 STR300      0.0000 
     26 H           9.7634   33.1087   55.6803 H         1 STR300      0.0000 
     27 H           9.0584   34.0357   57.0158 H         1 STR300      0.0000 
     28 H           6.0812   33.9112   54.1580 H         1 STR300      0.0000 
     29 H           4.0527   33.8907   55.3230 H         1 STR300      0.0000 
     30 H           4.1351   33.7817   57.0897 H         1 STR300      0.0000 
     31 H           3.8223   31.4998   55.1147 H         1 STR300      0.0000 
     32 H           2.6646   32.0349   56.3449 H         1 STR300      0.0000 
     33 H           4.1034   31.2821   58.1305 H         1 STR300      0.0000 
     34 H           6.1354   30.4961   55.9845 H         1 STR300      0.0000 
     35 H           6.4803   30.2574   59.0204 H         1 STR300      0.0000 
     36 H           7.6124   29.7715   57.7468 H         1 STR300      0.0000 
     37 H           6.2575   27.8756   58.7391 H         1 STR300      0.0000 
     38 H           6.1526   28.0190   56.9760 H         1 STR300      0.0000 
     39 H           4.3318   29.1296   55.9862 H         1 STR300      0.0000 
     40 H           2.0304   29.4852   55.8426 H         1 STR300      0.0000 
     41 H           1.8377   29.7230   57.5879 H         1 STR300      0.0000 
     42 H           2.1615   27.2351   56.0688 H         1 STR300      0.0000 
     43 H           1.5161   27.4781   57.7011 H         1 STR300      0.0000 
     44 H           4.2427   26.8679   56.7769 H         1 STR300      0.0000 
     45 H           4.1315   28.3013   60.1206 H         1 STR300      0.0000 
     46 H           4.1824   29.8570   59.7163 H         1 STR300      0.0000 
     47 H           2.8434   29.0035   59.4617 H         1 STR300      0.0000 
     48 H           7.1232   32.3851   59.1544 H         1 STR300      0.0000 
     49 H           7.0968   33.8365   58.4624 H         1 STR300      0.0000 
     50 H           5.7175   33.0867   58.8109 H         1 STR300      0.0000 
     51 H           5.5769   26.0192   59.3018 H         1 STR300      0.0000 
     52 H           4.6370   24.8120   59.7973 H         1 STR300      0.0000 
     53 H           5.0871   24.9001   58.2560 H         1 STR300      0.0000 
@<TRIPOS>BOND
     1    2    1 1    
     2   11    1 1    
     3   24    1 1    
     4   25    1 1    
     5    3    2 1    
     6   26    2 1    
     7   27    2 1    
     8    4    3 2    
     9    5    3 1    
    10    6    5 2    
    11   28    5 1    
    12    7    6 1    
    13   11    6 1    
    14    8    7 1    
    15   29    7 1    
    16   30    7 1    
    17    9    8 1    
    18   31    8 1    
    19   32    8 1    
    20   10    9 1    
    21   15    9 1    
    22   33    9 1    
    23   11   10 1    
    24   12   10 1    
    25   34   10 1    
    26   20   11 1    
    27   13   12 1    
    28   35   12 1    
    29   36   12 1    
    30   14   13 1    
    31   37   13 1    
    32   38   13 1    
    33   15   14 1    
    34   18   14 1    
    35   19   14 1    
    36   16   15 1    
    37   39   15 1    
    38   17   16 1    
    39   40   16 1    
    40   41   16 1    
    41   18   17 1    
    42   42   17 1    
    43   43   17 1    
    44   21   18 1    
    45   44   18 1    
    46   45   19 1    
    47   46   19 1    
    48   47   19 1    
    49   48   20 1    
    50   49   20 1    
    51   50   20 1    
    52   22   21 2    
    53   23   21 1    
    54   51   23 1    
    55   52   23 1    
    56   53   23 1    
@<TRIPOS>SUBSTRUCTURE
     1 STR300      1 GROUP   
@<TRIPOS>SET

