#    Name: 1vbi_NAD_1_INTS_M
#    Modification time : Tue Mar 25 07:38:16 2014

@<TRIPOS>MOLECULE
1vbi_NAD_1_INTS_M
   77     0    12     0     0
SMALL
NO_CHARGES


@<TRIPOS>ATOM
      1 CA          3.9195   68.5045    7.9780 C.3       4 GLC5        0.0000 
      2 CA          2.9790   69.6930    9.1690 C.3      12 GLL5        0.0000 
      3 CA          4.8600   67.3160    6.7870 C.3       8 GLP5        0.0000 
      4 CA          6.3345   69.7215   10.1325 C.3       4 GLC5        0.0000 
      5 CA          4.6250   71.1320   10.4750 C.3      12 GLL5        0.0000 
      6 CA          8.0440   68.3110    9.7900 C.3       8 GLP5        0.0000 
      7 N           6.9775   70.6020    9.7610 N.am      2 SEC2        0.0000 
      8 N           5.9620   71.4790   10.0910 N.am     10 SEL2        0.0000 
      9 N           7.9930   69.7250    9.4310 N.am      6 SEP2        0.0000 
     10 O           7.2520   72.2190   10.6745 O.2       1 ALC1        0.0000 
     11 O           5.9620   71.4790   10.0910 O.2       9 ALL1        0.0000 
     12 O           8.5420   72.9590   11.2580 O.2       5 ALP1        0.0000 
     13 CA          5.0090   74.0715   11.0615 C.3       4 GLC5        0.0000 
     14 CA          3.9120   72.2200   11.3020 C.3      12 GLL5        0.0000 
     15 CA          6.1060   75.9230   10.8210 C.3       8 GLP5        0.0000 
     16 N           5.7410   74.1060   12.5590 N.am      2 SEC2        0.0000 
     17 N           4.8270   73.0610   12.0510 N.am     10 SEL2        0.0000 
     18 N           6.6550   75.1510   13.0670 N.am      6 SEP2        0.0000 
     19 N           3.5480   73.5510   13.0330 N.am      2 SEC2        0.0000 
     20 N           2.2690   74.0410   14.0150 N.am      6 SEP2        0.0000 
     21 O           4.9335   73.5120   13.7225 O.2       1 ALC1        0.0000 
     22 O           4.8270   73.0610   12.0510 O.2       9 ALL1        0.0000 
     23 O           5.0400   73.9630   15.3940 O.2       5 ALP1        0.0000 
     24 O           4.4955   72.5715   13.3795 O.2       1 ALC1        0.0000 
     25 O           4.1640   72.0820   14.7080 O.2       5 ALP1        0.0000 
     26 CA          4.8630   74.0985    9.9130 C.3       4 GLC5        0.0000 
     27 CA          3.1220   72.9830   10.2600 C.3      12 GLL5        0.0000 
     28 CA          6.6040   75.2140    9.5660 C.3       8 GLP5        0.0000 
     29 CA          1.9175   78.6400   11.9265 C.3       4 GLC5        0.0000 
     30 CA          1.8190   77.1230   10.6240 C.3      12 GLL5        0.0000 
     31 CA          2.0160   80.1570   13.2290 C.3       8 GLP5        0.0000 
     32 CA          3.9625   76.5230   10.7225 C.3       4 GLC5        0.0000 
     33 N           3.4510   64.6525    8.4985 N.am      2 SEC2        0.0000 
     34 N           2.4950   65.1010    9.3630 N.am     10 SEL2        0.0000 
     35 N           4.4070   64.2040    7.6340 N.am      6 SEP2        0.0000 
     36 NZ         -0.9435   64.8595   11.5970 N.4       3 LYC4        0.0000 
     37 NZ          0.8260   65.3100   11.1880 N.4      11 LYL4        0.0000 
     38 NZ         -2.7130   64.4090   12.0060 N.4       7 LYP4        0.0000 
     39 CA          4.6455   64.2725   15.0380 C.3       4 GLC5        0.0000 
     40 CA          4.7100   63.7770   13.0010 C.3      12 GLL5        0.0000 
     41 CA          4.5810   64.7680   17.0750 C.3       8 GLP5        0.0000 
     42 O           7.7310   65.7535   13.2795 O.2       1 ALC1        0.0000 
     43 O           6.7440   65.0440   13.6510 O.2       9 ALL1        0.0000 
     44 O           8.7180   66.4630   12.9080 O.2       5 ALP1        0.0000 
     45 CA          7.3055   62.7285   10.1055 C.3       4 GLC5        0.0000 
     46 CA          6.7510   63.3160   11.8490 C.3      12 GLL5        0.0000 
     47 CA          7.8600   62.1410    8.3620 C.3       8 GLP5        0.0000 
     48 N           9.5315   63.4475   12.6520 N.am      2 SEC2        0.0000 
     49 N           8.1850   63.5310   11.8500 N.am     10 SEL2        0.0000 
     50 N          10.8780   63.3640   13.4540 N.am      6 SEP2        0.0000 
     51 O           8.4040   64.6945   11.3270 O.2       1 ALC1        0.0000 
     52 O           8.1850   63.5310   11.8500 O.2       9 ALL1        0.0000 
     53 O           8.6230   65.8580   10.8040 O.2       5 ALP1        0.0000 
     54 O           8.4515   64.9970   12.3790 O.2       1 ALC1        0.0000 
     55 CA          6.4655   60.8190   14.1320 C.3       4 GLC5        0.0000 
     56 CA          6.3030   62.1180   12.6500 C.3      12 GLL5        0.0000 
     57 CA          6.6280   59.5200   15.6140 C.3       8 GLP5        0.0000 
     58 O           9.6845   59.2045   13.7070 O.2       1 ALC1        0.0000 
     59 O           9.4490   58.0220   12.8630 O.2       9 ALL1        0.0000 
     60 O           9.9200   60.3870   14.5510 O.2       5 ALP1        0.0000 
     61 CA          6.6105   61.3840    9.6220 C.3       4 GLC5        0.0000 
     62 CA          5.3610   60.6270   10.8820 C.3      12 GLL5        0.0000 
     63 CA          0.1128   76.2085   13.4138 C.3       4 GLC5        0.0000 
     64 CA          0.3400   74.9810   11.4590 C.3      12 GLL5        0.0000 
     65 CA          0.1600   76.7760   15.2810 C.3       8 GLP5        0.0000 
     66 CA          7.0213   59.4635   13.7715 C.3       4 GLC5        0.0000 
     67 CA          7.3750   60.0110   12.2670 C.3      12 GLL5        0.0000 
     68 CA          8.0347   60.1840   10.3840 C.3       4 GLC5        0.0000 
     69 CA          8.6550   60.9610    8.8390 C.3       8 GLP5        0.0000 
     70 CA          4.7150   58.3927    9.0215 C.3       4 GLC5        0.0000 
     71 CA          6.5070   58.4520   10.5410 C.3      12 GLL5        0.0000 
     72 CA          3.4240   57.8480    7.6420 C.3       8 GLP5        0.0000 
     73 CA          7.1180   59.3942    9.1415 C.3       4 GLC5        0.0000 
     74 CA          5.5050   59.4230   10.2610 C.3      12 GLL5        0.0000 
     75 CA          8.2300   59.8510    7.8820 C.3       8 GLP5        0.0000 
     76 CA          4.3205   61.0520    9.2192 C.3       4 GLC5        0.0000 
     77 CA          3.2080   62.0790    7.8670 C.3       8 GLP5        0.0000 
@<TRIPOS>BOND
@<TRIPOS>SUBSTRUCTURE
     1 ALC1       10 GROUP        1 X    ALC  0     ROOT ALC X 1
     2 SEC2        7 GROUP        1 X    SEC  0     **** SEC X 2
     3 LYC4       36 GROUP        1 X    LYC  0     **** LYC X 4
     4 GLC5        1 GROUP        1 X    GLC  0     **** GLC X 6
     5 ALP1       12 GROUP        1 Y    ALP  0     ROOT ALP Y 8
     6 SEP2        9 GROUP        1 Y    SEP  0     **** SEP Y 9
     7 LYP4       38 GROUP        1 Y    LYP  0     **** LYP Y 11
     8 GLP5        3 GROUP        1 Y    GLP  0     **** GLP Y 13
     9 ALL1       11 GROUP        1 Z    ALL  0     ROOT ALL Z 15
    10 SEL2        8 GROUP        1 Z    SEL  0     **** SEL Z 16
    11 LYL4       37 GROUP        1 Z    LYL  0     **** LYL Z 18
    12 GLL5        2 GROUP        1 Z    GLL  0     **** GLL Z 20
@<TRIPOS>SET

