#    Name: 1vbi_NAD_1_ligand
#    Modification time : Tue Mar 25 07:38:16 2014

@<TRIPOS>MOLECULE
1vbi_NAD_1_ligand
   70    74     1     0     0
SMALL
NO_CHARGES


@<TRIPOS>ATOM
      1 PA          1.2570   68.3840   10.8170 P.3       1 NAD401      0.0000 
      2 O1A         0.8540   68.4180   12.2260 O.co2     1 NAD401      0.0000 
      3 O2A         0.1020   68.3140    9.9140 O.co2     1 NAD401      0.0000 
      4 O5B         2.0680   69.6830   10.3270 O.3       1 NAD401      0.0000 
      5 C5B         2.9790   69.6930    9.1690 C.3       1 NAD401      0.0000 
      6 C4B         3.7510   70.9910    9.2190 C.3       1 NAD401      0.0000 
      7 O4B         2.7270   72.0010    9.3490 O.3       1 NAD401      0.0000 
      8 C3B         4.6250   71.1320   10.4750 C.3       1 NAD401      0.0000 
      9 O3B         5.9620   71.4790   10.0910 O.3       1 NAD401      0.0000 
     10 C2B         3.9120   72.2200   11.3020 C.3       1 NAD401      0.0000 
     11 O2B         4.8270   73.0610   12.0510 O.3       1 NAD401      0.0000 
     12 C1B         3.1220   72.9830   10.2600 C.3       1 NAD401      0.0000 
     13 N9A         1.9060   73.5490   10.8080 N.pl3     1 NAD401      0.0000 
     14 C8A         0.8220   72.8890   11.3630 C.2       1 NAD401      0.0000 
     15 N7A        -0.1690   73.7150   11.7790 N.2       1 NAD401      0.0000 
     16 C5A         0.3400   74.9810   11.4590 C.ar      1 NAD401      0.0000 
     17 C6A        -0.2090   76.3010   11.6340 C.ar      1 NAD401      0.0000 
     18 N6A        -1.4040   76.5190   12.1840 N.pl3     1 NAD401      0.0000 
     19 N1A         0.5750   77.3650   11.1960 N.ar      1 NAD401      0.0000 
     20 C2A         1.8190   77.1230   10.6240 C.ar      1 NAD401      0.0000 
     21 N3A         2.4040   75.9450   10.4220 N.ar      1 NAD401      0.0000 
     22 C4A         1.6210   74.9020   10.8590 C.ar      1 NAD401      0.0000 
     23 O3          2.2660   67.2330   10.5690 O.3       1 NAD401      0.0000 
     24 PN          2.1790   65.6470   10.7050 P.3       1 NAD401      0.0000 
     25 O1N         2.4950   65.1010    9.3630 O.co2     1 NAD401      0.0000 
     26 O2N         0.8260   65.3100   11.1880 O.co2     1 NAD401      0.0000 
     27 O5D         3.3620   65.3030   11.7010 O.3       1 NAD401      0.0000 
     28 C5D         3.5400   63.9280   12.0510 C.3       1 NAD401      0.0000 
     29 C4D         4.7100   63.7770   13.0010 C.3       1 NAD401      0.0000 
     30 O4D         4.9730   62.3550   13.0510 O.3       1 NAD401      0.0000 
     31 C3D         6.0080   64.4610   12.5570 C.3       1 NAD401      0.0000 
     32 O3D         6.7440   65.0440   13.6510 O.3       1 NAD401      0.0000 
     33 C2D         6.7510   63.3160   11.8490 C.3       1 NAD401      0.0000 
     34 O2D         8.1850   63.5310   11.8500 O.3       1 NAD401      0.0000 
     35 C1D         6.3030   62.1180   12.6500 C.3       1 NAD401      0.0000 
     36 N1N         6.3450   60.8600   11.8920 N.pl3     1 NAD401      0.0000 
     37 C2N         7.3750   60.0110   12.2670 C.ar      1 NAD401      0.0000 
     38 C3N         7.4540   58.8030   11.5910 C.ar      1 NAD401      0.0000 
     39 C7N         8.5310   57.7740   11.9020 C.2       1 NAD401      0.0000 
     40 O7N         8.5330   56.7300   11.2650 O.2       1 NAD401      0.0000 
     41 N7N         9.4490   58.0220   12.8630 N.am      1 NAD401      0.0000 
     42 C4N         6.5070   58.4520   10.5410 C.ar      1 NAD401      0.0000 
     43 C5N         5.5050   59.4230   10.2610 C.ar      1 NAD401      0.0000 
     44 C6N         5.3610   60.6270   10.8820 C.ar      1 NAD401      0.0000 
     45 H           2.4206   69.6479    8.2435 H         1 NAD401      0.0000 
     46 H           3.6734   68.8651    9.2223 H         1 NAD401      0.0000 
     47 H           4.3144   71.1310    8.3570 H         1 NAD401      0.0000 
     48 H           4.5606   70.2115   11.0097 H         1 NAD401      0.0000 
     49 H           3.2028   71.7113   11.9393 H         1 NAD401      0.0000 
     50 H           3.7375   73.7083    9.8150 H         1 NAD401      0.0000 
     51 H           0.7885   71.8992   11.4421 H         1 NAD401      0.0000 
     52 H          -1.9097   75.7065   12.4742 H         1 NAD401      0.0000 
     53 H          -1.6870   77.4753   12.2568 H         1 NAD401      0.0000 
     54 H           2.3612   78.0174   10.3118 H         1 NAD401      0.0000 
     55 H           3.7391   63.3098   11.1643 H         1 NAD401      0.0000 
     56 H           2.6464   63.5193   12.5435 H         1 NAD401      0.0000 
     57 H           4.4335   64.1249   13.9716 H         1 NAD401      0.0000 
     58 H           5.7391   65.1770   11.7961 H         1 NAD401      0.0000 
     59 H           6.3355   63.2387   10.8659 H         1 NAD401      0.0000 
     60 H           6.9440   62.0390   13.5236 H         1 NAD401      0.0000 
     61 H           8.0283   60.2575   12.9890 H         1 NAD401      0.0000 
     62 H           9.3710   58.9033   13.3291 H         1 NAD401      0.0000 
     63 H          10.1246   57.3022   13.0224 H         1 NAD401      0.0000 
     64 H           6.5700   57.5952   10.0660 H         1 NAD401      0.0000 
     65 H           4.8122   59.1615    9.4879 H         1 NAD401      0.0000 
     66 H           4.6665   61.2888   10.6822 H         1 NAD401      0.0000 
     67 H           6.1602   72.3273   10.5820 H         1 NAD401      0.0000 
     68 H           4.7098   72.7851   13.0050 H         1 NAD401      0.0000 
     69 H           7.6891   65.0956   13.3285 H         1 NAD401      0.0000 
     70 H           8.3096   64.4463   11.4671 H         1 NAD401      0.0000 
@<TRIPOS>BOND
     1    2    1 ar   
     2    3    1 ar   
     3    4    1 1    
     4   23    1 1    
     5    5    4 1    
     6    6    5 1    
     7   45    5 1    
     8   46    5 1    
     9    7    6 1    
    10    8    6 1    
    11   47    6 1    
    12   12    7 1    
    13    9    8 1    
    14   10    8 1    
    15   48    8 1    
    16   67    9 1    
    17   11   10 1    
    18   12   10 1    
    19   49   10 1    
    20   68   11 1    
    21   13   12 1    
    22   50   12 1    
    23   14   13 1    
    24   22   13 1    
    25   15   14 2    
    26   51   14 1    
    27   16   15 1    
    28   17   16 ar   
    29   22   16 ar   
    30   18   17 1    
    31   19   17 ar   
    32   52   18 1    
    33   53   18 1    
    34   20   19 ar   
    35   21   20 ar   
    36   54   20 1    
    37   22   21 ar   
    38   24   23 1    
    39   25   24 ar   
    40   26   24 ar   
    41   27   24 1    
    42   28   27 1    
    43   29   28 1    
    44   55   28 1    
    45   56   28 1    
    46   30   29 1    
    47   31   29 1    
    48   57   29 1    
    49   35   30 1    
    50   32   31 1    
    51   33   31 1    
    52   58   31 1    
    53   69   32 1    
    54   34   33 1    
    55   35   33 1    
    56   59   33 1    
    57   70   34 1    
    58   36   35 1    
    59   60   35 1    
    60   37   36 ar   
    61   44   36 ar   
    62   38   37 ar   
    63   61   37 1    
    64   39   38 1    
    65   42   38 ar   
    66   40   39 2    
    67   41   39 am   
    68   62   41 1    
    69   63   41 1    
    70   43   42 ar   
    71   64   42 1    
    72   44   43 ar   
    73   65   43 1    
    74   66   44 1    
@<TRIPOS>SUBSTRUCTURE
     1 NAD401      1 GROUP   
@<TRIPOS>SET

