#    Name: 4g2h_0VQ_1_INTS_M
#    Modification time : Mon Mar 24 21:14:23 2014

@<TRIPOS>MOLECULE
4g2h_0VQ_1_INTS_M
  138     0     9     0     0
SMALL
NO_CHARGES


@<TRIPOS>ATOM
      1 CA         -1.7955   35.8875   39.5860 C.3       3 GLC5        0.0000 
      2 CA         -0.6510   35.5290   37.8630 C.3       9 GLL5        0.0000 
      3 CA         -2.9400   36.2460   41.3090 C.3       6 GLP5        0.0000 
      4 CA         -2.3315   36.2475   37.0345 C.3       3 GLC5        0.0000 
      5 CA         -4.0120   36.9660   36.2060 C.3       6 GLP5        0.0000 
      6 CA         -0.0940   37.6100   36.5090 C.3       3 GLC5        0.0000 
      7 CA         -0.2050   38.1420   38.5590 C.3       9 GLL5        0.0000 
      8 CA          0.0170   37.0780   34.4590 C.3       6 GLP5        0.0000 
      9 CA         -2.0625   37.5360   39.4780 C.3       3 GLC5        0.0000 
     10 CA         -3.9200   36.9300   40.3970 C.3       6 GLP5        0.0000 
     11 CA          3.9885   29.3510   40.9505 C.3       3 GLC5        0.0000 
     12 CA          2.9100   29.4390   39.0230 C.3       9 GLL5        0.0000 
     13 CA          5.0670   29.2630   42.8780 C.3       6 GLP5        0.0000 
     14 CA          0.3760   28.2630   38.0595 C.3       3 GLC5        0.0000 
     15 CA          1.9430   28.2450   38.9690 C.3       9 GLL5        0.0000 
     16 CA         -1.1910   28.2810   37.1500 C.3       6 GLP5        0.0000 
     17 CA          2.0745   27.2020   37.3885 C.3       3 GLC5        0.0000 
     18 CA          2.2060   26.1590   35.8080 C.3       6 GLP5        0.0000 
     19 CA          2.6855   26.5910   39.6000 C.3       3 GLC5        0.0000 
     20 CA          3.4280   24.9370   40.2310 C.3       6 GLP5        0.0000 
     21 CA          0.2660   27.6120   39.5530 C.3       3 GLC5        0.0000 
     22 CA         -1.4110   26.9790   40.1370 C.3       6 GLP5        0.0000 
     23 CA          5.2195   28.3160   36.8865 C.3       3 GLC5        0.0000 
     24 CA          3.8530   29.5900   35.8940 C.3       9 GLL5        0.0000 
     25 CA          6.5860   27.0420   37.8790 C.3       6 GLP5        0.0000 
     26 N           4.5270   26.9615   35.0550 N.am      2 SEC2        0.0000 
     27 N           5.4760   27.7370   34.3730 N.am      8 SEL2        0.0000 
     28 N           3.5780   26.1860   35.7370 N.am      5 SEP2        0.0000 
     29 N           6.3470   27.6730   35.5865 N.am      2 SEC2        0.0000 
     30 N           7.2180   27.6090   36.8000 N.am      5 SEP2        0.0000 
     31 CA          7.5540   27.8730   33.0075 C.3       3 GLC5        0.0000 
     32 CA          6.3350   29.7340   33.2420 C.3       9 GLL5        0.0000 
     33 CA          8.7730   26.0120   32.7730 C.3       6 GLP5        0.0000 
     34 CA          8.2265   27.8055   32.0485 C.3       3 GLC5        0.0000 
     35 CA          7.1100   29.0210   32.4520 C.3       9 GLL5        0.0000 
     36 CA          9.3430   26.5900   31.6450 C.3       6 GLP5        0.0000 
     37 CA          6.8160   28.5450   30.4105 C.3       3 GLC5        0.0000 
     38 CA          6.5220   28.0690   28.3690 C.3       6 GLP5        0.0000 
     39 CA          8.9300   29.4380   33.1950 C.3       3 GLC5        0.0000 
     40 CA         10.7500   29.8550   33.9380 C.3       6 GLP5        0.0000 
     41 CA          5.0375   31.7810   31.0405 C.3       3 GLC5        0.0000 
     42 CA          6.0350   30.8580   32.5990 C.3       9 GLL5        0.0000 
     43 CA          4.0400   32.7040   29.4820 C.3       6 GLP5        0.0000 
     44 CA          5.9195   32.4680   33.0915 C.3       3 GLC5        0.0000 
     45 CA          5.8040   34.0780   33.5840 C.3       6 GLP5        0.0000 
     46 CA          6.7735   26.8590   32.2000 C.3       3 GLC5        0.0000 
     47 CA          4.7740   27.7060   31.6270 C.3       9 GLL5        0.0000 
     48 CA          5.6480   27.8875   29.9980 C.3       3 GLC5        0.0000 
     49 CA          1.9570   30.6055   31.7495 C.3       3 GLC5        0.0000 
     50 CA          3.6720   29.5270   31.7830 C.3       9 GLL5        0.0000 
     51 CA          0.2420   31.6840   31.7160 C.3       6 GLP5        0.0000 
     52 CA          3.8560   31.1155   30.6325 C.3       3 GLC5        0.0000 
     53 CA          1.1925   27.7760   32.6170 C.3       3 GLC5        0.0000 
     54 CA          3.0640   27.8000   32.9080 C.3       9 GLL5        0.0000 
     55 CA         -0.6790   27.7520   32.3260 C.3       6 GLP5        0.0000 
     56 CA          1.0425   32.1500   36.2460 C.3       3 GLC5        0.0000 
     57 CA          1.1660   32.3490   38.3980 C.3       9 GLL5        0.0000 
     58 CA          0.9190   31.9510   34.0940 C.3       6 GLP5        0.0000 
     59 CA          5.0345   31.5540   39.9055 C.3       3 GLC5        0.0000 
     60 CA          2.9710   32.2870   40.1650 C.3       9 GLL5        0.0000 
     61 CA          7.0980   30.8210   39.6460 C.3       6 GLP5        0.0000 
     62 CA          4.2130   32.1410   41.6690 C.3       3 GLC5        0.0000 
     63 CA          5.4550   31.9950   43.1730 C.3       6 GLP5        0.0000 
     64 CA          3.7125   33.9530   42.2450 C.3       3 GLC5        0.0000 
     65 CA          2.3730   33.4000   40.9310 C.3       9 GLL5        0.0000 
     66 CA          5.0520   34.5060   43.5590 C.3       6 GLP5        0.0000 
     67 CA         -1.7640   34.4955   40.1530 C.3       3 GLC5        0.0000 
     68 CA         -0.6820   34.1510   38.7300 C.3       9 GLL5        0.0000 
     69 CA         -2.8460   34.8400   41.5760 C.3       6 GLP5        0.0000 
     70 CA          1.0435   42.4635   40.2925 C.3       3 GLC5        0.0000 
     71 CA          0.2610   40.6710   39.2070 C.3       9 GLL5        0.0000 
     72 CA          1.8260   44.2560   41.3780 C.3       6 GLP5        0.0000 
     73 CA         -0.4070   42.4350   39.0340 C.3       3 GLC5        0.0000 
     74 CA         -1.0750   44.1990   38.8610 C.3       6 GLP5        0.0000 
     75 CA          0.0335   41.1535   37.0335 C.3       3 GLC5        0.0000 
     76 CA         -0.1940   41.6360   34.8600 C.3       6 GLP5        0.0000 
     77 CA          1.1310   39.6690   40.8985 C.3       3 GLC5        0.0000 
     78 CA          2.0010   38.6670   42.5900 C.3       6 GLP5        0.0000 
     79 CA         -1.1175   40.9755   40.4445 C.3       3 GLC5        0.0000 
     80 CA         -2.4960   41.2800   41.6820 C.3       6 GLP5        0.0000 
     81 CA         -1.4480   40.6085   38.5020 C.3       3 GLC5        0.0000 
     82 CA         -3.1570   40.5460   37.7970 C.3       6 GLP5        0.0000 
     83 N           0.6360   42.1475   41.0285 N.am      2 SEC2        0.0000 
     84 N           0.5520   40.8600   40.5760 N.am      8 SEL2        0.0000 
     85 N           0.7200   43.4350   41.4810 N.am      5 SEP2        0.0000 
     86 O          -0.7280   40.4125   41.0205 O.2       1 ALC1        0.0000 
     87 O           0.5520   40.8600   40.5760 O.2       7 ALL1        0.0000 
     88 O          -2.0080   39.9650   41.4650 O.2       4 ALP1        0.0000 
     89 CA          3.1810   41.8535   39.9925 C.3       3 GLC5        0.0000 
     90 CA          3.2670   40.0080   38.7150 C.3       9 GLL5        0.0000 
     91 CA          3.0950   43.6990   41.2700 C.3       6 GLP5        0.0000 
     92 CA          4.9275   40.1225   39.6410 C.3       3 GLC5        0.0000 
     93 CA          6.5880   40.2370   40.5670 C.3       6 GLP5        0.0000 
     94 CA          2.6340   39.3375   40.6525 C.3       3 GLC5        0.0000 
     95 N           5.2845   40.8165   38.5180 N.am      2 SEC2        0.0000 
     96 N           4.5540   39.5070   38.4370 N.am      8 SEL2        0.0000 
     97 N           6.0150   42.1260   38.5990 N.am      5 SEP2        0.0000 
     98 O           4.9625   39.2270   37.1450 O.2       1 ALC1        0.0000 
     99 O           4.5540   39.5070   38.4370 O.2       7 ALL1        0.0000 
    100 O           5.3710   38.9470   35.8530 O.2       4 ALP1        0.0000 
    101 CA          2.0010   38.6148   36.2553 C.3       3 GLC5        0.0000 
    102 CA          2.5760   37.6460   38.1480 C.3       9 GLL5        0.0000 
    103 CA          1.6410   38.9270   34.1620 C.3       6 GLP5        0.0000 
    104 CA          3.9588   36.4175   38.5105 C.3       3 GLC5        0.0000 
    105 CA          5.8040   35.7150   38.9730 C.3       6 GLP5        0.0000 
    106 CA          2.1450   37.7918   40.1543 C.3       3 GLC5        0.0000 
    107 CA          1.9290   37.2810   41.9600 C.3       6 GLP5        0.0000 
    108 CA          1.0945   37.9988   40.3160 C.3       3 GLC5        0.0000 
    109 CA          0.7250   39.2910   38.7850 C.3       9 GLL5        0.0000 
    110 CA         -1.4485   39.6312   38.2345 C.3       3 GLC5        0.0000 
    111 CA          0.3704   36.7266   36.2166 C.3       3 GLC5        0.0000 
    112 CA          0.2440   36.7840   38.1380 C.3       9 GLL5        0.0000 
    113 CA          1.4383   36.9850   40.0015 C.3       3 GLC5        0.0000 
    114 CA          5.0070   30.4230   39.0905 C.3       3 GLC5        0.0000 
    115 CA          2.9220   30.6110   38.0470 C.3       9 GLL5        0.0000 
    116 CA          1.7697   29.0960   40.7220 C.3       3 GLC5        0.0000 
    117 CA          1.1130   29.3500   42.4480 C.3       6 GLP5        0.0000 
    118 CA          3.1155   27.9310   35.5330 C.3       3 GLC5        0.0000 
    119 CA          4.1970   29.8160   34.6220 C.3       9 GLL5        0.0000 
    120 CA          2.4059   30.9605   34.7803 C.3       3 GLC5        0.0000 
    121 CA          4.3029   31.7650   34.9883 C.3       3 GLC5        0.0000 
    122 CA          4.7130   33.5600   34.5100 C.3       6 GLP5        0.0000 
    123 CA          6.9360   31.7873   33.9423 C.3       3 GLC5        0.0000 
    124 CA          7.0530   30.0670   34.3010 C.3       9 GLL5        0.0000 
    125 CA          7.1780   33.6740   34.1130 C.3       6 GLP5        0.0000 
    126 CA          8.3910   30.3702   34.2157 C.3       3 GLC5        0.0000 
    127 CA         10.0880   30.8400   34.6600 C.3       6 GLP5        0.0000 
    128 CA          7.9429   30.3199   31.6170 C.3       3 GLC5        0.0000 
    129 CA          9.5070   30.5220   30.5110 C.3       6 GLP5        0.0000 
    130 CA          2.9002   27.1480   34.2510 C.3       3 GLC5        0.0000 
    131 CA          4.1250   28.4740   32.4800 C.3       9 GLL5        0.0000 
    132 CA          2.9957   27.9631   30.7036 C.3       3 GLC5        0.0000 
    133 CA          2.4290   27.6220   28.9940 C.3       6 GLP5        0.0000 
    134 CA          4.2009   26.2045   31.8804 C.3       3 GLC5        0.0000 
    135 CA          4.6450   24.4640   31.2800 C.3       6 GLP5        0.0000 
    136 CA          1.8915   30.6835   40.9862 C.3       3 GLC5        0.0000 
    137 CA          2.3690   31.7470   38.8840 C.3       9 GLL5        0.0000 
    138 CA          1.8483   35.4748   41.3025 C.3       3 GLC5        0.0000 
@<TRIPOS>BOND
@<TRIPOS>SUBSTRUCTURE
     1 ALC1       86 GROUP        1 X    ALC  0     ROOT ALC X 1
     2 SEC2       26 GROUP        1 X    SEC  0     **** SEC X 2
     3 GLC5        1 GROUP        1 X    GLC  0     **** GLC X 6
     4 ALP1       88 GROUP        1 Y    ALP  0     ROOT ALP Y 8
     5 SEP2       28 GROUP        1 Y    SEP  0     **** SEP Y 9
     6 GLP5        3 GROUP        1 Y    GLP  0     **** GLP Y 13
     7 ALL1       87 GROUP        1 Z    ALL  0     ROOT ALL Z 15
     8 SEL2       27 GROUP        1 Z    SEL  0     **** SEL Z 16
     9 GLL5        2 GROUP        1 Z    GLL  0     **** GLL Z 20
@<TRIPOS>SET

