#    Name: 4g2h_0VQ_1_ligand
#    Modification time : Mon Mar 24 21:14:23 2014

@<TRIPOS>MOLECULE
4g2h_0VQ_1_ligand
   60    61     1     0     0
SMALL
NO_CHARGES


@<TRIPOS>ATOM
      1 C10        -0.6510   35.5290   37.8630 C.3       1 0VQ501      0.0000 
      2 C1          2.5760   37.6460   38.1480 C.ar      1 0VQ501      0.0000 
      3 C2          2.1460   38.9590   38.5490 C.ar      1 0VQ501      0.0000 
      4 C3          0.7250   39.2910   38.7850 C.ar      1 0VQ501      0.0000 
      5 C4         -0.2050   38.1420   38.5590 C.ar      1 0VQ501      0.0000 
      6 C6          1.6510   36.5940   37.9480 C.ar      1 0VQ501      0.0000 
      7 C5          0.2440   36.7840   38.1380 C.ar      1 0VQ501      0.0000 
      8 C26         2.9220   30.6110   38.0470 C.2       1 0VQ501      0.0000 
      9 C27         2.9100   29.4390   39.0230 C.3       1 0VQ501      0.0000 
     10 C28         1.9430   28.2450   38.9690 C.3       1 0VQ501      0.0000 
     11 C34         3.3240   30.6580   36.7280 C.2       1 0VQ501      0.0000 
     12 C35         3.8530   29.5900   35.8940 C.2       1 0VQ501      0.0000 
     13 C37         4.1970   29.8160   34.6220 C.2       1 0VQ501      0.0000 
     14 C38         5.0520   28.9320   33.6930 C.3       1 0VQ501      0.0000 
     15 O39         5.4760   27.7370   34.3730 O.3       1 0VQ501      0.0000 
     16 C40         6.3350   29.7340   33.2420 C.3       1 0VQ501      0.0000 
     17 F41         7.1100   29.0210   32.4520 F         1 0VQ501      0.0000 
     18 F42         7.0530   30.0670   34.3010 F         1 0VQ501      0.0000 
     19 F43         6.0350   30.8580   32.5990 F         1 0VQ501      0.0000 
     20 C44         4.1250   28.4740   32.4800 C.3       1 0VQ501      0.0000 
     21 F45         4.7740   27.7060   31.6270 F         1 0VQ501      0.0000 
     22 F46         3.6720   29.5270   31.7830 F         1 0VQ501      0.0000 
     23 F47         3.0640   27.8000   32.9080 F         1 0VQ501      0.0000 
     24 C14         0.6020   33.4060   39.1290 C.ar      1 0VQ501      0.0000 
     25 C17         1.1660   32.3490   38.3980 C.ar      1 0VQ501      0.0000 
     26 C18         2.3690   31.7470   38.8840 C.ar      1 0VQ501      0.0000 
     27 C19         2.9710   32.2870   40.1650 C.ar      1 0VQ501      0.0000 
     28 C20         2.3730   33.4000   40.9310 C.ar      1 0VQ501      0.0000 
     29 C21         1.1620   33.9370   40.3590 C.ar      1 0VQ501      0.0000 
     30 C11        -0.6820   34.1510   38.7300 C.3       1 0VQ501      0.0000 
     31 C48         0.2610   40.6710   39.2070 C.3       1 0VQ501      0.0000 
     32 O49         0.5520   40.8600   40.5760 O.3       1 0VQ501      0.0000 
     33 C52         3.2670   40.0080   38.7150 C.3       1 0VQ501      0.0000 
     34 O53         4.5540   39.5070   38.4370 O.3       1 0VQ501      0.0000 
     35 H          -0.4744   35.2033   36.7747 H         1 0VQ501      0.0000 
     36 H          -1.7437   35.8821   37.8082 H         1 0VQ501      0.0000 
     37 H           3.5794   37.4785   38.0062 H         1 0VQ501      0.0000 
     38 H          -1.2052   38.2983   38.7017 H         1 0VQ501      0.0000 
     39 H           1.9902   35.6664   37.6588 H         1 0VQ501      0.0000 
     40 H           2.8416   29.8792   40.0898 H         1 0VQ501      0.0000 
     41 H           3.9806   29.0036   39.0525 H         1 0VQ501      0.0000 
     42 H           3.2449   31.6129   36.2182 H         1 0VQ501      0.0000 
     43 H           3.9449   28.6603   36.3391 H         1 0VQ501      0.0000 
     44 H           3.8717   30.7089   34.1159 H         1 0VQ501      0.0000 
     45 H           0.7414   32.0121   37.5466 H         1 0VQ501      0.0000 
     46 H           3.8268   31.8530   40.5010 H         1 0VQ501      0.0000 
     47 H           2.7729   33.7287   41.7457 H         1 0VQ501      0.0000 
     48 H           0.6849   34.7084   40.8272 H         1 0VQ501      0.0000 
     49 H          -1.3584   33.4463   38.1615 H         1 0VQ501      0.0000 
     50 H          -1.2781   34.3877   39.6606 H         1 0VQ501      0.0000 
     51 H          -0.8143   40.7417   39.0012 H         1 0VQ501      0.0000 
     52 H           0.7715   41.4060   38.5724 H         1 0VQ501      0.0000 
     53 H           3.1870   40.3980   39.7548 H         1 0VQ501      0.0000 
     54 H           3.0017   40.8650   38.0555 H         1 0VQ501      0.0000 
     55 H           2.0234   27.7406   38.1093 H         1 0VQ501      0.0000 
     56 H           2.1153   27.5938   39.7081 H         1 0VQ501      0.0000 
     57 H           0.9895   28.5353   39.0505 H         1 0VQ501      0.0000 
     58 H           5.3321   27.2422   33.5159 H         1 0VQ501      0.0000 
     59 H          -0.2698   40.5581   41.0592 H         1 0VQ501      0.0000 
     60 H           4.5740   39.3813   37.4451 H         1 0VQ501      0.0000 
@<TRIPOS>BOND
     1    7    1 1    
     2   30    1 1    
     3   35    1 1    
     4   36    1 1    
     5    3    2 ar   
     6    6    2 ar   
     7   37    2 1    
     8    4    3 ar   
     9   33    3 1    
    10    5    4 ar   
    11   31    4 1    
    12    7    5 ar   
    13   38    5 1    
    14    7    6 ar   
    15   39    6 1    
    16    9    8 1    
    17   11    8 2    
    18   26    8 1    
    19   10    9 1    
    20   40    9 1    
    21   41    9 1    
    22   55   10 1    
    23   56   10 1    
    24   57   10 1    
    25   12   11 1    
    26   42   11 1    
    27   13   12 2    
    28   43   12 1    
    29   14   13 1    
    30   44   13 1    
    31   15   14 1    
    32   16   14 1    
    33   20   14 1    
    34   58   15 1    
    35   17   16 1    
    36   18   16 1    
    37   19   16 1    
    38   21   20 1    
    39   22   20 1    
    40   23   20 1    
    41   25   24 ar   
    42   29   24 ar   
    43   30   24 1    
    44   26   25 ar   
    45   45   25 1    
    46   27   26 ar   
    47   28   27 ar   
    48   46   27 1    
    49   29   28 ar   
    50   47   28 1    
    51   48   29 1    
    52   49   30 1    
    53   50   30 1    
    54   32   31 1    
    55   51   31 1    
    56   52   31 1    
    57   59   32 1    
    58   34   33 1    
    59   53   33 1    
    60   54   33 1    
    61   60   34 1    
@<TRIPOS>SUBSTRUCTURE
     1 0VQ501      1 GROUP   
@<TRIPOS>SET

