#    Name: 2yy2_IBM_1_INTS_M
#    Modification time : Tue Mar 25 09:49:48 2014

@<TRIPOS>MOLECULE
2yy2_IBM_1_INTS_M
   27     0     6     0     0
SMALL
NO_CHARGES


@<TRIPOS>ATOM
      1 CA         73.9515   51.8510   42.4750 C.3       2 GLC5        0.0000 
      2 CA         76.0290   52.4770   42.0380 C.3       6 GLL5        0.0000 
      3 CA         71.8740   51.2250   42.9120 C.3       4 GLP5        0.0000 
      4 N          75.6980   53.3320   45.4580 N.am      1 SEC2        0.0000 
      5 N          76.6110   52.5320   44.3160 N.am      5 SEL2        0.0000 
      6 N          74.7850   54.1320   46.6000 N.am      3 SEP2        0.0000 
      7 CA         80.5985   51.8705   44.4220 C.3       2 GLC5        0.0000 
      8 CA         78.8080   50.8610   44.1520 C.3       6 GLL5        0.0000 
      9 CA         82.3890   52.8800   44.6920 C.3       4 GLP5        0.0000 
     10 CA         79.0915   48.8950   44.7960 C.3       2 GLC5        0.0000 
     11 CA         79.3750   46.9290   45.4400 C.3       4 GLP5        0.0000 
     12 CA         76.9020   50.1660   44.1555 C.3       2 GLC5        0.0000 
     13 CA         74.9960   49.4710   44.1590 C.3       4 GLP5        0.0000 
     14 CA         76.2080   49.7540   40.5295 C.3       2 GLC5        0.0000 
     15 CA         77.7350   50.6050   39.2130 C.3       6 GLL5        0.0000 
     16 CA         74.6810   48.9030   41.8460 C.3       4 GLP5        0.0000 
     17 CA         80.4135   53.4220   40.0820 C.3       2 GLC5        0.0000 
     18 CA         80.0330   51.7390   38.8820 C.3       6 GLL5        0.0000 
     19 CA         80.7940   55.1050   41.2820 C.3       4 GLP5        0.0000 
     20 CA         79.2510   53.4240   38.5165 C.3       2 GLC5        0.0000 
     21 CA         78.4690   55.1090   38.1510 C.3       4 GLP5        0.0000 
     22 CA         77.3202   53.6462   41.7788 C.3       2 GLC5        0.0000 
     23 CA         76.3620   51.9580   40.7670 C.3       6 GLL5        0.0000 
     24 CA         78.4450   55.0750   42.1550 C.3       4 GLP5        0.0000 
     25 CA         78.5869   48.3511   38.0973 C.3       2 GLC5        0.0000 
     26 CA         79.2760   49.9280   37.3340 C.3       6 GLL5        0.0000 
     27 CA         78.2950   46.4810   38.0270 C.3       4 GLP5        0.0000 
@<TRIPOS>BOND
@<TRIPOS>SUBSTRUCTURE
     1 SEC2        4 GROUP        1 X    SEC  0     ROOT SEC X 2
     2 GLC5        1 GROUP        1 X    GLC  0     **** GLC X 6
     3 SEP2        6 GROUP        1 Y    SEP  0     ROOT SEP Y 9
     4 GLP5        3 GROUP        1 Y    GLP  0     **** GLP Y 13
     5 SEL2        5 GROUP        1 Z    SEL  0     ROOT SEL Z 16
     6 GLL5        2 GROUP        1 Z    GLL  0     **** GLL Z 20
@<TRIPOS>SET

