#    Name: 2yy2_IBM_1_ligand
#    Modification time : Tue Mar 25 09:49:48 2014

@<TRIPOS>MOLECULE
2yy2_IBM_1_ligand
   30    31     1     0     0
SMALL
NO_CHARGES


@<TRIPOS>ATOM
      1 N9         75.4290   52.4650   39.9010 N.pl3     1 IBM1103     0.0000 
      2 C8         74.5720   53.2550   40.6250 C.2       1 IBM1103     0.0000 
      3 N7         74.9290   53.2590   41.8840 N.2       1 IBM1103     0.0000 
      4 C5         76.0290   52.4770   42.0380 C.2       1 IBM1103     0.0000 
      5 C4         76.3620   51.9580   40.7670 C.2       1 IBM1103     0.0000 
      6 N3         77.4690   51.1030   40.6140 N.am      1 IBM1103     0.0000 
      7 C2         78.2450   50.7620   41.7310 C.2       1 IBM1103     0.0000 
      8 N1         77.9530   51.2500   42.9910 N.am      1 IBM1103     0.0000 
      9 C6         76.8730   52.0970   43.1950 C.2       1 IBM1103     0.0000 
     10 O6         76.6110   52.5320   44.3160 O.2       1 IBM1103     0.0000 
     11 O2         79.2060   50.0160   41.6080 O.2       1 IBM1103     0.0000 
     12 C10        78.8080   50.8610   44.1520 C.3       1 IBM1103     0.0000 
     13 C11        77.7350   50.6050   39.2130 C.3       1 IBM1103     0.0000 
     14 C12        79.2280   50.4240   38.7890 C.3       1 IBM1103     0.0000 
     15 C13        79.2760   49.9280   37.3340 C.3       1 IBM1103     0.0000 
     16 C14        80.0330   51.7390   38.8820 C.3       1 IBM1103     0.0000 
     17 H          75.3827   52.2993   38.9638 H         1 IBM1103     0.0000 
     18 H          73.8158   53.7304   40.2253 H         1 IBM1103     0.0000 
     19 H          77.2600   51.2958   38.4768 H         1 IBM1103     0.0000 
     20 H          77.2242   49.6243   39.0641 H         1 IBM1103     0.0000 
     21 H          79.6802   49.6859   39.4153 H         1 IBM1103     0.0000 
     22 H          79.7584   51.1451   44.0250 H         1 IBM1103     0.0000 
     23 H          78.4892   51.2767   45.0038 H         1 IBM1103     0.0000 
     24 H          78.8144   49.8711   44.2934 H         1 IBM1103     0.0000 
     25 H          80.2154   49.8007   37.0158 H         1 IBM1103     0.0000 
     26 H          78.8082   49.0509   37.2250 H         1 IBM1103     0.0000 
     27 H          78.8391   50.5731   36.7071 H         1 IBM1103     0.0000 
     28 H          80.9861   51.6112   38.6075 H         1 IBM1103     0.0000 
     29 H          79.6511   52.4507   38.2924 H         1 IBM1103     0.0000 
     30 H          80.0425   52.1036   39.8131 H         1 IBM1103     0.0000 
@<TRIPOS>BOND
     1    2    1 1    
     2    5    1 1    
     3   17    1 1    
     4    3    2 2    
     5   18    2 1    
     6    4    3 1    
     7    5    4 2    
     8    9    4 1    
     9    6    5 1    
    10    7    6 am   
    11   13    6 1    
    12    8    7 am   
    13   11    7 2    
    14    9    8 am   
    15   12    8 1    
    16   10    9 2    
    17   22   12 1    
    18   23   12 1    
    19   24   12 1    
    20   14   13 1    
    21   19   13 1    
    22   20   13 1    
    23   15   14 1    
    24   16   14 1    
    25   21   14 1    
    26   25   15 1    
    27   26   15 1    
    28   27   15 1    
    29   28   16 1    
    30   29   16 1    
    31   30   16 1    
@<TRIPOS>SUBSTRUCTURE
     1 IBM1103     1 GROUP   
@<TRIPOS>SET

