#    Name: 1WAJ_1_CAVITY_N1_6.mol2
#    Modification time : Mon Mar 10 15:50:41 2014

@<TRIPOS>MOLECULE
1WAJ_1_CAVITY_N1_6.mol2
   78     0     6     0     0
SMALL
NO_CHARGES


@<TRIPOS>ATOM
      1 CA          9.8928    8.3735   55.0078 C.3       5 GLY6        0.0000 
      2 CA          8.4954    9.6279   54.0212 C.3       5 GLY6        0.0000 
      3 CZ          9.2417    8.3789   53.6565 C.ar      4 PHE5        0.0000 
      4 CZ          9.9880    7.1299   53.2919 C.ar      4 PHE5        0.0000 
      5 CZ          7.8442    9.6333   52.6699 C.ar      4 PHE5        0.0000 
      6 CZ         10.0832    5.8863   51.5759 C.ar      4 PHE5        0.0000 
      7 CZ          7.9394    8.3898   50.9540 C.ar      4 PHE5        0.0000 
      8 CZ          8.6857    7.1407   50.5893 C.ar      4 PHE5        0.0000 
      9 CZ          9.4320    5.8917   50.2246 C.ar      4 PHE5        0.0000 
     10 CA         10.1783    4.6427   49.8600 C.3       5 GLY6        0.0000 
     11 CA          8.0345    7.1462   49.2380 C.3       5 GLY6        0.0000 
     12 N           8.7809    5.8972   48.8734 N.2       2 ALA2        0.0000 
     13 N           9.5272    4.6482   48.5087 N.2       2 ALA2        0.0000 
     14 N           3.1479    8.7980   58.2598 N.2       2 ALA2        0.0000 
     15 O           3.2431    7.5544   56.5438 O.2       2 ALA2        0.0000 
     16 O           2.5919    7.5598   55.1926 O.2       2 ALA2        0.0000 
     17 O           3.3382    6.3108   54.8279 O.2       2 ALA2        0.0000 
     18 O           1.9407    7.5653   53.8413 O.2       2 ALA2        0.0000 
     19 O           2.6871    6.3163   53.4766 O.2       2 ALA2        0.0000 
     20 O           3.4334    5.0672   53.1120 O.2       2 ALA2        0.0000 
     21 OG          2.0359    6.3217   52.1253 O.2       1 SER1        0.0000 
     22 CZ          2.7822    5.0727   51.7607 C.ar      4 PHE5        0.0000 
     23 OG          1.3847    6.3271   50.7741 O.2       1 SER1        0.0000 
     24 OG          2.1311    5.0781   50.4094 O.2       1 SER1        0.0000 
     25 N           0.7336    6.3325   49.4228 N.2       2 ALA2        0.0000 
     26 NZ          4.2744    9.6286   57.7203 N.2       3 LYS4        0.0000 
     27 OG          5.0207    8.3796   57.3556 O.2       1 SER1        0.0000 
     28 NZ          4.3695    8.3850   56.0043 N.2       3 LYS4        0.0000 
     29 NZ          2.9721    9.6395   55.0177 N.2       3 LYS4        0.0000 
     30 NZ          3.7184    8.3905   54.6531 N.2       3 LYS4        0.0000 
     31 OG          4.4647    7.1415   54.2884 O.2       1 SER1        0.0000 
     32 OG          5.2110    5.8924   53.9237 O.2       1 SER1        0.0000 
     33 NZ          2.3209    9.6449   53.6664 N.2       3 LYS4        0.0000 
     34 CA          3.0672    8.3959   53.3018 C.3       5 GLY6        0.0000 
     35 DU          3.8136    7.1469   52.9371 H         6 CUB7        0.0000 
     36 CZ          4.5599    5.8979   52.5725 C.ar      4 PHE5        0.0000 
     37 CA          2.4161    8.4013   51.9505 C.3       5 GLY6        0.0000 
     38 CA          3.1624    7.1523   51.5858 C.3       5 GLY6        0.0000 
     39 CZ          3.9087    5.9033   51.2212 C.ar      4 PHE5        0.0000 
     40 CZ          4.6550    4.6543   50.8565 C.ar      4 PHE5        0.0000 
     41 CZ          5.4014    3.4053   50.4919 C.ar      4 PHE5        0.0000 
     42 CA          2.5112    7.1577   50.2346 C.3       5 GLY6        0.0000 
     43 N           3.2576    5.9087   49.8699 N.2       2 ALA2        0.0000 
     44 CZ          4.0039    4.6597   49.5052 C.ar      4 PHE5        0.0000 
     45 N           1.8601    7.1631   48.8833 N.2       2 ALA2        0.0000 
     46 N           2.6064    5.9141   48.5186 N.2       2 ALA2        0.0000 
     47 OG          6.8935    7.9612   56.4515 O.2       1 SER1        0.0000 
     48 OG          6.2424    7.9667   55.1002 O.2       1 SER1        0.0000 
     49 NZ          5.5912    7.9721   53.7489 N.2       3 LYS4        0.0000 
     50 OG          6.3375    6.7231   53.3842 O.2       1 SER1        0.0000 
     51 CZ          7.0839    5.4741   53.0196 C.ar      4 PHE5        0.0000 
     52 CA          4.9400    7.9775   52.3976 C.3       5 GLY6        0.0000 
     53 CA          5.6864    6.7285   52.0330 C.3       5 GLY6        0.0000 
     54 CZ          6.4327    5.4795   51.6683 C.ar      4 PHE5        0.0000 
     55 CA          5.0352    6.7339   50.6817 C.3       5 GLY6        0.0000 
     56 CA          5.7815    5.4849   50.3170 C.3       5 GLY6        0.0000 
     57 N           6.5279    4.2359   49.9524 N.2       2 ALA2        0.0000 
     58 CA          3.6377    7.9884   49.6950 C.3       5 GLY6        0.0000 
     59 N           4.3841    6.7393   49.3304 N.2       2 ALA2        0.0000 
     60 N           5.1304    5.4903   48.9657 N.2       2 ALA2        0.0000 
     61 CA          2.2402    9.2428   48.7084 C.3       5 GLY6        0.0000 
     62 N           9.4175    7.5374   56.8986 N.2       2 ALA2        0.0000 
     63 OG          8.0200    8.7919   55.9120 O.2       1 SER1        0.0000 
     64 N           8.7663    7.5429   55.5473 N.2       2 ALA2        0.0000 
     65 NZ          7.3689    8.7973   54.5607 N.2       3 LYS4        0.0000 
     66 N           8.1152    7.5483   54.1960 N.2       2 ALA2        0.0000 
     67 N           8.8615    6.2993   53.8314 N.2       2 ALA2        0.0000 
     68 N           9.6078    5.0503   53.4667 N.2       2 ALA2        0.0000 
     69 NZ          6.7177    8.8027   53.2094 N.2       3 LYS4        0.0000 
     70 CZ          7.4640    7.5537   52.8447 C.ar      4 PHE5        0.0000 
     71 CZ          8.2104    6.3047   52.4801 C.ar      4 PHE5        0.0000 
     72 CZ          8.9567    5.0557   52.1154 C.ar      4 PHE5        0.0000 
     73 CA          6.8129    7.5591   51.4935 C.3       5 GLY6        0.0000 
     74 CA          7.5592    6.3101   51.1288 C.3       5 GLY6        0.0000 
     75 CZ          8.3055    5.0611   50.7641 C.ar      4 PHE5        0.0000 
     76 CZ          9.0518    3.8121   50.3995 C.ar      4 PHE5        0.0000 
     77 CA          6.9080    6.3155   49.7775 C.3       5 GLY6        0.0000 
     78 N           7.6544    5.0665   49.4129 N.2       2 ALA2        0.0000 
@<TRIPOS>BOND
@<TRIPOS>SUBSTRUCTURE
     1 SER1       21 GROUP   
     2 ALA2       12 GROUP   
     3 LYS4       26 GROUP   
     4 PHE5        3 GROUP   
     5 GLY6        1 GROUP   
     6 CUB7       35 GROUP   
@<TRIPOS>SET

