#    Name: 1waj_5GP_1_INTS_M
#    Modification time : Tue Mar 25 08:51:21 2014

@<TRIPOS>MOLECULE
1waj_5GP_1_INTS_M
   35     0     9     0     0
SMALL
NO_CHARGES


@<TRIPOS>ATOM
      1 CA          3.8300    9.0025   51.5770 C.3       3 GLC5        0.0000 
      2 CA          2.9310    7.7760   52.6100 C.3       9 GLL5        0.0000 
      3 CA          4.7290   10.2290   50.5440 C.3       6 GLP5        0.0000 
      4 N           5.2770    6.9710   56.2505 N.am      2 SEC2        0.0000 
      5 N           4.7610    8.2420   55.8800 N.am      8 SEL2        0.0000 
      6 N           5.7930    5.7000   56.6210 N.am      5 SEP2        0.0000 
      7 O           4.7925    9.7560   55.8645 O.2       1 ALC1        0.0000 
      8 O           4.7610    8.2420   55.8800 O.2       7 ALL1        0.0000 
      9 O           4.8240   11.2700   55.8490 O.2       4 ALP1        0.0000 
     10 O           6.1400   10.3355   53.9685 O.2       1 ALC1        0.0000 
     11 O           6.9790    9.2560   54.2570 O.2       7 ALL1        0.0000 
     12 O           5.3010   11.4150   53.6800 O.2       4 ALP1        0.0000 
     13 O           5.9015   10.2630   55.0530 O.2       1 ALC1        0.0000 
     14 CA          6.0635    5.8465   55.7420 C.3       3 GLC5        0.0000 
     15 CA          6.3330    6.9220   53.8180 C.3       9 GLL5        0.0000 
     16 CA          5.7940    4.7710   57.6660 C.3       6 GLP5        0.0000 
     17 N          11.3550    5.5425   52.9480 N.am      2 SEC2        0.0000 
     18 N           9.7080    5.6540   52.8440 N.am      8 SEL2        0.0000 
     19 N          13.0020    5.4310   53.0520 N.am      5 SEP2        0.0000 
     20 CA         10.6855    4.3005   52.1700 C.3       3 GLC5        0.0000 
     21 CA          8.9960    5.4860   51.6470 C.3       9 GLL5        0.0000 
     22 CA         12.3750    3.1150   52.6930 C.3       6 GLP5        0.0000 
     23 N          11.1600    3.3580   48.8385 N.am      2 SEC2        0.0000 
     24 N          10.4310    4.2750   49.8490 N.am      8 SEL2        0.0000 
     25 N          11.8890    2.4410   47.8280 N.am      5 SEP2        0.0000 
     26 O           7.9560    4.1135   48.3365 O.2       1 ALC1        0.0000 
     27 O           8.2440    4.8860   49.5120 O.2       7 ALL1        0.0000 
     28 O           7.6680    3.3410   47.1610 O.2       4 ALP1        0.0000 
     29 O           6.8485    4.3455   48.0390 O.2       1 ALC1        0.0000 
     30 O           6.0290    5.3500   48.9170 O.2       7 ALL1        0.0000 
     31 CA          7.0005    7.5250   50.4315 C.3       3 GLC5        0.0000 
     32 CA          7.7080    5.9750   51.8590 C.3       9 GLL5        0.0000 
     33 CA          6.2930    9.0750   49.0040 C.3       6 GLP5        0.0000 
     34 CA          5.0178    9.3277   52.2805 C.3       3 GLC5        0.0000 
     35 CA          6.0100    8.4140   53.6280 C.3       9 GLL5        0.0000 
@<TRIPOS>BOND
@<TRIPOS>SUBSTRUCTURE
     1 ALC1        7 GROUP        1 X    ALC  0     ROOT ALC X 1
     2 SEC2        4 GROUP        1 X    SEC  0     **** SEC X 2
     3 GLC5        1 GROUP        1 X    GLC  0     **** GLC X 6
     4 ALP1        9 GROUP        1 Y    ALP  0     ROOT ALP Y 8
     5 SEP2        6 GROUP        1 Y    SEP  0     **** SEP Y 9
     6 GLP5        3 GROUP        1 Y    GLP  0     **** GLP Y 13
     7 ALL1        8 GROUP        1 Z    ALL  0     ROOT ALL Z 15
     8 SEL2        5 GROUP        1 Z    SEL  0     **** SEL Z 16
     9 GLL5        2 GROUP        1 Z    GLL  0     **** GLL Z 20
@<TRIPOS>SET

