#    Name: 1waj_5GP_1_ligand
#    Modification time : Tue Mar 25 08:51:21 2014

@<TRIPOS>MOLECULE
1waj_5GP_1_ligand
   36    38     1     0     0
SMALL
NO_CHARGES


@<TRIPOS>ATOM
      1 P           0.9650    7.7410   50.8530 P.3       1 5GP904      0.0000 
      2 O1P         0.0880    6.6160   50.4680 O.co2     1 5GP904      0.0000 
      3 O2P         1.5840    8.4760   49.7260 O.co2     1 5GP904      0.0000 
      4 O3P         0.4000    8.6180   51.9090 O.co2     1 5GP904      0.0000 
      5 O5'         2.2110    7.0250   51.5710 O.3       1 5GP904      0.0000 
      6 C5'         2.9310    7.7760   52.6100 C.3       1 5GP904      0.0000 
      7 C4'         3.9260    7.1430   53.7340 C.3       1 5GP904      0.0000 
      8 O4'         5.0930    6.3060   53.2850 O.3       1 5GP904      0.0000 
      9 C3'         4.6030    8.4390   54.4060 C.3       1 5GP904      0.0000 
     10 O3'         4.7610    8.2420   55.8800 O.3       1 5GP904      0.0000 
     11 C2'         6.0100    8.4140   53.6280 C.3       1 5GP904      0.0000 
     12 O2'         6.9790    9.2560   54.2570 O.3       1 5GP904      0.0000 
     13 C1'         6.3330    6.9220   53.8180 C.3       1 5GP904      0.0000 
     14 N9          7.5910    6.4200   53.1280 N.pl3     1 5GP904      0.0000 
     15 C8          8.8380    6.2000   53.6680 C.2       1 5GP904      0.0000 
     16 N7          9.7080    5.6540   52.8440 N.2       1 5GP904      0.0000 
     17 C5          8.9960    5.4860   51.6470 C.2       1 5GP904      0.0000 
     18 C6          9.3850    4.8470   50.3300 C.2       1 5GP904      0.0000 
     19 O6         10.4310    4.2750   49.8490 O.2       1 5GP904      0.0000 
     20 N1          8.2440    4.8860   49.5120 N.am      1 5GP904      0.0000 
     21 C2          6.9890    5.4260   49.8590 C.2       1 5GP904      0.0000 
     22 N2          6.0290    5.3500   48.9170 N.pl3     1 5GP904      0.0000 
     23 N3          6.6700    5.9910   51.0330 N.2       1 5GP904      0.0000 
     24 C4          7.7080    5.9750   51.8590 C.2       1 5GP904      0.0000 
     25 H           2.1842    8.4129   53.2234 H         1 5GP904      0.0000 
     26 H           3.5579    8.6182   52.1230 H         1 5GP904      0.0000 
     27 H           3.3530    6.6988   54.4891 H         1 5GP904      0.0000 
     28 H           4.0791    9.2605   54.1068 H         1 5GP904      0.0000 
     29 H           5.8013    8.5878   52.6306 H         1 5GP904      0.0000 
     30 H           6.3680    6.7365   54.8796 H         1 5GP904      0.0000 
     31 H           9.0395    6.4485   54.6243 H         1 5GP904      0.0000 
     32 H           8.3337    4.4674   48.5342 H         1 5GP904      0.0000 
     33 H           5.1426    5.7445   49.1593 H         1 5GP904      0.0000 
     34 H           6.2883    4.9059   48.0594 H         1 5GP904      0.0000 
     35 H           4.9068    9.1598   56.2495 H         1 5GP904      0.0000 
     36 H           6.6169   10.1832   54.1616 H         1 5GP904      0.0000 
@<TRIPOS>BOND
     1    2    1 ar   
     2    3    1 ar   
     3    4    1 ar   
     4    5    1 1    
     5    6    5 1    
     6    7    6 1    
     7   25    6 1    
     8   26    6 1    
     9    8    7 1    
    10    9    7 1    
    11   27    7 1    
    12   13    8 1    
    13   10    9 1    
    14   11    9 1    
    15   28    9 1    
    16   35   10 1    
    17   12   11 1    
    18   13   11 1    
    19   29   11 1    
    20   36   12 1    
    21   14   13 1    
    22   30   13 1    
    23   15   14 1    
    24   24   14 1    
    25   16   15 2    
    26   31   15 1    
    27   17   16 1    
    28   18   17 1    
    29   24   17 2    
    30   19   18 2    
    31   20   18 am   
    32   21   20 1    
    33   32   20 1    
    34   22   21 1    
    35   23   21 2    
    36   33   22 1    
    37   34   22 1    
    38   24   23 1    
@<TRIPOS>SUBSTRUCTURE
     1 5GP904      1 GROUP   
@<TRIPOS>SET

