#    Name: 3h06_VBP_2_INTS_M
#    Modification time : Tue Mar 25 13:19:39 2014

@<TRIPOS>MOLECULE
3h06_VBP_2_INTS_M
   54     0    12     0     0
SMALL
NO_CHARGES


@<TRIPOS>ATOM
      1 CA          7.0690   13.2140   11.8135 C.3       4 GLC5        0.0000 
      2 CA          5.2680   14.1010   12.0420 C.3      12 GLL5        0.0000 
      3 CA          8.8700   12.3270   11.5850 C.3       8 GLP5        0.0000 
      4 CA          5.5105   14.5275   13.7775 C.3       4 GLC5        0.0000 
      5 CA          5.7530   14.9540   15.5130 C.3       8 GLP5        0.0000 
      6 CA          5.1995   11.0530   12.7100 C.3       4 GLC5        0.0000 
      7 CA          5.1190   12.6880   11.4490 C.3      12 GLL5        0.0000 
      8 CA          5.2800    9.4180   13.9710 C.3       8 GLP5        0.0000 
      9 CA          6.7585   12.4955   10.7890 C.3       4 GLC5        0.0000 
     10 CA          8.3980   12.3030   10.1290 C.3       8 GLP5        0.0000 
     11 O           9.0065   18.9065    7.9370 O.2       1 ALC1        0.0000 
     12 O           8.3810   17.3970    7.6270 O.2       9 ALL1        0.0000 
     13 O           9.6320   20.4160    8.2470 O.2       5 ALP1        0.0000 
     14 O           9.2850   16.9470    6.7785 O.2       1 ALC1        0.0000 
     15 O          10.1890   16.4970    5.9300 O.2       5 ALP1        0.0000 
     16 CA          5.8965   20.3600    8.7870 C.3       4 GLC5        0.0000 
     17 CA          6.5170   18.8760    8.2180 C.3      12 GLL5        0.0000 
     18 CA          5.2760   21.8440    9.3560 C.3       8 GLP5        0.0000 
     19 CA          6.4620   20.3710    9.8870 C.3       4 GLC5        0.0000 
     20 CA          7.6480   18.8980   10.4180 C.3      12 GLL5        0.0000 
     21 CA          8.3560   20.4620   10.6855 C.3       4 GLC5        0.0000 
     22 CA          9.0640   22.0260   10.9530 C.3       8 GLP5        0.0000 
     23 CA          6.5825   19.8825   13.0160 C.3       4 GLC5        0.0000 
     24 CA          7.7190   18.5360   11.8720 C.3      12 GLL5        0.0000 
     25 CA          5.4460   21.2290   14.1600 C.3       8 GLP5        0.0000 
     26 CA          8.4060   19.5605   13.2380 C.3       4 GLC5        0.0000 
     27 CA          9.0930   20.5850   14.6040 C.3       8 GLP5        0.0000 
     28 CA          9.0045   19.8665   11.3660 C.3       4 GLC5        0.0000 
     29 CA         10.2900   21.1970   10.8600 C.3       8 GLP5        0.0000 
     30 N           5.3890    9.6020    8.9405 N.am      2 SEC2        0.0000 
     31 N           4.5940   10.5980    9.2430 N.am     10 SEL2        0.0000 
     32 N           6.1840    8.6060    8.6380 N.am      6 SEP2        0.0000 
     33 NZ          6.3070   18.9735    3.7040 N.4       3 LYC4        0.0000 
     34 NZ          6.3660   18.2040    5.0680 N.4      11 LYL4        0.0000 
     35 NZ          7.4480   19.7630    1.7780 N.4       7 LYP4        0.0000 
     36 N           6.3070   18.9735    3.7040 N.am      2 SEC2        0.0000 
     37 N           6.3660   18.2040    5.0680 N.am     10 SEL2        0.0000 
     38 N           6.2480   19.7430    2.3400 N.am      6 SEP2        0.0000 
     39 NZ          8.4465   19.0315    3.8890 N.4       3 LYC4        0.0000 
     40 NZ          8.3860   18.7080    5.3110 N.4      11 LYL4        0.0000 
     41 N           9.7095   18.9235    5.2520 N.am      2 SEC2        0.0000 
     42 N           8.3860   18.7080    5.3110 N.am     10 SEL2        0.0000 
     43 N          11.0330   19.1390    5.1930 N.am      6 SEP2        0.0000 
     44 N           8.4465   19.0315    3.8890 N.am      2 SEC2        0.0000 
     45 N           8.5070   19.3550    2.4670 N.am      6 SEP2        0.0000 
     46 CA          5.0190   15.4032   13.7940 C.3       4 GLC5        0.0000 
     47 CA          4.3750   16.5410   12.3640 C.3      12 GLL5        0.0000 
     48 CA          1.6210   12.5085    9.5425 C.3       4 GLC5        0.0000 
     49 CA          2.8000   13.4280   10.3340 C.3      12 GLL5        0.0000 
     50 CA         -0.1010   12.1300    8.6220 C.3       8 GLP5        0.0000 
     51 CA          1.7030   13.7090   12.1922 C.3       4 GLC5        0.0000 
     52 CA          0.5320   13.2790   13.7510 C.3       8 GLP5        0.0000 
     53 CA          9.5918   18.0300   10.8480 C.3       4 GLC5        0.0000 
     54 CA         11.5000   17.3430   10.5510 C.3       8 GLP5        0.0000 
@<TRIPOS>BOND
@<TRIPOS>SUBSTRUCTURE
     1 ALC1       11 GROUP        1 X    ALC  0     ROOT ALC X 1
     2 SEC2       30 GROUP        1 X    SEC  0     **** SEC X 2
     3 LYC4       33 GROUP        1 X    LYC  0     **** LYC X 4
     4 GLC5        1 GROUP        1 X    GLC  0     **** GLC X 6
     5 ALP1       13 GROUP        1 Y    ALP  0     ROOT ALP Y 8
     6 SEP2       32 GROUP        1 Y    SEP  0     **** SEP Y 9
     7 LYP4       35 GROUP        1 Y    LYP  0     **** LYP Y 11
     8 GLP5        3 GROUP        1 Y    GLP  0     **** GLP Y 13
     9 ALL1       12 GROUP        1 Z    ALL  0     ROOT ALL Z 15
    10 SEL2       31 GROUP        1 Z    SEL  0     **** SEL Z 16
    11 LYL4       34 GROUP        1 Z    LYL  0     **** LYL Z 18
    12 GLL5        2 GROUP        1 Z    GLL  0     **** GLL Z 20
@<TRIPOS>SET

