#    Name: 3h06_VBP_2_ligand
#    Modification time : Tue Mar 25 13:19:39 2014

@<TRIPOS>MOLECULE
3h06_VBP_2_ligand
   38    39     1     0     0
SMALL
NO_CHARGES


@<TRIPOS>ATOM
      1 C10         4.3750   16.5410   12.3640 C.3       1 VBP808      0.0000 
      2 C11         4.1950   15.1640   11.7860 C.ar      1 VBP808      0.0000 
      3 C12         5.2680   14.1010   12.0420 C.ar      1 VBP808      0.0000 
      4 C13         5.1190   12.6880   11.4490 C.ar      1 VBP808      0.0000 
      5 C14         3.8860   12.3460   10.5920 C.ar      1 VBP808      0.0000 
      6 C15         2.8000   13.4280   10.3340 C.ar      1 VBP808      0.0000 
      7 C16         2.9480   14.8500   10.9330 C.ar      1 VBP808      0.0000 
      8 C17         3.7420   10.9500   10.0060 C.2       1 VBP808      0.0000 
      9 C20         5.3620   17.6920   10.2080 C.2       1 VBP808      0.0000 
     10 C22         7.0960   18.6260    5.8580 C.2       1 VBP808      0.0000 
     11 N01         8.3810   17.3970    7.6270 N.4       1 VBP808      0.0000 
     12 C02         7.0750   17.8930    7.1970 C.3       1 VBP808      0.0000 
     13 C03         6.5170   18.8760    8.2180 C.3       1 VBP808      0.0000 
     14 N04         6.4970   18.4880    9.5900 N.am      1 VBP808      0.0000 
     15 C05         7.6480   18.8980   10.4180 C.2       1 VBP808      0.0000 
     16 C06         7.7190   18.5360   11.8720 C.2       1 VBP808      0.0000 
     17 C07         6.5920   17.7300   12.5080 C.2       1 VBP808      0.0000 
     18 O08         6.6670   17.3860   13.8660 O.2       1 VBP808      0.0000 
     19 N09         5.4150   17.3100   11.6840 N.am      1 VBP808      0.0000 
     20 O18         4.5940   10.5980    9.2430 O.co2     1 VBP808      0.0000 
     21 O19         2.5620   10.2840   10.4970 O.co2     1 VBP808      0.0000 
     22 O21         4.2770   17.3080    9.4480 O.2       1 VBP808      0.0000 
     23 O23         6.3660   18.2040    5.0680 O.co2     1 VBP808      0.0000 
     24 O24         8.3860   18.7080    5.3110 O.co2     1 VBP808      0.0000 
     25 H           4.6142   16.4421   13.4408 H         1 VBP808      0.0000 
     26 H           3.4063   17.0749   12.3092 H         1 VBP808      0.0000 
     27 H           6.0560   14.3187   12.5866 H         1 VBP808      0.0000 
     28 H           5.8031   12.0116   11.6154 H         1 VBP808      0.0000 
     29 H           2.0178   13.2079    9.7891 H         1 VBP808      0.0000 
     30 H           2.2738   15.5216   10.7742 H         1 VBP808      0.0000 
     31 H           6.3572   17.0790    7.1174 H         1 VBP808      0.0000 
     32 H           5.4746   19.1544    7.8683 H         1 VBP808      0.0000 
     33 H           7.0917   19.8450    8.0871 H         1 VBP808      0.0000 
     34 H           8.3979   19.4259   10.0127 H         1 VBP808      0.0000 
     35 H           8.4878   18.8135   12.4239 H         1 VBP808      0.0000 
     36 H           8.9664   17.1693    6.8489 H         1 VBP808      0.0000 
     37 H           8.8728   18.0731    8.1757 H         1 VBP808      0.0000 
     38 H           8.2993   16.5706    8.1841 H         1 VBP808      0.0000 
@<TRIPOS>BOND
     1    2    1 1    
     2   19    1 1    
     3   25    1 1    
     4   26    1 1    
     5    3    2 ar   
     6    7    2 ar   
     7    4    3 ar   
     8   27    3 1    
     9    5    4 ar   
    10   28    4 1    
    11    6    5 ar   
    12    8    5 1    
    13    7    6 ar   
    14   29    6 1    
    15   30    7 1    
    16   20    8 ar   
    17   21    8 ar   
    18   14    9 am   
    19   19    9 am   
    20   22    9 2    
    21   12   10 1    
    22   23   10 ar   
    23   24   10 ar   
    24   12   11 1    
    25   36   11 1    
    26   37   11 1    
    27   38   11 1    
    28   13   12 1    
    29   31   12 1    
    30   14   13 1    
    31   32   13 1    
    32   33   13 1    
    33   15   14 1    
    34   16   15 2    
    35   34   15 1    
    36   17   16 1    
    37   35   16 1    
    38   18   17 2    
    39   19   17 am   
@<TRIPOS>SUBSTRUCTURE
     1 VBP808      1 GROUP   
@<TRIPOS>SET

