#    Name: 3ujb_SAH_4_INTS_M
#    Modification time : Mon Mar 24 22:36:53 2014

@<TRIPOS>MOLECULE
3ujb_SAH_4_INTS_M
   79     0     9     0     0
SMALL
NO_CHARGES


@<TRIPOS>ATOM
      1 O          33.5840   21.8295   68.1755 O.2       1 ALC1        0.0000 
      2 O          34.0510   21.5720   66.8980 O.2       7 ALL1        0.0000 
      3 O          33.1170   22.0870   69.4530 O.2       4 ALP1        0.0000 
      4 O          35.5240   21.8840   66.7995 O.2       1 ALC1        0.0000 
      5 O          36.9970   22.1960   66.7010 O.2       4 ALP1        0.0000 
      6 CA         35.2750   24.2825   64.6680 C.3       3 GLC5        0.0000 
      7 CA         34.4040   24.6210   66.4090 C.3       9 GLL5        0.0000 
      8 CA         36.1460   23.9440   62.9270 C.3       6 GLP5        0.0000 
      9 CA         32.9080   26.3155   65.8525 C.3       3 GLC5        0.0000 
     10 CA         34.4470   26.3360   67.0150 C.3       9 GLL5        0.0000 
     11 CA         31.3690   26.2950   64.6900 C.3       6 GLP5        0.0000 
     12 N          35.0975   22.1925   63.4410 N.am      2 SEC2        0.0000 
     13 N          34.2470   21.8030   64.2630 N.am      8 SEL2        0.0000 
     14 N          35.9480   22.5820   62.6190 N.am      5 SEP2        0.0000 
     15 N          31.9655   23.8630   63.0570 N.am      2 SEC2        0.0000 
     16 N          32.4260   22.8360   64.0000 N.am      8 SEL2        0.0000 
     17 N          31.5050   24.8900   62.1140 N.am      5 SEP2        0.0000 
     18 CA         36.2670   27.3890   69.8590 C.3       3 GLC5        0.0000 
     19 CA         34.9300   26.2680   68.7580 C.3       9 GLL5        0.0000 
     20 CA         37.6040   28.5100   70.9600 C.3       6 GLP5        0.0000 
     21 CA         33.7120   24.0670   70.7635 C.3       3 GLC5        0.0000 
     22 CA         33.9360   25.8960   69.7150 C.3       9 GLL5        0.0000 
     23 CA         33.4880   22.2380   71.8120 C.3       6 GLP5        0.0000 
     24 CA         31.0290   27.8970   69.6170 C.3       3 GLC5        0.0000 
     25 CA         32.9750   27.0060   69.9330 C.3       9 GLL5        0.0000 
     26 CA         29.0830   28.7880   69.3010 C.3       6 GLP5        0.0000 
     27 O          30.8210   26.3975   70.9950 O.2       1 ALC1        0.0000 
     28 O          31.6600   26.5780   69.5820 O.2       7 ALL1        0.0000 
     29 O          29.9820   26.2170   72.4080 O.2       4 ALP1        0.0000 
     30 O          31.2100   25.5900   70.3530 O.2       1 ALC1        0.0000 
     31 O          30.7600   24.6020   71.1240 O.2       4 ALP1        0.0000 
     32 O          30.9610   26.9945   72.1940 O.2       1 ALC1        0.0000 
     33 O          31.9400   27.7720   71.9800 O.2       7 ALL1        0.0000 
     34 O          31.3500   26.1870   71.5520 O.2       1 ALC1        0.0000 
     35 CA         33.6110   24.1935   71.8970 C.3       3 GLC5        0.0000 
     36 CA         33.7340   26.1490   71.9820 C.3       9 GLL5        0.0000 
     37 CA         35.3950   24.8025   71.3290 C.3       3 GLC5        0.0000 
     38 CA         37.0560   23.4560   70.6760 C.3       6 GLP5        0.0000 
     39 CA         37.2440   26.0785   75.7740 C.3       3 GLC5        0.0000 
     40 CA         35.0350   26.2450   75.3980 C.3       9 GLL5        0.0000 
     41 CA         39.4530   25.9120   76.1500 C.3       6 GLP5        0.0000 
     42 CA         33.2930   26.5585   76.7565 C.3       3 GLC5        0.0000 
     43 CA         34.9890   25.6940   76.6890 C.3       9 GLL5        0.0000 
     44 CA         31.5970   27.4230   76.8240 C.3       6 GLP5        0.0000 
     45 CA         33.6670   25.3325   78.4670 C.3       3 GLC5        0.0000 
     46 CA         32.3450   24.9710   80.2450 C.3       6 GLP5        0.0000 
     47 CA         35.6540   23.9540   77.4200 C.3       3 GLC5        0.0000 
     48 CA         36.3190   22.2140   78.1510 C.3       6 GLP5        0.0000 
     49 O          35.4145   25.8715   79.0790 O.2       1 ALC1        0.0000 
     50 O          35.7570   26.1950   77.7130 O.2       7 ALL1        0.0000 
     51 O          35.0720   25.5480   80.4450 O.2       4 ALP1        0.0000 
     52 N          33.9430   23.8830   78.2150 N.am      2 SEC2        0.0000 
     53 N          34.1570   24.6620   76.9130 N.am      8 SEL2        0.0000 
     54 N          33.7290   23.1040   79.5170 N.am      5 SEP2        0.0000 
     55 CA         32.0565   22.5485   76.6730 C.3       3 GLC5        0.0000 
     56 CA         33.3820   24.1610   75.9440 C.3       9 GLL5        0.0000 
     57 CA         30.7310   20.9360   77.4020 C.3       6 GLP5        0.0000 
     58 CA         31.6565   23.9315   75.0925 C.3       3 GLC5        0.0000 
     59 CA         29.9310   23.7020   74.2410 C.3       6 GLP5        0.0000 
     60 CA         32.4895   25.7920   76.3840 C.3       3 GLC5        0.0000 
     61 CA         32.8635   24.5660   78.0945 C.3       3 GLC5        0.0000 
     62 CA         34.2340   22.7460   77.1780 C.3       3 GLC5        0.0000 
     63 CA         35.0860   21.3310   78.4120 C.3       6 GLP5        0.0000 
     64 N          31.9165   25.2160   75.0450 N.am      2 SEC2        0.0000 
     65 N          33.3880   24.6690   74.6900 N.am      8 SEL2        0.0000 
     66 N          30.4450   25.7630   75.4000 N.am      5 SEP2        0.0000 
     67 CA         33.8445   23.9720   73.1080 C.3       3 GLC5        0.0000 
     68 CA         34.2010   25.7060   74.4040 C.3       9 GLL5        0.0000 
     69 CA         31.3012   23.4718   67.2362 C.3       3 GLC5        0.0000 
     70 CA         33.1090   23.8700   66.7280 C.3       9 GLL5        0.0000 
     71 CA         29.5290   23.8130   68.0120 C.3       6 GLP5        0.0000 
     72 CA         32.5628   25.2703   65.6292 C.3       3 GLC5        0.0000 
     73 CA         34.4908   28.2425   67.9492 C.3       3 GLC5        0.0000 
     74 CA         34.2930   30.1830   68.0120 C.3       6 GLP5        0.0000 
     75 CA         35.7445   24.7690   69.9563 C.3       3 GLC5        0.0000 
     76 CA         33.5667   28.9148   69.9672 C.3       3 GLC5        0.0000 
     77 CA         34.0760   30.6400   69.2910 C.3       6 GLP5        0.0000 
     78 CA         33.3770   27.1393   75.3055 C.3       3 GLC5        0.0000 
     79 CA         32.1360   28.3030   75.7100 C.3       6 GLP5        0.0000 
@<TRIPOS>BOND
@<TRIPOS>SUBSTRUCTURE
     1 ALC1        1 GROUP        1 X    ALC  0     ROOT ALC X 1
     2 SEC2       12 GROUP        1 X    SEC  0     **** SEC X 2
     3 GLC5        6 GROUP        1 X    GLC  0     **** GLC X 6
     4 ALP1        3 GROUP        1 Y    ALP  0     ROOT ALP Y 8
     5 SEP2       14 GROUP        1 Y    SEP  0     **** SEP Y 9
     6 GLP5        8 GROUP        1 Y    GLP  0     **** GLP Y 13
     7 ALL1        2 GROUP        1 Z    ALL  0     ROOT ALL Z 15
     8 SEL2       13 GROUP        1 Z    SEL  0     **** SEL Z 16
     9 GLL5        7 GROUP        1 Z    GLL  0     **** GLL Z 20
@<TRIPOS>SET

