#    Name: 3ujb_SAH_4_ligand
#    Modification time : Mon Mar 24 22:36:53 2014

@<TRIPOS>MOLECULE
3ujb_SAH_4_ligand
   46    48     1     0     0
SMALL
NO_CHARGES


@<TRIPOS>ATOM
      1 N          34.0510   21.5720   66.8980 N.4       1 SAH502      0.0000 
      2 CA         33.0380   22.3910   66.1930 C.3       1 SAH502      0.0000 
      3 CB         33.1090   23.8700   66.7280 C.3       1 SAH502      0.0000 
      4 CG         34.4040   24.6210   66.4090 C.3       1 SAH502      0.0000 
      5 SD         34.4470   26.3360   67.0150 S.3       1 SAH502      0.0000 
      6 C          33.2190   22.2830   64.7310 C.2       1 SAH502      0.0000 
      7 O          34.2470   21.8030   64.2630 O.co2     1 SAH502      0.0000 
      8 OXT        32.4260   22.8360   64.0000 O.co2     1 SAH502      0.0000 
      9 C5'        34.9300   26.2680   68.7580 C.3       1 SAH502      0.0000 
     10 C4'        33.9360   25.8960   69.7150 C.3       1 SAH502      0.0000 
     11 O4'        34.6120   25.7200   70.9870 O.3       1 SAH502      0.0000 
     12 C3'        32.9750   27.0060   69.9330 C.3       1 SAH502      0.0000 
     13 O3'        31.6600   26.5780   69.5820 O.3       1 SAH502      0.0000 
     14 C2'        33.1400   27.3730   71.3540 C.3       1 SAH502      0.0000 
     15 O2'        31.9400   27.7720   71.9800 O.3       1 SAH502      0.0000 
     16 C1'        33.7340   26.1490   71.9820 C.3       1 SAH502      0.0000 
     17 N9         34.4280   26.4280   73.2990 N.pl3     1 SAH502      0.0000 
     18 C8         35.3590   27.3680   73.5590 C.2       1 SAH502      0.0000 
     19 N7         35.7300   27.2610   74.8430 N.2       1 SAH502      0.0000 
     20 C5         35.0350   26.2450   75.3980 C.ar      1 SAH502      0.0000 
     21 C6         34.9890   25.6940   76.6890 C.ar      1 SAH502      0.0000 
     22 N6         35.7570   26.1950   77.7130 N.pl3     1 SAH502      0.0000 
     23 N1         34.1570   24.6620   76.9130 N.ar      1 SAH502      0.0000 
     24 C2         33.3820   24.1610   75.9440 C.ar      1 SAH502      0.0000 
     25 N3         33.3880   24.6690   74.6900 N.ar      1 SAH502      0.0000 
     26 C4         34.2010   25.7060   74.4040 C.ar      1 SAH502      0.0000 
     27 H          32.0436   22.0138   66.4675 H         1 SAH502      0.0000 
     28 H          32.9622   23.8392   67.8212 H         1 SAH502      0.0000 
     29 H          32.2513   24.4214   66.3061 H         1 SAH502      0.0000 
     30 H          34.5753   24.7494   65.3507 H         1 SAH502      0.0000 
     31 H          35.2755   24.1915   66.8799 H         1 SAH502      0.0000 
     32 H          35.3534   27.2877   68.8909 H         1 SAH502      0.0000 
     33 H          35.8059   25.5853   68.6991 H         1 SAH502      0.0000 
     34 H          33.4225   25.0166   69.4473 H         1 SAH502      0.0000 
     35 H          33.3024   27.8394   69.3193 H         1 SAH502      0.0000 
     36 H          33.9068   28.1533   71.4053 H         1 SAH502      0.0000 
     37 H          32.9393   25.4359   72.1258 H         1 SAH502      0.0000 
     38 H          35.7006   28.0122   72.9206 H         1 SAH502      0.0000 
     39 H          35.6243   25.7728   78.6097 H         1 SAH502      0.0000 
     40 H          36.3814   26.9380   77.4719 H         1 SAH502      0.0000 
     41 H          32.7454   23.3460   76.1576 H         1 SAH502      0.0000 
     42 H          34.9776   21.9165   66.7471 H         1 SAH502      0.0000 
     43 H          33.8989   21.5630   67.8863 H         1 SAH502      0.0000 
     44 H          34.0385   20.6204   66.5908 H         1 SAH502      0.0000 
     45 H          31.4372   25.8598   70.2412 H         1 SAH502      0.0000 
     46 H          31.3615   26.9564   71.9739 H         1 SAH502      0.0000 
@<TRIPOS>BOND
     1    2    1 1    
     2   42    1 1    
     3   43    1 1    
     4   44    1 1    
     5    3    2 1    
     6    6    2 1    
     7   27    2 1    
     8    4    3 1    
     9   28    3 1    
    10   29    3 1    
    11    5    4 1    
    12   30    4 1    
    13   31    4 1    
    14    9    5 1    
    15    7    6 ar   
    16    8    6 ar   
    17   10    9 1    
    18   32    9 1    
    19   33    9 1    
    20   11   10 1    
    21   12   10 1    
    22   34   10 1    
    23   16   11 1    
    24   13   12 1    
    25   14   12 1    
    26   35   12 1    
    27   45   13 1    
    28   15   14 1    
    29   16   14 1    
    30   36   14 1    
    31   46   15 1    
    32   17   16 1    
    33   37   16 1    
    34   18   17 1    
    35   26   17 1    
    36   19   18 2    
    37   38   18 1    
    38   20   19 1    
    39   21   20 ar   
    40   26   20 ar   
    41   22   21 1    
    42   23   21 ar   
    43   39   22 1    
    44   40   22 1    
    45   24   23 ar   
    46   25   24 ar   
    47   41   24 1    
    48   26   25 ar   
@<TRIPOS>SUBSTRUCTURE
     1 SAH502      1 GROUP   
@<TRIPOS>SET

