#    Name: 3ajh_BL3_2_INTS_M
#    Modification time : Mon Apr  7 19:05:00 2014

@<TRIPOS>MOLECULE
3ajh_BL3_2_INTS_M
   73     0     9     0     0
SMALL
NO_CHARGES


@<TRIPOS>ATOM
      1 N         -38.7020   12.4060  -43.4910 N.am      1 SEC2        0.0000 
      2 N         -39.2520   12.8160  -42.4130 N.am      7 SEL2        0.0000 
      3 N         -38.1520   11.9960  -44.5690 N.am      4 SEP2        0.0000 
      4 NZ        -38.2140   24.1975  -46.4870 N.4       2 LYC4        0.0000 
      5 NZ        -37.5060   22.7990  -47.6810 N.4       8 LYL4        0.0000 
      6 NZ        -38.9220   25.5960  -45.2930 N.4       5 LYP4        0.0000 
      7 NZ        -37.3865   24.6130  -45.8675 N.4       2 LYC4        0.0000 
      8 NZ        -35.8510   23.6300  -46.4420 N.4       8 LYL4        0.0000 
      9 CA        -36.9350   15.8930  -48.0305 C.3       3 GLC5        0.0000 
     10 CA        -35.8040   17.0610  -46.7690 C.3       9 GLL5        0.0000 
     11 CA        -38.0660   14.7250  -49.2920 C.3       6 GLP5        0.0000 
     12 CA        -40.6120   18.4465  -39.1700 C.3       3 GLC5        0.0000 
     13 CA        -41.0940   16.6710  -40.3760 C.3       9 GLL5        0.0000 
     14 CA        -40.1300   20.2220  -37.9640 C.3       6 GLP5        0.0000 
     15 CA        -36.6660   22.4095  -43.9835 C.3       3 GLC5        0.0000 
     16 CA        -37.0690   21.7890  -45.5750 C.3       9 GLL5        0.0000 
     17 CA        -36.2630   23.0300  -42.3920 C.3       6 GLP5        0.0000 
     18 CA        -30.6200    9.3015  -46.2595 C.3       3 GLC5        0.0000 
     19 CA        -32.7090    9.9740  -46.0160 C.3       9 GLL5        0.0000 
     20 CA        -28.5310    8.6290  -46.5030 C.3       6 GLP5        0.0000 
     21 CA        -33.2435    8.0115  -46.0750 C.3       3 GLC5        0.0000 
     22 CA        -33.7780    6.0490  -46.1340 C.3       6 GLP5        0.0000 
     23 CA        -32.2745   17.4575  -47.6390 C.3       3 GLC5        0.0000 
     24 CA        -33.4630   19.0860  -48.4040 C.3       9 GLL5        0.0000 
     25 CA        -31.0860   15.8290  -46.8740 C.3       6 GLP5        0.0000 
     26 CA        -33.2030   19.4190  -46.4355 C.3       3 GLC5        0.0000 
     27 CA        -32.9430   19.7520  -44.4670 C.3       6 GLP5        0.0000 
     28 CA        -37.1020   17.6095  -48.4165 C.3       3 GLC5        0.0000 
     29 CA        -36.4730   18.2270  -46.3870 C.3       9 GLL5        0.0000 
     30 CA        -37.7310   16.9920  -50.4460 C.3       6 GLP5        0.0000 
     31 CA        -40.8820   16.4095  -43.8945 C.3       3 GLC5        0.0000 
     32 CA        -39.6110   17.4730  -42.6960 C.3       9 GLL5        0.0000 
     33 CA        -42.1530   15.3460  -45.0930 C.3       6 GLP5        0.0000 
     34 CA        -32.7160   14.8320  -46.7830 C.3       3 GLC5        0.0000 
     35 CA        -34.3460   13.8350  -46.6920 C.3       9 GLL5        0.0000 
     36 CA        -40.3705   21.9290  -42.5865 C.3       3 GLC5        0.0000 
     37 CA        -40.0000   20.2530  -43.6320 C.3       9 GLL5        0.0000 
     38 CA        -40.7410   23.6050  -41.5410 C.3       6 GLP5        0.0000 
     39 CA        -41.8060   11.9125  -39.7400 C.3       3 GLC5        0.0000 
     40 CA        -41.1210   13.4740  -40.1550 C.3       9 GLL5        0.0000 
     41 CA        -42.4910   10.3510  -39.3250 C.3       6 GLP5        0.0000 
     42 CA        -32.3325   15.5795  -48.0120 C.3       3 GLC5        0.0000 
     43 CA        -33.5790   15.3300  -49.1500 C.3       9 GLL5        0.0000 
     44 CA        -38.9933   16.6355  -39.9380 C.3       3 GLC5        0.0000 
     45 CA        -39.5570   16.1550  -42.2270 C.3       9 GLL5        0.0000 
     46 CA        -38.0080   17.3010  -38.1640 C.3       6 GLP5        0.0000 
     47 CA        -36.3667   15.0920  -48.3747 C.3       3 GLC5        0.0000 
     48 CA        -34.9150   15.0720  -46.9350 C.3       9 GLL5        0.0000 
     49 CA        -32.9682   13.0567  -43.7178 C.3       3 GLC5        0.0000 
     50 CA        -34.0220   11.9090  -45.3030 C.3       9 GLL5        0.0000 
     51 CA        -31.7560   14.4020  -42.7810 C.3       6 GLP5        0.0000 
     52 CA        -35.8332   10.2740  -44.0787 C.3       3 GLC5        0.0000 
     53 CA        -34.3390   11.5140  -44.0060 C.3       9 GLL5        0.0000 
     54 CA        -37.5410    9.6720  -44.5150 C.3       6 GLP5        0.0000 
     55 CA        -36.5368   18.9325  -43.8709 C.3       3 GLC5        0.0000 
     56 CA        -37.3620   18.2890  -45.3270 C.3       9 GLL5        0.0000 
     57 CA        -34.7460   18.7870  -43.0520 C.3       6 GLP5        0.0000 
     58 CA        -41.1624   15.2640  -43.2545 C.3       3 GLC5        0.0000 
     59 CA        -40.4000   15.7850  -41.1970 C.3       9 GLL5        0.0000 
     60 CA        -36.0455   11.7045  -46.0520 C.3       3 GLC5        0.0000 
     61 CA        -37.7760   10.8810  -46.7010 C.3       6 GLP5        0.0000 
     62 CA        -32.9496   16.0590  -47.2684 C.3       3 GLC5        0.0000 
     63 CA        -36.2855   17.3538  -49.3900 C.3       3 GLC5        0.0000 
     64 CA        -34.9590   17.1190  -47.8680 C.3       9 GLL5        0.0000 
     65 CA        -33.6441   14.6861  -44.6311 C.3       3 GLC5        0.0000 
     66 CA        -32.6690   15.5720  -43.1040 C.3       6 GLP5        0.0000 
     67 CA        -35.4423   18.2155  -44.8150 C.3       3 GLC5        0.0000 
     68 CA        -39.7605   16.8810  -39.0132 C.3       3 GLC5        0.0000 
     69 CA        -33.4357   10.4132  -47.9755 C.3       3 GLC5        0.0000 
     70 CA        -33.2860   11.2150  -46.2600 C.3       9 GLL5        0.0000 
     71 CA        -33.8740   10.2320  -49.8130 C.3       6 GLP5        0.0000 
     72 CA        -31.5158   11.5760  -45.7494 C.3       3 GLC5        0.0000 
     73 CA        -29.8500   12.3840  -45.6000 C.3       6 GLP5        0.0000 
@<TRIPOS>BOND
@<TRIPOS>SUBSTRUCTURE
     1 SEC2        1 GROUP        1 X    SEC  0     ROOT SEC X 2
     2 LYC4        4 GROUP        1 X    LYC  0     **** LYC X 4
     3 GLC5        9 GROUP        1 X    GLC  0     **** GLC X 6
     4 SEP2        3 GROUP        1 Y    SEP  0     ROOT SEP Y 9
     5 LYP4        6 GROUP        1 Y    LYP  0     **** LYP Y 11
     6 GLP5       11 GROUP        1 Y    GLP  0     **** GLP Y 13
     7 SEL2        2 GROUP        1 Z    SEL  0     ROOT SEL Z 16
     8 LYL4        5 GROUP        1 Z    LYL  0     **** LYL Z 18
     9 GLL5       10 GROUP        1 Z    GLL  0     **** GLL Z 20
@<TRIPOS>SET

