#    Name: 3ajh_BL3_2_ligand
#    Modification time : Mon Apr  7 19:05:00 2014

@<TRIPOS>MOLECULE
3ajh_BL3_2_ligand
   71    74     1     0     0
SMALL
NO_CHARGES


@<TRIPOS>ATOM
      1 NA        -37.8280   17.4070  -44.4480 N.2       1 BL3250      0.0000 
      2 NB        -39.0130   15.0590  -42.7470 N.am      1 BL3250      0.0000 
      3 OB        -39.2520   12.8160  -42.4130 O.2       1 BL3250      0.0000 
      4 NC        -35.2680   13.4930  -44.4040 N.am      1 BL3250      0.0000 
      5 OC        -35.5840   12.5730  -42.3470 O.2       1 BL3250      0.0000 
      6 ND        -35.7490   15.8480  -46.2380 N.pl3     1 BL3250      0.0000 
      7 C1A       -37.3620   18.2890  -45.3270 C.2       1 BL3250      0.0000 
      8 O1A       -37.5060   22.7990  -47.6810 O.co2     1 BL3250      0.0000 
      9 C1B       -39.5570   16.1550  -42.2270 C.2       1 BL3250      0.0000 
     10 C1C       -35.1190   12.5390  -43.4910 C.2       1 BL3250      0.0000 
     11 C1D       -34.9150   15.0720  -46.9350 C.2       1 BL3250      0.0000 
     12 O1D       -32.7160   20.0840  -50.4260 O.co2     1 BL3250      0.0000 
     13 C2A       -38.0540   19.4930  -45.1660 C.2       1 BL3250      0.0000 
     14 O2A       -35.8510   23.6300  -46.4420 O.co2     1 BL3250      0.0000 
     15 C2B       -40.4000   15.7850  -41.1970 C.2       1 BL3250      0.0000 
     16 C2C       -34.3390   11.5140  -44.0060 C.2       1 BL3250      0.0000 
     17 C2D       -34.4200   15.8460  -47.9800 C.2       1 BL3250      0.0000 
     18 O2D       -33.6410   21.4050  -48.8870 O.co2     1 BL3250      0.0000 
     19 C3A       -38.9470   19.2650  -44.1330 C.2       1 BL3250      0.0000 
     20 C3B       -40.3650   14.3940  -41.1200 C.2       1 BL3250      0.0000 
     21 C3C       -34.0220   11.9090  -45.3030 C.2       1 BL3250      0.0000 
     22 C3D       -34.9590   17.1190  -47.8680 C.2       1 BL3250      0.0000 
     23 C4A       -38.8050   17.9410  -43.7100 C.2       1 BL3250      0.0000 
     24 C4B       -39.4880   13.9890  -42.1110 C.2       1 BL3250      0.0000 
     25 C4C       -34.6080   13.1470  -45.5030 C.2       1 BL3250      0.0000 
     26 C4D       -35.8040   17.0610  -46.7690 C.2       1 BL3250      0.0000 
     27 CAA       -37.9780   20.6840  -46.1180 C.3       1 BL3250      0.0000 
     28 CAB       -41.0940   16.6710  -40.3760 C.2       1 BL3250      0.0000 
     29 CAC       -33.2860   11.2150  -46.2600 C.2       1 BL3250      0.0000 
     30 CAD       -34.7210   18.3120  -48.8000 C.3       1 BL3250      0.0000 
     31 CBA       -37.0690   21.7890  -45.5750 C.3       1 BL3250      0.0000 
     32 CBB       -41.9320   16.2510  -39.3490 C.2       1 BL3250      0.0000 
     33 CBC       -32.7090    9.9740  -46.0160 C.2       1 BL3250      0.0000 
     34 CBD       -33.4630   19.0860  -48.4040 C.3       1 BL3250      0.0000 
     35 CGA       -36.7950   22.8370  -46.6540 C.2       1 BL3250      0.0000 
     36 CGD       -33.2530   20.2960  -49.3180 C.2       1 BL3250      0.0000 
     37 CHA       -36.4730   18.2270  -46.3870 C.2       1 BL3250      0.0000 
     38 CHB       -39.6110   17.4730  -42.6960 C.2       1 BL3250      0.0000 
     39 CHD       -34.3460   13.8350  -46.6920 C.2       1 BL3250      0.0000 
     40 CMA       -40.0000   20.2530  -43.6320 C.3       1 BL3250      0.0000 
     41 CMB       -41.1210   13.4740  -40.1550 C.3       1 BL3250      0.0000 
     42 CMC       -33.9120   10.2380  -43.2790 C.3       1 BL3250      0.0000 
     43 CMD       -33.5790   15.3300  -49.1500 C.3       1 BL3250      0.0000 
     44 H         -38.3662   15.0396  -43.4804 H         1 BL3250      0.0000 
     45 H         -35.7810   14.3167  -44.2851 H         1 BL3250      0.0000 
     46 H         -36.2503   15.5545  -45.4417 H         1 BL3250      0.0000 
     47 H         -38.9817   21.0890  -46.2687 H         1 BL3250      0.0000 
     48 H         -37.5940   20.3483  -47.0845 H         1 BL3250      0.0000 
     49 H         -40.9786   17.7000  -40.5407 H         1 BL3250      0.0000 
     50 H         -33.1620   11.6487  -47.2067 H         1 BL3250      0.0000 
     51 H         -35.5826   18.9786  -48.7540 H         1 BL3250      0.0000 
     52 H         -34.6133   17.9502  -49.8229 H         1 BL3250      0.0000 
     53 H         -36.1277   21.3519  -45.2512 H         1 BL3250      0.0000 
     54 H         -37.5522   22.2655  -44.7257 H         1 BL3250      0.0000 
     55 H         -32.5984   18.4279  -48.4769 H         1 BL3250      0.0000 
     56 H         -33.5605   19.4276  -47.3746 H         1 BL3250      0.0000 
     57 H         -36.2872   19.1049  -46.9394 H         1 BL3250      0.0000 
     58 H         -40.2999   18.1266  -42.2486 H         1 BL3250      0.0000 
     59 H         -33.7182   13.4079  -47.3939 H         1 BL3250      0.0000 
     60 H         -39.5862   21.1024  -43.3044 H         1 BL3250      0.0000 
     61 H         -40.6484   20.5014  -44.3516 H         1 BL3250      0.0000 
     62 H         -40.5330   19.8755  -42.8748 H         1 BL3250      0.0000 
     63 H         -40.9099   12.5103  -40.3185 H         1 BL3250      0.0000 
     64 H         -40.8909   13.6667  -39.2011 H         1 BL3250      0.0000 
     65 H         -42.1118   13.5762  -40.2439 H         1 BL3250      0.0000 
     66 H         -33.3499    9.6497  -43.8604 H         1 BL3250      0.0000 
     67 H         -33.3753   10.4393  -42.4596 H         1 BL3250      0.0000 
     68 H         -34.6997    9.6954  -42.9874 H         1 BL3250      0.0000 
     69 H         -33.3362   16.0635  -49.7848 H         1 BL3250      0.0000 
     70 H         -32.7233   14.9167  -48.8385 H         1 BL3250      0.0000 
     71 H         -34.0653   14.6341  -49.6785 H         1 BL3250      0.0000 
@<TRIPOS>BOND
     1    7    1 1    
     2   23    1 2    
     3    9    2 1    
     4   24    2 am   
     5   44    2 1    
     6   24    3 2    
     7   10    4 am   
     8   25    4 1    
     9   45    4 1    
    10   10    5 2    
    11   11    6 1    
    12   26    6 1    
    13   46    6 1    
    14   13    7 1    
    15   37    7 2    
    16   35    8 ar   
    17   15    9 1    
    18   38    9 2    
    19   16   10 1    
    20   17   11 2    
    21   39   11 1    
    22   36   12 ar   
    23   19   13 2    
    24   27   13 1    
    25   35   14 ar   
    26   20   15 2    
    27   28   15 1    
    28   21   16 2    
    29   42   16 1    
    30   22   17 1    
    31   43   17 1    
    32   36   18 ar   
    33   23   19 1    
    34   40   19 1    
    35   24   20 1    
    36   41   20 1    
    37   25   21 1    
    38   29   21 1    
    39   26   22 2    
    40   30   22 1    
    41   38   23 1    
    42   39   25 2    
    43   37   26 1    
    44   31   27 1    
    45   47   27 1    
    46   48   27 1    
    47   32   28 2    
    48   49   28 1    
    49   33   29 2    
    50   50   29 1    
    51   34   30 1    
    52   51   30 1    
    53   52   30 1    
    54   35   31 1    
    55   53   31 1    
    56   54   31 1    
    57   36   34 1    
    58   55   34 1    
    59   56   34 1    
    60   57   37 1    
    61   58   38 1    
    62   59   39 1    
    63   60   40 1    
    64   61   40 1    
    65   62   40 1    
    66   63   41 1    
    67   64   41 1    
    68   65   41 1    
    69   66   42 1    
    70   67   42 1    
    71   68   42 1    
    72   69   43 1    
    73   70   43 1    
    74   71   43 1    
@<TRIPOS>SUBSTRUCTURE
     1 BL3250      1 GROUP   
@<TRIPOS>SET

