#    Name: 4bc7_FAD_3_INTS_M
#    Modification time : Tue Mar 25 07:24:48 2014

@<TRIPOS>MOLECULE
4bc7_FAD_3_INTS_M
  122     0     9     0     0
SMALL
NO_CHARGES


@<TRIPOS>ATOM
      1 N          36.3155   80.8855  -10.2535 N.am      2 SEC2        0.0000 
      2 N          36.1030   81.8080  -11.2680 N.am      8 SEL2        0.0000 
      3 N          36.5280   79.9630   -9.2390 N.am      5 SEP2        0.0000 
      4 N          35.4375   80.9220  -12.1790 N.am      2 SEC2        0.0000 
      5 N          34.7720   80.0360  -13.0900 N.am      5 SEP2        0.0000 
      6 N          35.0375   83.9300  -14.3305 N.am      2 SEC2        0.0000 
      7 N          35.5200   83.4560  -13.0260 N.am      8 SEL2        0.0000 
      8 N          34.5550   84.4040  -15.6350 N.am      5 SEP2        0.0000 
      9 CA         36.5200   85.7180  -13.2315 C.3       3 GLC5        0.0000 
     10 CA         36.4970   85.6580  -11.0670 C.3       9 GLL5        0.0000 
     11 CA         36.5430   85.7780  -15.3960 C.3       6 GLP5        0.0000 
     12 CA         36.9355   87.2765   -8.4155 C.3       3 GLC5        0.0000 
     13 CA         37.6210   86.3890  -10.3210 C.3       9 GLL5        0.0000 
     14 CA         36.2500   88.1640   -6.5100 C.3       6 GLP5        0.0000 
     15 O          40.6390   83.4490   -9.1775 O.2       1 ALC1        0.0000 
     16 O          40.6150   84.7420   -9.1990 O.2       7 ALL1        0.0000 
     17 O          40.6630   82.1560   -9.1560 O.2       4 ALP1        0.0000 
     18 CA         37.3835   86.8660   -7.4320 C.3       3 GLC5        0.0000 
     19 CA         38.5170   85.5680   -8.3540 C.3       9 GLL5        0.0000 
     20 CA         40.0365   86.5885   -7.5185 C.3       3 GLC5        0.0000 
     21 CA         41.5560   87.6090   -6.6830 C.3       6 GLP5        0.0000 
     22 CA         36.6205   84.2890   -2.3695 C.3       3 GLC5        0.0000 
     23 CA         37.2260   83.4160   -4.2000 C.3       9 GLL5        0.0000 
     24 CA         36.0150   85.1620   -0.5390 C.3       6 GLP5        0.0000 
     25 O          36.4190   82.3750   -2.1375 O.2       1 ALC1        0.0000 
     26 O          36.3750   82.5540   -3.6980 O.2       7 ALL1        0.0000 
     27 O          36.4630   82.1960   -0.5770 O.2       4 ALP1        0.0000 
     28 N          38.1760   84.2640   -1.9620 N.am      2 SEC2        0.0000 
     29 N          38.0180   84.1910   -3.3750 N.am      8 SEL2        0.0000 
     30 N          38.3340   84.3370   -0.5490 N.am      5 SEP2        0.0000 
     31 CA         39.8520   83.7990   -4.9840 C.3       3 GLC5        0.0000 
     32 CA         38.7730   85.1920   -3.8880 C.3       9 GLL5        0.0000 
     33 CA         40.9310   82.4060   -6.0800 C.3       6 GLP5        0.0000 
     34 CA         39.7135   84.4190   -2.3815 C.3       3 GLC5        0.0000 
     35 CA         40.6540   83.6460   -0.8750 C.3       6 GLP5        0.0000 
     36 CA         37.3745   86.2415   -2.8940 C.3       3 GLC5        0.0000 
     37 CA         35.9760   87.2910   -1.9000 C.3       6 GLP5        0.0000 
     38 CA         37.1375   86.4035   -6.2875 C.3       3 GLC5        0.0000 
     39 CA         38.0250   84.6430   -6.0650 C.3       9 GLL5        0.0000 
     40 N          27.0165   91.1095  -11.2495 N.am      2 SEC2        0.0000 
     41 N          27.7340   90.5390  -12.2970 N.am      8 SEL2        0.0000 
     42 N          26.2990   91.6800  -10.2020 N.am      5 SEP2        0.0000 
     43 O          25.2050   90.1455  -12.7665 O.2       1 ALC1        0.0000 
     44 O          26.1090   89.6700  -13.6370 O.2       7 ALL1        0.0000 
     45 O          24.3010   90.6210  -11.8960 O.2       4 ALP1        0.0000 
     46 N          23.9580   87.4995  -15.0140 N.am      2 SEC2        0.0000 
     47 N          24.5160   88.7620  -14.9950 N.am      8 SEL2        0.0000 
     48 N          23.4000   86.2370  -15.0330 N.am      5 SEP2        0.0000 
     49 CA         27.7400   82.4895  -19.0060 C.3       3 GLC5        0.0000 
     50 CA         27.3210   84.1030  -19.9590 C.3       9 GLL5        0.0000 
     51 CA         28.1590   80.8760  -18.0530 C.3       6 GLP5        0.0000 
     52 CA         27.1755   83.1280  -21.4550 C.3       3 GLC5        0.0000 
     53 CA         27.0300   82.1530  -22.9510 C.3       6 GLP5        0.0000 
     54 CA         29.8250   82.6150  -18.9940 C.3       3 GLC5        0.0000 
     55 CA         30.2340   84.2950  -19.2440 C.3       9 GLL5        0.0000 
     56 CA         29.4160   80.9350  -18.7440 C.3       6 GLP5        0.0000 
     57 CA         31.8305   83.7035  -20.0625 C.3       3 GLC5        0.0000 
     58 CA         33.4270   83.1120  -20.8810 C.3       6 GLP5        0.0000 
     59 CA         30.8690   83.4250  -17.3445 C.3       3 GLC5        0.0000 
     60 CA         31.5040   82.5550  -15.4450 C.3       6 GLP5        0.0000 
     61 CA         30.5615   84.2480  -16.4435 C.3       3 GLC5        0.0000 
     62 CA         29.6190   85.9410  -17.4420 C.3       9 GLL5        0.0000 
     63 CA         31.5965   88.5775  -16.8060 C.3       3 GLC5        0.0000 
     64 CA         30.4920   87.6810  -15.1910 C.3       9 GLL5        0.0000 
     65 CA         32.7010   89.4740  -18.4210 C.3       6 GLP5        0.0000 
     66 CA         30.2040   89.5030  -16.1835 C.3       3 GLC5        0.0000 
     67 CA         29.9160   91.3250  -17.1760 C.3       6 GLP5        0.0000 
     68 CA         31.1730   84.5880  -14.7900 C.3       3 GLC5        0.0000 
     69 CA         30.8420   86.6210  -14.1350 C.3       9 GLL5        0.0000 
     70 N          28.6980   84.9330  -14.0155 N.am      2 SEC2        0.0000 
     71 N          29.9680   85.4990  -14.1970 N.am      8 SEL2        0.0000 
     72 N          27.4280   84.3670  -13.8340 N.am      5 SEP2        0.0000 
     73 O          30.6285   84.4315  -14.2320 O.2       1 ALC1        0.0000 
     74 O          29.9680   85.4990  -14.1970 O.2       7 ALL1        0.0000 
     75 O          31.2890   83.3640  -14.2670 O.2       4 ALP1        0.0000 
     76 O          32.1380   88.7150  -11.3655 O.2       1 ALC1        0.0000 
     77 O          32.0920   88.0470  -12.8210 O.2       7 ALL1        0.0000 
     78 O          32.1840   89.3830   -9.9100 O.2       4 ALP1        0.0000 
     79 CA         29.6680   86.0455  -10.0040 C.3       3 GLC5        0.0000 
     80 CA         30.9610   86.3580  -11.5170 C.3       9 GLL5        0.0000 
     81 CA         28.3750   85.7330   -8.4910 C.3       6 GLP5        0.0000 
     82 O          31.5375   88.2280  -10.0960 O.2       1 ALC1        0.0000 
     83 O          30.8910   87.0730  -10.2820 O.2       7 ALL1        0.0000 
     84 CA         32.6985   85.3175   -9.4710 C.3       3 GLC5        0.0000 
     85 CA         32.2740   85.6020  -11.3790 C.3       9 GLL5        0.0000 
     86 CA         33.1230   85.0330   -7.5630 C.3       6 GLP5        0.0000 
     87 CA         33.4000   87.2460  -10.8865 C.3       3 GLC5        0.0000 
     88 CA         34.5260   88.8900  -10.3940 C.3       6 GLP5        0.0000 
     89 N          33.0645   80.8795  -10.1265 N.am      2 SEC2        0.0000 
     90 N          32.5510   82.1360   -9.6940 N.am      8 SEL2        0.0000 
     91 N          33.5780   79.6230  -10.5590 N.am      5 SEP2        0.0000 
     92 N          31.2510   81.8695   -9.1435 N.am      2 SEC2        0.0000 
     93 N          29.9510   81.6030   -8.5930 N.am      5 SEP2        0.0000 
     94 N          32.4195   81.7760   -8.2450 N.am      2 SEC2        0.0000 
     95 N          32.2880   81.4160   -6.7960 N.am      5 SEP2        0.0000 
     96 N          33.2310   82.1575  -13.4935 N.am      2 SEC2        0.0000 
     97 N          32.5970   82.4320  -12.0750 N.am      8 SEL2        0.0000 
     98 N          33.8650   81.8830  -14.9120 N.am      5 SEP2        0.0000 
     99 N          31.9430   82.8980  -13.1710 N.am      2 SEC2        0.0000 
    100 N          31.2890   83.3640  -14.2670 N.am      5 SEP2        0.0000 
    101 CA         35.7925   87.4567  -10.5440 C.3       3 GLC5        0.0000 
    102 CA         39.5228   84.0023  -11.3268 C.3       3 GLC5        0.0000 
    103 CA         39.0100   85.8560  -10.6380 C.3       9 GLL5        0.0000 
    104 CA         39.9230   82.6390  -12.5790 C.3       6 GLP5        0.0000 
    105 CA         35.1860   83.7608   -4.4042 C.3       3 GLC5        0.0000 
    106 CA         37.2020   83.6130   -5.5590 C.3       9 GLL5        0.0000 
    107 CA         33.1580   84.0070   -3.9290 C.3       6 GLP5        0.0000 
    108 CA         39.2752   83.2424   -5.7761 C.3       3 GLC5        0.0000 
    109 CA         25.1662   85.9887  -17.5203 C.3       3 GLC5        0.0000 
    110 CA         27.3600   86.5550  -17.0490 C.3       9 GLL5        0.0000 
    111 CA         23.1770   85.8300  -17.4690 C.3       6 GLP5        0.0000 
    112 CA         27.2293   84.8858  -16.3063 C.3       3 GLC5        0.0000 
    113 CA         26.9510   85.7400  -18.0940 C.3       9 GLL5        0.0000 
    114 CA         27.3030   83.6240  -15.0410 C.3       6 GLP5        0.0000 
    115 CA         27.9138   84.3312  -16.8507 C.3       3 GLC5        0.0000 
    116 CA         27.8470   84.9870  -18.8240 C.3       9 GLL5        0.0000 
    117 CA         31.1337   86.2754  -18.8641 C.3       3 GLC5        0.0000 
    118 CA         29.2020   85.0900  -18.4970 C.3       9 GLL5        0.0000 
    119 CA         32.5990   87.2340  -19.5720 C.3       6 GLP5        0.0000 
    120 CA         28.2293   84.9627  -16.0555 C.3       3 GLC5        0.0000 
    121 CA         30.2903   84.4325  -11.4515 C.3       3 GLC5        0.0000 
    122 CA         28.9630   82.8850  -11.4550 C.3       6 GLP5        0.0000 
@<TRIPOS>BOND
@<TRIPOS>SUBSTRUCTURE
     1 ALC1       15 GROUP        1 X    ALC  0     ROOT ALC X 1
     2 SEC2        1 GROUP        1 X    SEC  0     **** SEC X 2
     3 GLC5        9 GROUP        1 X    GLC  0     **** GLC X 6
     4 ALP1       17 GROUP        1 Y    ALP  0     ROOT ALP Y 8
     5 SEP2        3 GROUP        1 Y    SEP  0     **** SEP Y 9
     6 GLP5       11 GROUP        1 Y    GLP  0     **** GLP Y 13
     7 ALL1       16 GROUP        1 Z    ALL  0     ROOT ALL Z 15
     8 SEL2        2 GROUP        1 Z    SEL  0     **** SEL Z 16
     9 GLL5       10 GROUP        1 Z    GLL  0     **** GLL Z 20
@<TRIPOS>SET

