#    Name: 4bc7_FAD_3_ligand
#    Modification time : Tue Mar 25 07:24:48 2014

@<TRIPOS>MOLECULE
4bc7_FAD_3_ligand
   84    89     1     0     0
SMALL
NO_CHARGES


@<TRIPOS>ATOM
      1 PA         35.7230   83.2450  -11.5300 P.3       1 FAD999      0.0000 
      2 O1A        36.1030   81.8080  -11.2680 O.co2     1 FAD999      0.0000 
      3 O2A        35.5200   83.4560  -13.0260 O.co2     1 FAD999      0.0000 
      4 O5B        36.7270   84.2860  -10.9000 O.3       1 FAD999      0.0000 
      5 C5B        36.4970   85.6580  -11.0670 C.3       1 FAD999      0.0000 
      6 C4B        37.6210   86.3890  -10.3210 C.3       1 FAD999      0.0000 
      7 O4B        37.4550   86.3320   -8.9210 O.3       1 FAD999      0.0000 
      8 C3B        39.0100   85.8560  -10.6380 C.3       1 FAD999      0.0000 
      9 O3B        39.8720   86.9850  -10.4910 O.3       1 FAD999      0.0000 
     10 C2B        39.2350   84.8750   -9.5110 C.3       1 FAD999      0.0000 
     11 O2B        40.6150   84.7420   -9.1990 O.3       1 FAD999      0.0000 
     12 C1B        38.5170   85.5680   -8.3540 C.3       1 FAD999      0.0000 
     13 N9A        37.8840   84.6240   -7.4350 N.pl3     1 FAD999      0.0000 
     14 C8A        36.9660   83.6070   -7.7360 C.2       1 FAD999      0.0000 
     15 N7A        36.5540   82.9600   -6.6020 N.2       1 FAD999      0.0000 
     16 C5A        37.2020   83.6130   -5.5590 C.ar      1 FAD999      0.0000 
     17 C6A        37.2260   83.4160   -4.2000 C.ar      1 FAD999      0.0000 
     18 N6A        36.3750   82.5540   -3.6980 N.pl3     1 FAD999      0.0000 
     19 N1A        38.0180   84.1910   -3.3750 N.ar      1 FAD999      0.0000 
     20 C2A        38.7730   85.1920   -3.8880 C.ar      1 FAD999      0.0000 
     21 N3A        38.7790   85.4000   -5.2350 N.ar      1 FAD999      0.0000 
     22 C4A        38.0250   84.6430   -6.0650 C.ar      1 FAD999      0.0000 
     23 N1         28.4030   89.0800  -13.9370 N.2       1 FAD999      0.0000 
     24 C2         27.4320   89.8010  -13.2580 C.2       1 FAD999      0.0000 
     25 O2         27.7340   90.5390  -12.2970 O.2       1 FAD999      0.0000 
     26 N3         26.1090   89.6700  -13.6370 N.am      1 FAD999      0.0000 
     27 C4         25.7400   88.8500  -14.6880 C.2       1 FAD999      0.0000 
     28 O4         24.5160   88.7620  -14.9950 O.2       1 FAD999      0.0000 
     29 C4X        26.7370   88.1300  -15.3440 C.2       1 FAD999      0.0000 
     30 N5         26.3940   87.2930  -16.3700 N.2       1 FAD999      0.0000 
     31 C5X        27.3600   86.5550  -17.0490 C.ar      1 FAD999      0.0000 
     32 C6         26.9510   85.7400  -18.0940 C.ar      1 FAD999      0.0000 
     33 C7         27.8470   84.9870  -18.8240 C.ar      1 FAD999      0.0000 
     34 C7M        27.3210   84.1030  -19.9590 C.3       1 FAD999      0.0000 
     35 C8         29.2020   85.0900  -18.4970 C.ar      1 FAD999      0.0000 
     36 C8M        30.2340   84.2950  -19.2440 C.3       1 FAD999      0.0000 
     37 C9         29.6190   85.9410  -17.4420 C.ar      1 FAD999      0.0000 
     38 C9A        28.6920   86.6620  -16.6980 C.ar      1 FAD999      0.0000 
     39 N10        29.0530   87.5210  -15.6460 N.pl3     1 FAD999      0.0000 
     40 C10        28.0560   88.2490  -14.9810 C.2       1 FAD999      0.0000 
     41 C1'        30.4920   87.6810  -15.1910 C.3       1 FAD999      0.0000 
     42 C2'        30.8420   86.6210  -14.1350 C.3       1 FAD999      0.0000 
     43 O2'        29.9680   85.4990  -14.1970 O.3       1 FAD999      0.0000 
     44 C3'        30.8900   87.2960  -12.7460 C.3       1 FAD999      0.0000 
     45 O3'        32.0920   88.0470  -12.8210 O.3       1 FAD999      0.0000 
     46 C4'        30.9610   86.3580  -11.5170 C.3       1 FAD999      0.0000 
     47 O4'        30.8910   87.0730  -10.2820 O.3       1 FAD999      0.0000 
     48 C5'        32.2740   85.6020  -11.3790 C.3       1 FAD999      0.0000 
     49 O5'        31.9580   84.4310  -10.6540 O.3       1 FAD999      0.0000 
     50 P          32.8710   83.1190  -10.8090 P.3       1 FAD999      0.0000 
     51 O1P        32.5510   82.1360   -9.6940 O.co2     1 FAD999      0.0000 
     52 O2P        32.5970   82.4320  -12.0750 O.co2     1 FAD999      0.0000 
     53 O3P        34.4080   83.6990  -10.6580 O.3       1 FAD999      0.0000 
     54 H          35.5541   85.9838  -10.6353 H         1 FAD999      0.0000 
     55 H          36.5402   85.9700  -12.1074 H         1 FAD999      0.0000 
     56 H          37.6048   87.4438  -10.6515 H         1 FAD999      0.0000 
     57 H          39.0134   85.4047  -11.5439 H         1 FAD999      0.0000 
     58 H          38.7375   83.9809   -9.7207 H         1 FAD999      0.0000 
     59 H          39.2032   86.1985   -7.8439 H         1 FAD999      0.0000 
     60 H          36.6724   83.4027   -8.6377 H         1 FAD999      0.0000 
     61 H          36.4366   82.3979   -2.7122 H         1 FAD999      0.0000 
     62 H          35.7422   82.1316   -4.3469 H         1 FAD999      0.0000 
     63 H          39.3401   85.7941   -3.2673 H         1 FAD999      0.0000 
     64 H          25.3762   90.1985  -13.1217 H         1 FAD999      0.0000 
     65 H          25.9356   85.6974  -18.3324 H         1 FAD999      0.0000 
     66 H          30.6249   86.0176  -17.2337 H         1 FAD999      0.0000 
     67 H          30.6318   88.6689  -14.7589 H         1 FAD999      0.0000 
     68 H          31.1599   87.5658  -16.0412 H         1 FAD999      0.0000 
     69 H          31.8868   86.3100  -14.3574 H         1 FAD999      0.0000 
     70 H          30.0507   87.9518  -12.6608 H         1 FAD999      0.0000 
     71 H          30.1674   85.6317  -11.5695 H         1 FAD999      0.0000 
     72 H          32.9733   86.2378  -10.8537 H         1 FAD999      0.0000 
     73 H          32.6429   85.3867  -12.3724 H         1 FAD999      0.0000 
     74 H          28.0593   83.6070  -20.4161 H         1 FAD999      0.0000 
     75 H          26.6707   83.4198  -19.6268 H         1 FAD999      0.0000 
     76 H          26.8504   84.6392  -20.6597 H         1 FAD999      0.0000 
     77 H          31.1572   84.4707  -18.9022 H         1 FAD999      0.0000 
     78 H          30.0742   83.3111  -19.1642 H         1 FAD999      0.0000 
     79 H          30.2363   84.5134  -20.2199 H         1 FAD999      0.0000 
     80 H          40.6451   86.6517   -9.9514 H         1 FAD999      0.0000 
     81 H          40.8985   83.8894   -9.6380 H         1 FAD999      0.0000 
     82 H          30.4581   84.7632  -13.7297 H         1 FAD999      0.0000 
     83 H          32.2414   88.3893  -11.8934 H         1 FAD999      0.0000 
     84 H          31.4557   87.8864  -10.4216 H         1 FAD999      0.0000 
@<TRIPOS>BOND
     1    2    1 ar   
     2    3    1 ar   
     3    4    1 1    
     4   53    1 1    
     5    5    4 1    
     6    6    5 1    
     7   54    5 1    
     8   55    5 1    
     9    7    6 1    
    10    8    6 1    
    11   56    6 1    
    12   12    7 1    
    13    9    8 1    
    14   10    8 1    
    15   57    8 1    
    16   80    9 1    
    17   11   10 1    
    18   12   10 1    
    19   58   10 1    
    20   81   11 1    
    21   13   12 1    
    22   59   12 1    
    23   14   13 1    
    24   22   13 1    
    25   15   14 2    
    26   60   14 1    
    27   16   15 1    
    28   17   16 ar   
    29   22   16 ar   
    30   18   17 1    
    31   19   17 ar   
    32   61   18 1    
    33   62   18 1    
    34   20   19 ar   
    35   21   20 ar   
    36   63   20 1    
    37   22   21 ar   
    38   24   23 1    
    39   40   23 2    
    40   25   24 2    
    41   26   24 am   
    42   27   26 am   
    43   64   26 1    
    44   28   27 2    
    45   29   27 1    
    46   30   29 2    
    47   40   29 1    
    48   31   30 1    
    49   32   31 ar   
    50   38   31 ar   
    51   33   32 ar   
    52   65   32 1    
    53   34   33 1    
    54   35   33 ar   
    55   74   34 1    
    56   75   34 1    
    57   76   34 1    
    58   36   35 1    
    59   37   35 ar   
    60   77   36 1    
    61   78   36 1    
    62   79   36 1    
    63   38   37 ar   
    64   66   37 1    
    65   39   38 1    
    66   40   39 1    
    67   41   39 1    
    68   42   41 1    
    69   67   41 1    
    70   68   41 1    
    71   43   42 1    
    72   44   42 1    
    73   69   42 1    
    74   82   43 1    
    75   45   44 1    
    76   46   44 1    
    77   70   44 1    
    78   83   45 1    
    79   47   46 1    
    80   48   46 1    
    81   71   46 1    
    82   84   47 1    
    83   49   48 1    
    84   72   48 1    
    85   73   48 1    
    86   50   49 1    
    87   51   50 ar   
    88   52   50 ar   
    89   53   50 1    
@<TRIPOS>SUBSTRUCTURE
     1 FAD999      1 GROUP   
@<TRIPOS>SET

