#    Name: 2gsd_NAD_1_INTS_M
#    Modification time : Tue Mar 25 15:04:26 2014

@<TRIPOS>MOLECULE
2gsd_NAD_1_INTS_M
   97     0    12     0     0
SMALL
NO_CHARGES


@<TRIPOS>ATOM
      1 N          71.7580   10.5195   13.5750 N.am      2 SEC2        0.0000 
      2 N          70.9100    9.9880   14.6180 N.am     10 SEL2        0.0000 
      3 N          72.6060   11.0510   12.5320 N.am      6 SEP2        0.0000 
      4 NZ         69.2480   11.7875   16.0680 N.4       3 LYC4        0.0000 
      5 NZ         70.3010   11.0790   16.7560 N.4      11 LYL4        0.0000 
      6 NZ         67.1860   13.2510   15.8150 N.4       7 LYP4        0.0000 
      7 N          70.5790   11.4170   18.2570 N.am      2 SEC2        0.0000 
      8 N          70.3010   11.0790   16.7560 N.am     10 SEL2        0.0000 
      9 N          70.8570   11.7550   19.7580 N.am      6 SEP2        0.0000 
     10 N          69.2480   11.7875   16.0680 N.am      2 SEC2        0.0000 
     11 N          68.1950   12.4960   15.3800 N.am      6 SEP2        0.0000 
     12 CA         73.1885    9.6720   13.7015 C.3       4 GLC5        0.0000 
     13 CA         73.5550    9.3400   15.7990 C.3      12 GLL5        0.0000 
     14 CA         72.8220   10.0040   11.6040 C.3       8 GLP5        0.0000 
     15 CA         76.2580    9.6775   17.2240 C.3       4 GLC5        0.0000 
     16 CA         74.8300   10.1610   16.0480 C.3      12 GLL5        0.0000 
     17 CA         77.6860    9.1940   18.4000 C.3       8 GLP5        0.0000 
     18 O          76.6970   13.0235   15.9705 O.2       1 ALC1        0.0000 
     19 O          75.1620   12.5390   16.2650 O.2       9 ALL1        0.0000 
     20 O          78.2320   13.5080   15.6760 O.2       5 ALP1        0.0000 
     21 O          76.3545   12.6270   16.9350 O.2       1 ALC1        0.0000 
     22 O          77.5470   12.7150   17.6050 O.2       5 ALP1        0.0000 
     23 CA         76.1135   13.3500   13.2670 C.3       4 GLC5        0.0000 
     24 CA         75.8500   11.4250   14.2260 C.3      12 GLL5        0.0000 
     25 CA         76.3770   15.2750   12.3080 C.3       8 GLP5        0.0000 
     26 O          77.3780   13.0865   14.7965 O.2       1 ALC1        0.0000 
     27 O          76.5240   12.6650   13.9170 O.2       9 ALL1        0.0000 
     28 CA         77.2325    9.7900   16.6315 C.3       4 GLC5        0.0000 
     29 CA         76.7790   10.3860   14.8630 C.3      12 GLL5        0.0000 
     30 CA         76.1450    8.4490   14.4700 C.3       4 GLC5        0.0000 
     31 CA         75.5110    6.5120   14.0770 C.3       8 GLP5        0.0000 
     32 N          78.0915    7.5815   11.0365 N.am      2 SEC2        0.0000 
     33 N          78.4610    8.7290   12.0900 N.am     10 SEL2        0.0000 
     34 N          77.7220    6.4340    9.9830 N.am      6 SEP2        0.0000 
     35 O          81.3190    8.3705   10.3775 O.2       1 ALC1        0.0000 
     36 O          81.4420    8.1770   11.8330 O.2       9 ALL1        0.0000 
     37 O          81.1960    8.5640    8.9220 O.2       5 ALP1        0.0000 
     38 CA         81.4445    8.0825   16.7940 C.3       4 GLC5        0.0000 
     39 CA         81.0450    9.4250   15.2160 C.3      12 GLL5        0.0000 
     40 CA         81.8440    6.7400   18.3720 C.3       8 GLP5        0.0000 
     41 CA         81.0195   11.1940   16.1300 C.3       4 GLC5        0.0000 
     42 CA         80.9940   12.9630   17.0440 C.3       8 GLP5        0.0000 
     43 N          80.2485   11.3990   14.9070 N.am      2 SEC2        0.0000 
     44 N          79.7120    9.7880   15.2210 N.am     10 SEL2        0.0000 
     45 N          80.7850   13.0100   14.5930 N.am      6 SEP2        0.0000 
     46 CA         78.3210    9.3465   16.2685 C.3       4 GLC5        0.0000 
     47 CA         78.9560    9.4990   14.1370 C.3      12 GLL5        0.0000 
     48 N          70.8630    9.0795   20.3140 N.am      2 SEC2        0.0000 
     49 N          71.1510    8.5210   18.9760 N.am     10 SEL2        0.0000 
     50 N          70.5750    9.6380   21.6520 N.am      6 SEP2        0.0000 
     51 N          67.5720    8.1360   19.1845 N.am      2 SEC2        0.0000 
     52 N          68.6480    7.9890   18.2590 N.am     10 SEL2        0.0000 
     53 N          66.4960    8.2830   20.1100 N.am      6 SEP2        0.0000 
     54 CA         70.9025    5.6975   19.1895 C.3       4 GLC5        0.0000 
     55 CA         71.8650    6.1540   17.3550 C.3      12 GLL5        0.0000 
     56 CA         69.9400    5.2410   21.0240 C.3       8 GLP5        0.0000 
     57 O          72.0710    1.9840   14.0700 O.2       1 ALC1        0.0000 
     58 O          71.7950    1.9640   15.4470 O.2       9 ALL1        0.0000 
     59 O          72.3470    2.0040   12.6930 O.2       5 ALP1        0.0000 
     60 CA         70.5850    3.9170   19.3795 C.3       4 GLC5        0.0000 
     61 CA         71.2300    2.5930   17.7350 C.3      12 GLL5        0.0000 
     62 CA         72.7120    1.7090   18.5365 C.3       4 GLC5        0.0000 
     63 CA         74.1940    0.8250   19.3380 C.3       8 GLP5        0.0000 
     64 CA         72.0245    0.9755   19.2465 C.3       4 GLC5        0.0000 
     65 CA         69.8550    1.1260   19.1550 C.3      12 GLL5        0.0000 
     66 N          68.8795   -2.0905   20.3985 N.am      2 SEC2        0.0000 
     67 N          69.7060   -0.9280   21.3760 N.am     10 SEL2        0.0000 
     68 N          68.0530   -3.2530   19.4210 N.am      6 SEP2        0.0000 
     69 CA         66.8715    3.6360   17.6800 C.3       4 GLC5        0.0000 
     70 CA         67.7720    2.9910   19.1500 C.3      12 GLL5        0.0000 
     71 CA         65.9710    4.2810   16.2100 C.3       8 GLP5        0.0000 
     72 CA         68.1120    4.1760   17.1455 C.3       4 GLC5        0.0000 
     73 CA         68.9680    3.2530   18.4580 C.3      12 GLL5        0.0000 
     74 CA         67.2560    5.0990   15.8330 C.3       8 GLP5        0.0000 
     75 CA         74.8518    8.1312   15.0002 C.3       4 GLC5        0.0000 
     76 CA         73.8299   11.4414   17.3866 C.3       4 GLC5        0.0000 
     77 CA         73.1700   12.2450   19.1420 C.3       8 GLP5        0.0000 
     78 CA         74.0703   10.7395   13.1932 C.3       4 GLC5        0.0000 
     79 CA         74.7870   11.5250   15.3390 C.3      12 GLL5        0.0000 
     80 CA         78.6633    7.6010   14.8635 C.3       4 GLC5        0.0000 
     81 CA         79.4630    8.8630   12.9870 C.3      12 GLL5        0.0000 
     82 CA         78.1170    6.0210   16.1650 C.3       8 GLP5        0.0000 
     83 CA         80.3410    6.6877   12.8060 C.3       4 GLC5        0.0000 
     84 CA         80.5470    4.6860   12.6350 C.3       8 GLP5        0.0000 
     85 CA         79.8208   10.9656   12.9025 C.3       4 GLC5        0.0000 
     86 CA         80.0960   12.8370   12.2480 C.3       8 GLP5        0.0000 
     87 CA         73.1227    4.3150   15.1035 C.3       4 GLC5        0.0000 
     88 CA         71.9720    4.6780   16.9710 C.3      12 GLL5        0.0000 
     89 CA         74.7960    4.1860   13.7460 C.3       8 GLP5        0.0000 
     90 CA         69.0772    4.2770   15.9627 C.3       4 GLC5        0.0000 
     91 CA         70.9270    4.2100   15.9510 C.3      12 GLL5        0.0000 
     92 CA         69.7188    2.7730   14.5147 C.3       4 GLC5        0.0000 
     93 CA         68.5390    2.0910   12.9370 C.3       8 GLP5        0.0000 
     94 CA         67.8304    2.3475   21.2496 C.3       4 GLC5        0.0000 
     95 CA         67.6920    2.5430   22.9990 C.3       8 GLP5        0.0000 
     96 CA         69.1391    4.0304   20.0014 C.3       4 GLC5        0.0000 
     97 CA         67.6450    1.7820   19.8490 C.3      12 GLL5        0.0000 
@<TRIPOS>BOND
@<TRIPOS>SUBSTRUCTURE
     1 ALC1       18 GROUP        1 X    ALC  0     ROOT ALC X 1
     2 SEC2        1 GROUP        1 X    SEC  0     **** SEC X 2
     3 LYC4        4 GROUP        1 X    LYC  0     **** LYC X 4
     4 GLC5       12 GROUP        1 X    GLC  0     **** GLC X 6
     5 ALP1       20 GROUP        1 Y    ALP  0     ROOT ALP Y 8
     6 SEP2        3 GROUP        1 Y    SEP  0     **** SEP Y 9
     7 LYP4        6 GROUP        1 Y    LYP  0     **** LYP Y 11
     8 GLP5       14 GROUP        1 Y    GLP  0     **** GLP Y 13
     9 ALL1       19 GROUP        1 Z    ALL  0     ROOT ALL Z 15
    10 SEL2        2 GROUP        1 Z    SEL  0     **** SEL Z 16
    11 LYL4        5 GROUP        1 Z    LYL  0     **** LYL Z 18
    12 GLL5       13 GROUP        1 Z    GLL  0     **** GLL Z 20
@<TRIPOS>SET

