#    Name: 2gsd_NAD_1_ligand
#    Modification time : Tue Mar 25 15:04:26 2014

@<TRIPOS>MOLECULE
2gsd_NAD_1_ligand
   70    74     1     0     0
SMALL
NO_CHARGES


@<TRIPOS>ATOM
      1 PA         71.0110    9.9750   16.1210 P.3       1 NAD402      0.0000 
      2 O1A        70.9100    9.9880   14.6180 O.co2     1 NAD402      0.0000 
      3 O2A        70.3010   11.0790   16.7560 O.co2     1 NAD402      0.0000 
      4 O5B        72.5440    9.9520   16.5550 O.3       1 NAD402      0.0000 
      5 C5B        73.5550    9.3400   15.7990 C.3       1 NAD402      0.0000 
      6 C4B        74.8300   10.1610   16.0480 C.3       1 NAD402      0.0000 
      7 O4B        75.9560    9.4380   15.5290 O.3       1 NAD402      0.0000 
      8 C3B        74.7870   11.5250   15.3390 C.3       1 NAD402      0.0000 
      9 O3B        75.1620   12.5390   16.2650 O.3       1 NAD402      0.0000 
     10 C2B        75.8500   11.4250   14.2260 C.3       1 NAD402      0.0000 
     11 O2B        76.5240   12.6650   13.9170 O.3       1 NAD402      0.0000 
     12 C1B        76.7790   10.3860   14.8630 C.3       1 NAD402      0.0000 
     13 N9A        77.6510    9.7280   13.8910 N.pl3     1 NAD402      0.0000 
     14 C8A        77.3480    9.2650   12.6130 C.2       1 NAD402      0.0000 
     15 N7A        78.4610    8.7290   12.0900 N.2       1 NAD402      0.0000 
     16 C5A        79.4630    8.8630   12.9870 C.ar      1 NAD402      0.0000 
     17 C6A        80.8070    8.5160   12.9670 C.ar      1 NAD402      0.0000 
     18 N6A        81.4420    8.1770   11.8330 N.pl3     1 NAD402      0.0000 
     19 N1A        81.5390    8.8160   14.0810 N.ar      1 NAD402      0.0000 
     20 C2A        81.0450    9.4250   15.2160 C.ar      1 NAD402      0.0000 
     21 N3A        79.7120    9.7880   15.2210 N.ar      1 NAD402      0.0000 
     22 C4A        78.9560    9.4990   14.1370 C.ar      1 NAD402      0.0000 
     23 O3         70.4410    8.5180   16.5460 O.3       1 NAD402      0.0000 
     24 PN         70.1210    7.9560   18.0340 P.3       1 NAD402      0.0000 
     25 O1N        71.1510    8.5210   18.9760 O.co2     1 NAD402      0.0000 
     26 O2N        68.6480    7.9890   18.2590 O.co2     1 NAD402      0.0000 
     27 O5D        70.5410    6.4380   17.8280 O.3       1 NAD402      0.0000 
     28 C5D        71.8650    6.1540   17.3550 C.3       1 NAD402      0.0000 
     29 C4D        71.9720    4.6780   16.9710 C.3       1 NAD402      0.0000 
     30 O4D        71.7430    3.8630   18.1130 O.3       1 NAD402      0.0000 
     31 C3D        70.9270    4.2100   15.9510 C.3       1 NAD402      0.0000 
     32 O3D        71.2830    4.5300   14.6250 O.3       1 NAD402      0.0000 
     33 C2D        70.8700    2.7000   16.2340 C.3       1 NAD402      0.0000 
     34 O2D        71.7950    1.9640   15.4470 O.3       1 NAD402      0.0000 
     35 C1D        71.2300    2.5930   17.7350 C.3       1 NAD402      0.0000 
     36 N1N        69.9790    2.3180   18.4820 N.pl3     1 NAD402      0.0000 
     37 C2N        69.8550    1.1260   19.1550 C.ar      1 NAD402      0.0000 
     38 C3N        68.6860    0.8440   19.8520 C.ar      1 NAD402      0.0000 
     39 C7N        68.5840   -0.3090   20.7950 C.2       1 NAD402      0.0000 
     40 O7N        69.7060   -0.9280   21.3760 O.2       1 NAD402      0.0000 
     41 N7N        67.3640   -0.6880   21.1050 N.am      1 NAD402      0.0000 
     42 C4N        67.6450    1.7820   19.8490 C.ar      1 NAD402      0.0000 
     43 C5N        67.7720    2.9910   19.1500 C.ar      1 NAD402      0.0000 
     44 C6N        68.9680    3.2530   18.4580 C.ar      1 NAD402      0.0000 
     45 H          73.3572    9.3618   14.7333 H         1 NAD402      0.0000 
     46 H          73.7579    8.3218   16.1110 H         1 NAD402      0.0000 
     47 H          74.9351   10.3280   17.1013 H         1 NAD402      0.0000 
     48 H          73.8479   11.6569   14.9057 H         1 NAD402      0.0000 
     49 H          75.3850   10.9538   13.3890 H         1 NAD402      0.0000 
     50 H          77.3870   10.9217   15.6007 H         1 NAD402      0.0000 
     51 H          76.4851    9.3318   12.2049 H         1 NAD402      0.0000 
     52 H          80.8912    8.1934   10.9985 H         1 NAD402      0.0000 
     53 H          82.4088    7.9385   11.9245 H         1 NAD402      0.0000 
     54 H          81.6396    9.6008   16.0203 H         1 NAD402      0.0000 
     55 H          72.6201    6.3565   18.1223 H         1 NAD402      0.0000 
     56 H          72.1142    6.7497   16.4701 H         1 NAD402      0.0000 
     57 H          72.9477    4.4810   16.5619 H         1 NAD402      0.0000 
     58 H          69.9832    4.6215   16.2673 H         1 NAD402      0.0000 
     59 H          69.8596    2.3821   16.1282 H         1 NAD402      0.0000 
     60 H          71.9247    1.8160   17.8528 H         1 NAD402      0.0000 
     61 H          70.6223    0.4390   19.1471 H         1 NAD402      0.0000 
     62 H          66.6214   -0.1916   20.6554 H         1 NAD402      0.0000 
     63 H          67.2899   -1.4381   21.7622 H         1 NAD402      0.0000 
     64 H          66.7771    1.5818   20.3656 H         1 NAD402      0.0000 
     65 H          67.0141    3.6673   19.1424 H         1 NAD402      0.0000 
     66 H          69.0730    4.1325   17.9462 H         1 NAD402      0.0000 
     67 H          76.1455   12.4164   16.3986 H         1 NAD402      0.0000 
     68 H          77.1271   12.8329   14.6968 H         1 NAD402      0.0000 
     69 H          70.4521    4.9100   14.2186 H         1 NAD402      0.0000 
     70 H          71.6895    2.3236   14.5199 H         1 NAD402      0.0000 
@<TRIPOS>BOND
     1    2    1 ar   
     2    3    1 ar   
     3    4    1 1    
     4   23    1 1    
     5    5    4 1    
     6    6    5 1    
     7   45    5 1    
     8   46    5 1    
     9    7    6 1    
    10    8    6 1    
    11   47    6 1    
    12   12    7 1    
    13    9    8 1    
    14   10    8 1    
    15   48    8 1    
    16   67    9 1    
    17   11   10 1    
    18   12   10 1    
    19   49   10 1    
    20   68   11 1    
    21   13   12 1    
    22   50   12 1    
    23   14   13 1    
    24   22   13 1    
    25   15   14 2    
    26   51   14 1    
    27   16   15 1    
    28   17   16 ar   
    29   22   16 ar   
    30   18   17 1    
    31   19   17 ar   
    32   52   18 1    
    33   53   18 1    
    34   20   19 ar   
    35   21   20 ar   
    36   54   20 1    
    37   22   21 ar   
    38   24   23 1    
    39   25   24 ar   
    40   26   24 ar   
    41   27   24 1    
    42   28   27 1    
    43   29   28 1    
    44   55   28 1    
    45   56   28 1    
    46   30   29 1    
    47   31   29 1    
    48   57   29 1    
    49   35   30 1    
    50   32   31 1    
    51   33   31 1    
    52   58   31 1    
    53   69   32 1    
    54   34   33 1    
    55   35   33 1    
    56   59   33 1    
    57   70   34 1    
    58   36   35 1    
    59   60   35 1    
    60   37   36 ar   
    61   44   36 ar   
    62   38   37 ar   
    63   61   37 1    
    64   39   38 1    
    65   42   38 ar   
    66   40   39 2    
    67   41   39 am   
    68   62   41 1    
    69   63   41 1    
    70   43   42 ar   
    71   64   42 1    
    72   44   43 ar   
    73   65   43 1    
    74   66   44 1    
@<TRIPOS>SUBSTRUCTURE
     1 NAD402      1 GROUP   
@<TRIPOS>SET

