#    Name: 3q2g_QGF_2_INTS_M
#    Modification time : Tue Mar 25 08:47:11 2014

@<TRIPOS>MOLECULE
3q2g_QGF_2_INTS_M
   70     0     9     0     0
SMALL
NO_CHARGES


@<TRIPOS>ATOM
      1 CA         36.3005    6.5590   46.9335 C.3       3 GLC5        0.0000 
      2 CA         38.2880    6.6990   46.6740 C.3       9 GLL5        0.0000 
      3 CA         34.3130    6.4190   47.1930 C.3       6 GLP5        0.0000 
      4 CA         38.5010    5.7480   48.5545 C.3       3 GLC5        0.0000 
      5 CA         38.7140    4.7970   50.4350 C.3       6 GLP5        0.0000 
      6 CA         37.5740   23.7100   44.1990 C.3       3 GLC5        0.0000 
      7 CA         38.5480   23.3110   46.0980 C.3       9 GLL5        0.0000 
      8 CA         36.6000   24.1090   42.3000 C.3       6 GLP5        0.0000 
      9 CA         38.0320   12.1690   42.7500 C.3       3 GLC5        0.0000 
     10 CA         37.2140   11.0250   43.8560 C.3       9 GLL5        0.0000 
     11 CA         38.8500   13.3130   41.6440 C.3       6 GLP5        0.0000 
     12 CA         35.5785   12.0710   43.3510 C.3       3 GLC5        0.0000 
     13 CA         33.9430   13.1170   42.8460 C.3       6 GLP5        0.0000 
     14 CA         38.1605   21.2065   42.0250 C.3       3 GLC5        0.0000 
     15 CA         38.3580   21.3560   43.8680 C.3       9 GLL5        0.0000 
     16 CA         37.9630   21.0570   40.1820 C.3       6 GLP5        0.0000 
     17 CA         37.4790   22.7325   43.0840 C.3       3 GLC5        0.0000 
     18 N          38.5235   18.1155   41.7095 N.am      1 SEC2        0.0000 
     19 N          38.6810   18.6980   43.1820 N.am      7 SEL2        0.0000 
     20 N          38.3660   17.5330   40.2370 N.am      4 SEP2        0.0000 
     21 Zn         38.0785   18.2285   46.9385 Zn        2 ZIC7        0.0000 
     22 Zn         39.0570   17.4110   45.2340 Zn        8 ZIL7        0.0000 
     23 Zn         37.1000   19.0460   48.6430 Zn        5 ZIP7        0.0000 
     24 CA         41.8765   15.1535   46.9440 C.3       3 GLC5        0.0000 
     25 CA         39.9510   15.4220   46.3050 C.3       9 GLL5        0.0000 
     26 CA         43.8020   14.8850   47.5830 C.3       6 GLP5        0.0000 
     27 CA         38.2550   14.3300   43.4200 C.3       3 GLC5        0.0000 
     28 CA         37.6600   15.3470   45.1960 C.3       9 GLL5        0.0000 
     29 CA         35.9560   14.9725   43.9825 C.3       3 GLC5        0.0000 
     30 CA         34.2520   14.5980   42.7690 C.3       6 GLP5        0.0000 
     31 CA         37.6070   16.1050   42.9950 C.3       3 GLC5        0.0000 
     32 CA         37.6780   16.8900   45.0900 C.3       9 GLL5        0.0000 
     33 CA         37.5360   15.3200   40.9000 C.3       6 GLP5        0.0000 
     34 CA         35.5015   12.6830   45.4210 C.3       3 GLC5        0.0000 
     35 CA         37.4120   12.6540   46.5450 C.3       9 GLL5        0.0000 
     36 CA         33.5910   12.7120   44.2970 C.3       6 GLP5        0.0000 
     37 CA         35.8600   13.4670   47.3340 C.3       3 GLC5        0.0000 
     38 CA         34.3080   14.2800   48.1230 C.3       6 GLP5        0.0000 
     39 CA         36.0315    9.8060   46.1685 C.3       3 GLC5        0.0000 
     40 CA         37.6490   11.1660   46.5940 C.3       9 GLL5        0.0000 
     41 CA         34.4140    8.4460   45.7430 C.3       6 GLP5        0.0000 
     42 CA         35.9120   10.3560   48.6915 C.3       3 GLC5        0.0000 
     43 CA         37.9210   10.5640   47.8180 C.3       9 GLL5        0.0000 
     44 CA         33.9030   10.1480   49.5650 C.3       6 GLP5        0.0000 
     45 Zn         37.7655   19.4795   48.0270 Zn        2 ZIC7        0.0000 
     46 Zn         38.4310   19.9130   47.4110 Zn        8 ZIL7        0.0000 
     47 Zn         36.5200   19.3360   47.6085 Zn        2 ZIC7        0.0000 
     48 Zn         35.9400   19.6260   46.5740 Zn        8 ZIL7        0.0000 
     49 N          34.5840   19.4305   46.3755 N.am      1 SEC2        0.0000 
     50 N          35.9400   19.6260   46.5740 N.am      7 SEL2        0.0000 
     51 N          33.2280   19.2350   46.1770 N.am      4 SEP2        0.0000 
     52 CA         34.6550   23.5835   51.7105 C.3       3 GLC5        0.0000 
     53 CA         36.0930   22.7680   51.0630 C.3       9 GLL5        0.0000 
     54 CA         33.2170   24.3990   52.3580 C.3       6 GLP5        0.0000 
     55 CA         34.7365   21.5560   50.8645 C.3       3 GLC5        0.0000 
     56 CA         33.3800   20.3440   50.6660 C.3       6 GLP5        0.0000 
     57 CA         36.7449   16.2614   46.7894 C.3       3 GLC5        0.0000 
     58 CA         38.5390   14.8160   46.3470 C.3       9 GLL5        0.0000 
     59 CA         35.6010   16.5370   48.1480 C.3       6 GLP5        0.0000 
     60 CA         39.3235   10.3970   45.9685 C.3       3 GLC5        0.0000 
     61 CA         40.8620    9.9290   44.7310 C.3       6 GLP5        0.0000 
     62 CA         36.2512    8.6262   46.5132 C.3       3 GLC5        0.0000 
     63 CA         38.0520    8.4240   46.6990 C.3       9 GLL5        0.0000 
     64 CA         39.4753    9.3678   46.0072 C.3       3 GLC5        0.0000 
     65 CA         35.9983    9.1555   45.4064 C.3       3 GLC5        0.0000 
     66 CA         37.7730    9.0240   45.4950 C.3       9 GLL5        0.0000 
     67 CA         39.2223    9.8970   44.9004 C.3       3 GLC5        0.0000 
     68 CA         35.1835   21.3185   49.4555 C.3       3 GLC5        0.0000 
     69 CA         35.9270   22.8640   48.6600 C.3       9 GLL5        0.0000 
     70 CA         34.0690   19.7590   49.6590 C.3       6 GLP5        0.0000 
@<TRIPOS>BOND
@<TRIPOS>SUBSTRUCTURE
     1 SEC2       18 GROUP        1 X    SEC  0     ROOT SEC X 2
     2 ZIC7       21 GROUP        1 X    ZIC  0     **** ZIC X 5
     3 GLC5        1 GROUP        1 X    GLC  0     **** GLC X 6
     4 SEP2       20 GROUP        1 Y    SEP  0     ROOT SEP Y 9
     5 ZIP7       23 GROUP        1 Y    ZIP  0     **** ZIP Y 12
     6 GLP5        3 GROUP        1 Y    GLP  0     **** GLP Y 13
     7 SEL2       19 GROUP        1 Z    SEL  0     ROOT SEL Z 16
     8 ZIL7       22 GROUP        1 Z    ZIL  0     **** ZIL Z 19
     9 GLL5        2 GROUP        1 Z    GLL  0     **** GLL Z 20
@<TRIPOS>SET

