#    Name: 3q2g_QGF_2_ligand
#    Modification time : Tue Mar 25 08:47:11 2014

@<TRIPOS>MOLECULE
3q2g_QGF_2_ligand
   65    67     1     0     0
SMALL
NO_CHARGES


@<TRIPOS>ATOM
      1 C1         39.2750   24.6580   46.0240 C.3       1 QGF2        0.0000 
      2 CL1        38.2880    6.6990   46.6740 Cl        1 QGF2        0.0000 
      3 C2         38.5480   23.3110   46.0980 C.3       1 QGF2        0.0000 
      4 CL2        37.2140   11.0250   43.8560 Cl        1 QGF2        0.0000 
      5 C3         39.5830   22.2000   45.8610 C.3       1 QGF2        0.0000 
      6 C4         38.9890   20.9480   45.2050 C.3       1 QGF2        0.0000 
      7 C5         38.3580   21.3560   43.8680 C.3       1 QGF2        0.0000 
      8 C6         40.1660   19.9830   45.0020 C.3       1 QGF2        0.0000 
      9 S7         39.7260   18.4570   44.1190 S.o2      1 QGF2        0.0000 
     10 O8         38.6810   18.6980   43.1820 O.2       1 QGF2        0.0000 
     11 O9         40.8950   17.7450   43.7470 O.2       1 QGF2        0.0000 
     12 N10        39.0570   17.4110   45.2340 N.pl3     1 QGF2        0.0000 
     13 C11        39.8340   16.9460   46.3960 C.3       1 QGF2        0.0000 
     14 C12        39.9510   15.4220   46.3050 C.3       1 QGF2        0.0000 
     15 C13        38.5390   14.8160   46.3470 C.3       1 QGF2        0.0000 
     16 C14        37.6600   15.3470   45.1960 C.3       1 QGF2        0.0000 
     17 C15        37.6780   16.8900   45.0900 C.3       1 QGF2        0.0000 
     18 O16        38.6180   13.3810   46.2950 O.3       1 QGF2        0.0000 
     19 C17        37.4120   12.6540   46.5450 C.3       1 QGF2        0.0000 
     20 C18        37.6490   11.1660   46.5940 C.ar      1 QGF2        0.0000 
     21 C19        37.9210   10.5640   47.8180 C.ar      1 QGF2        0.0000 
     22 C20        38.1250    9.1890   47.8680 C.ar      1 QGF2        0.0000 
     23 C21        38.0520    8.4240   46.6990 C.ar      1 QGF2        0.0000 
     24 C23        37.7730    9.0240   45.4950 C.ar      1 QGF2        0.0000 
     25 C24        37.5700   10.3870   45.4330 C.ar      1 QGF2        0.0000 
     26 N26        38.0060   20.3280   46.1200 N.am      1 QGF2        0.0000 
     27 O27        38.4310   19.9130   47.4110 O.3       1 QGF2        0.0000 
     28 C28        36.7060   20.1450   45.7830 C.2       1 QGF2        0.0000 
     29 O29        35.9400   19.6260   46.5740 O.2       1 QGF2        0.0000 
     30 C30        37.8620   23.1560   47.4420 C.ar      1 QGF2        0.0000 
     31 N31        38.5850   23.1830   48.5530 N.ar      1 QGF2        0.0000 
     32 C32        38.0400   23.0590   49.7500 C.ar      1 QGF2        0.0000 
     33 C33        36.6690   22.8920   49.8440 C.ar      1 QGF2        0.0000 
     34 F34        36.0930   22.7680   51.0630 F         1 QGF2        0.0000 
     35 C35        35.9270   22.8640   48.6600 C.ar      1 QGF2        0.0000 
     36 N36        36.5530   22.9980   47.4900 N.ar      1 QGF2        0.0000 
     37 H          37.8202   23.2750   45.3097 H         1 QGF2        0.0000 
     38 H          40.0313   21.9210   46.8235 H         1 QGF2        0.0000 
     39 H          40.3851   22.5922   45.2222 H         1 QGF2        0.0000 
     40 H          40.5709   19.6051   45.9260 H         1 QGF2        0.0000 
     41 H          40.9478   20.3896   44.3824 H         1 QGF2        0.0000 
     42 H          39.3334   17.1987   47.3221 H         1 QGF2        0.0000 
     43 H          40.8304   17.3694   46.3894 H         1 QGF2        0.0000 
     44 H          40.5218   15.0536   47.1426 H         1 QGF2        0.0000 
     45 H          40.4271   15.1519   45.3758 H         1 QGF2        0.0000 
     46 H          38.0750   15.1334   47.2839 H         1 QGF2        0.0000 
     47 H          36.6295   15.0157   45.3527 H         1 QGF2        0.0000 
     48 H          38.0153   14.9239   44.2521 H         1 QGF2        0.0000 
     49 H          37.2601   17.1676   44.1200 H         1 QGF2        0.0000 
     50 H          37.0306   17.2907   45.8728 H         1 QGF2        0.0000 
     51 H          36.6553   12.8549   45.7619 H         1 QGF2        0.0000 
     52 H          36.9535   12.9598   47.5055 H         1 QGF2        0.0000 
     53 H          37.9704   11.1257   48.6712 H         1 QGF2        0.0000 
     54 H          38.3302    8.7302   48.7649 H         1 QGF2        0.0000 
     55 H          37.7146    8.4560   44.6338 H         1 QGF2        0.0000 
     56 H          36.4176   20.4763   44.8131 H         1 QGF2        0.0000 
     57 H          38.6008   23.0823   50.6172 H         1 QGF2        0.0000 
     58 H          34.9031   22.7391   48.7214 H         1 QGF2        0.0000 
     59 H          39.9963   24.7291   46.7130 H         1 QGF2        0.0000 
     60 H          39.7061   24.7989   45.1328 H         1 QGF2        0.0000 
     61 H          38.6512   25.4254   46.1724 H         1 QGF2        0.0000 
     62 H          39.0309   21.7581   43.2471 H         1 QGF2        0.0000 
     63 H          37.9529   20.5739   43.3945 H         1 QGF2        0.0000 
     64 H          37.6318   22.0324   43.9911 H         1 QGF2        0.0000 
     65 H          39.2868   19.4196   47.2554 H         1 QGF2        0.0000 
@<TRIPOS>BOND
     1    3    1 1    
     2   59    1 1    
     3   60    1 1    
     4   61    1 1    
     5   23    2 1    
     6    5    3 1    
     7   30    3 1    
     8   37    3 1    
     9   25    4 1    
    10    6    5 1    
    11   38    5 1    
    12   39    5 1    
    13    7    6 1    
    14    8    6 1    
    15   26    6 1    
    16   62    7 1    
    17   63    7 1    
    18   64    7 1    
    19    9    8 1    
    20   40    8 1    
    21   41    8 1    
    22   10    9 2    
    23   11    9 2    
    24   12    9 1    
    25   13   12 1    
    26   17   12 1    
    27   14   13 1    
    28   42   13 1    
    29   43   13 1    
    30   15   14 1    
    31   44   14 1    
    32   45   14 1    
    33   16   15 1    
    34   18   15 1    
    35   46   15 1    
    36   17   16 1    
    37   47   16 1    
    38   48   16 1    
    39   49   17 1    
    40   50   17 1    
    41   19   18 1    
    42   20   19 1    
    43   51   19 1    
    44   52   19 1    
    45   21   20 ar   
    46   25   20 ar   
    47   22   21 ar   
    48   53   21 1    
    49   23   22 ar   
    50   54   22 1    
    51   24   23 ar   
    52   25   24 ar   
    53   55   24 1    
    54   27   26 1    
    55   28   26 am   
    56   65   27 1    
    57   29   28 2    
    58   56   28 1    
    59   31   30 ar   
    60   36   30 ar   
    61   32   31 ar   
    62   33   32 ar   
    63   57   32 1    
    64   34   33 1    
    65   35   33 ar   
    66   36   35 ar   
    67   58   35 1    
@<TRIPOS>SUBSTRUCTURE
     1 QGF2        1 GROUP   
@<TRIPOS>SET

