#    Name: 2jjy_NAD_1_INTS_M
#    Modification time : Tue Mar 25 20:59:04 2014

@<TRIPOS>MOLECULE
2jjy_NAD_1_INTS_M
   74     0     9     0     0
SMALL
NO_CHARGES


@<TRIPOS>ATOM
      1 CA         -9.5155  -24.2105   25.2880 C.3       3 GLC5        0.0000 
      2 CA         -8.8190  -24.2730   27.2940 C.3       9 GLL5        0.0000 
      3 CA        -10.2120  -24.1480   23.2820 C.3       6 GLP5        0.0000 
      4 N          -8.2855  -23.6740   24.8395 N.am      2 SEC2        0.0000 
      5 N          -8.1240  -24.7890   26.1420 N.am      8 SEL2        0.0000 
      6 N          -8.4470  -22.5590   23.5370 N.am      5 SEP2        0.0000 
      7 CA         -9.0870  -26.4060   24.7910 C.3       3 GLC5        0.0000 
      8 CA         -7.8050  -26.1450   26.4590 C.3       9 GLL5        0.0000 
      9 CA        -10.3690  -26.6670   23.1230 C.3       6 GLP5        0.0000 
     10 CA         -4.3900  -29.6245   24.7725 C.3       3 GLC5        0.0000 
     11 CA         -4.9950  -28.2900   23.1420 C.3       9 GLL5        0.0000 
     12 CA         -3.7850  -30.9590   26.4030 C.3       6 GLP5        0.0000 
     13 O          -3.4280  -29.4795   22.3580 O.2       1 ALC1        0.0000 
     14 O          -3.8400  -28.1460   22.4870 O.2       7 ALL1        0.0000 
     15 O          -3.0160  -30.8130   22.2290 O.2       4 ALP1        0.0000 
     16 N          -5.7835  -30.2615   21.7015 N.am      2 SEC2        0.0000 
     17 N          -5.8040  -29.3510   22.9420 N.am      8 SEL2        0.0000 
     18 N          -5.7630  -31.1720   20.4610 N.am      5 SEP2        0.0000 
     19 CA         -6.1040  -30.3460   25.1575 C.3       3 GLC5        0.0000 
     20 CA         -6.9490  -29.4710   23.5990 C.3       9 GLL5        0.0000 
     21 CA         -5.2590  -31.2210   26.7160 C.3       6 GLP5        0.0000 
     22 CA         -5.9630  -31.1230   22.8605 C.3       3 GLC5        0.0000 
     23 CA         -4.9770  -32.7750   22.1220 C.3       6 GLP5        0.0000 
     24 CA         -6.7135  -28.8845   21.7125 C.3       3 GLC5        0.0000 
     25 CA         -6.4780  -28.2980   19.8260 C.3       6 GLP5        0.0000 
     26 CA         -8.7460  -28.6515   22.8910 C.3       3 GLC5        0.0000 
     27 CA        -10.5430  -27.8320   22.1830 C.3       6 GLP5        0.0000 
     28 CA         -6.1555  -28.8840   26.2840 C.3       3 GLC5        0.0000 
     29 CA         -6.5810  -27.4800   24.7350 C.3       9 GLL5        0.0000 
     30 CA         -5.7300  -30.2880   27.8330 C.3       6 GLP5        0.0000 
     31 N         -13.9610  -21.6005   31.1605 N.am      2 SEC2        0.0000 
     32 N         -12.4030  -21.5130   30.7540 N.am      8 SEL2        0.0000 
     33 N         -15.5190  -21.6880   31.5670 N.am      5 SEP2        0.0000 
     34 CA        -13.9845  -20.0410   25.0425 C.3       3 GLC5        0.0000 
     35 CA        -12.1460  -19.9840   26.3200 C.3       9 GLL5        0.0000 
     36 CA        -15.8230  -20.0980   23.7650 C.3       6 GLP5        0.0000 
     37 N         -11.2495  -19.1665   22.8565 N.am      2 SEC2        0.0000 
     38 N         -11.6130  -20.0840   24.0620 N.am      8 SEL2        0.0000 
     39 N         -10.8860  -18.2490   21.6510 N.am      5 SEP2        0.0000 
     40 CA        -10.9040  -17.3865   23.4480 C.3       3 GLC5        0.0000 
     41 CA        -11.3960  -17.9490   25.2770 C.3       9 GLL5        0.0000 
     42 CA        -10.4120  -16.8240   21.6190 C.3       6 GLP5        0.0000 
     43 O         -12.7385  -18.1355   22.8970 O.2       1 ALC1        0.0000 
     44 O         -11.7710  -17.5150   23.9820 O.2       7 ALL1        0.0000 
     45 O         -13.7060  -18.7560   21.8120 O.2       4 ALP1        0.0000 
     46 CA        -14.1275  -18.0195   27.4760 C.3       3 GLC5        0.0000 
     47 CA        -12.6240  -17.7600   26.1640 C.3       9 GLL5        0.0000 
     48 CA        -15.6310  -18.2790   28.7880 C.3       6 GLP5        0.0000 
     49 N         -13.5135  -13.9160   32.2960 N.am      2 SEC2        0.0000 
     50 N         -12.6670  -14.7910   31.5500 N.am      8 SEL2        0.0000 
     51 N         -14.3600  -13.0410   33.0420 N.am      5 SEP2        0.0000 
     52 CA        -13.5805  -12.9370   29.8880 C.3       3 GLC5        0.0000 
     53 CA        -13.1070  -14.2980   28.6810 C.3       9 GLL5        0.0000 
     54 CA        -14.0540  -11.5760   31.0950 C.3       6 GLP5        0.0000 
     55 CA        -14.4595  -16.7980   27.6250 C.3       3 GLC5        0.0000 
     56 CA        -13.2880  -15.3170   26.4620 C.3       9 GLL5        0.0000 
     57 CA         -7.4130  -25.9132   30.2993 C.3       3 GLC5        0.0000 
     58 CA         -8.3180  -25.0580   28.5140 C.3       9 GLL5        0.0000 
     59 CA         -6.9880  -26.2570   32.3790 C.3       6 GLP5        0.0000 
     60 CA         -5.8330  -28.0522   21.7125 C.3       3 GLC5        0.0000 
     61 CA         -5.3810  -27.3230   24.0560 C.3       9 GLL5        0.0000 
     62 CA         -7.2000  -26.4642   23.2527 C.3       3 GLC5        0.0000 
     63 CA         -8.4190  -25.5270   22.1100 C.3       6 GLP5        0.0000 
     64 CA         -5.0650  -26.3453   22.3995 C.3       3 GLC5        0.0000 
     65 CA         -4.9420  -24.8840   21.2000 C.3       6 GLP5        0.0000 
     66 CA         -9.7780  -19.4180   24.4385 C.3       3 GLC5        0.0000 
     67 CA        -11.1840  -19.4770   25.2770 C.3       9 GLL5        0.0000 
     68 CA         -8.2660  -20.1230   23.6000 C.3       6 GLP5        0.0000 
     69 CA        -14.0935  -17.1617   28.7973 C.3       3 GLC5        0.0000 
     70 CA        -12.4830  -16.5930   28.3820 C.3       9 GLL5        0.0000 
     71 CA        -13.0263  -13.8910   25.2190 C.3       3 GLC5        0.0000 
     72 CA        -12.6930  -13.0160   23.5490 C.3       6 GLP5        0.0000 
     73 CA        -15.3567  -14.8850   26.9970 C.3       3 GLC5        0.0000 
     74 CA        -17.3540  -15.0040   27.1050 C.3       6 GLP5        0.0000 
@<TRIPOS>BOND
@<TRIPOS>SUBSTRUCTURE
     1 ALC1       13 GROUP        1 X    ALC  0     ROOT ALC X 1
     2 SEC2        4 GROUP        1 X    SEC  0     **** SEC X 2
     3 GLC5        1 GROUP        1 X    GLC  0     **** GLC X 6
     4 ALP1       15 GROUP        1 Y    ALP  0     ROOT ALP Y 8
     5 SEP2        6 GROUP        1 Y    SEP  0     **** SEP Y 9
     6 GLP5        3 GROUP        1 Y    GLP  0     **** GLP Y 13
     7 ALL1       14 GROUP        1 Z    ALL  0     ROOT ALL Z 15
     8 SEL2        5 GROUP        1 Z    SEL  0     **** SEL Z 16
     9 GLL5        2 GROUP        1 Z    GLL  0     **** GLL Z 20
@<TRIPOS>SET

