#    Name: 2jjy_NAD_1_ligand
#    Modification time : Tue Mar 25 20:59:04 2014

@<TRIPOS>MOLECULE
2jjy_NAD_1_ligand
   70    74     1     0     0
SMALL
NO_CHARGES


@<TRIPOS>ATOM
      1 PA         -8.7530  -20.8010   29.1050 P.3       1 NAD1261     0.0000 
      2 O1A        -7.3740  -20.5010   29.9320 O.co2     1 NAD1261     0.0000 
      3 O2A        -8.8770  -19.8520   27.9640 O.co2     1 NAD1261     0.0000 
      4 O5B        -8.7120  -22.3800   28.7300 O.3       1 NAD1261     0.0000 
      5 C5B        -8.3570  -22.8440   27.4420 C.3       1 NAD1261     0.0000 
      6 C4B        -8.8190  -24.2730   27.2940 C.3       1 NAD1261     0.0000 
      7 O4B        -8.1240  -24.7890   26.1420 O.3       1 NAD1261     0.0000 
      8 C3B        -8.3180  -25.0580   28.5140 C.3       1 NAD1261     0.0000 
      9 O3B        -9.4190  -25.7220   29.1310 O.3       1 NAD1261     0.0000 
     10 C2B        -7.3580  -26.0810   27.9250 C.3       1 NAD1261     0.0000 
     11 O2B        -7.5480  -27.3340   28.5850 O.3       1 NAD1261     0.0000 
     12 C1B        -7.8050  -26.1450   26.4590 C.3       1 NAD1261     0.0000 
     13 N9A        -6.6970  -26.4270   25.5470 N.pl3     1 NAD1261     0.0000 
     14 C8A        -5.6290  -25.6460   25.3790 C.2       1 NAD1261     0.0000 
     15 N7A        -4.8210  -26.1910   24.4710 N.2       1 NAD1261     0.0000 
     16 C5A        -5.3810  -27.3230   24.0560 C.ar      1 NAD1261     0.0000 
     17 C6A        -4.9950  -28.2900   23.1420 C.ar      1 NAD1261     0.0000 
     18 N6A        -3.8400  -28.1460   22.4870 N.pl3     1 NAD1261     0.0000 
     19 N1A        -5.8040  -29.3510   22.9420 N.ar      1 NAD1261     0.0000 
     20 C2A        -6.9490  -29.4710   23.5990 C.ar      1 NAD1261     0.0000 
     21 N3A        -7.3430  -28.5650   24.4850 N.ar      1 NAD1261     0.0000 
     22 C4A        -6.5810  -27.4800   24.7350 C.ar      1 NAD1261     0.0000 
     23 O3        -10.0420  -20.7580   30.1770 O.3       1 NAD1261     0.0000 
     24 PN        -11.6740  -20.5870   29.8790 P.3       1 NAD1261     0.0000 
     25 O1N       -12.4030  -21.5130   30.7540 O.co2     1 NAD1261     0.0000 
     26 O2N       -11.9620  -19.1510   29.9870 O.co2     1 NAD1261     0.0000 
     27 O5D       -11.9890  -21.1840   28.4290 O.3       1 NAD1261     0.0000 
     28 C5D       -11.3150  -20.8790   27.1970 C.3       1 NAD1261     0.0000 
     29 C4D       -12.1460  -19.9840   26.3200 C.3       1 NAD1261     0.0000 
     30 O4D       -12.4400  -18.8340   27.1020 O.3       1 NAD1261     0.0000 
     31 C3D       -11.1840  -19.4770   25.2770 C.3       1 NAD1261     0.0000 
     32 O3D       -11.6130  -20.0840   24.0620 O.3       1 NAD1261     0.0000 
     33 C2D       -11.3960  -17.9490   25.2770 C.3       1 NAD1261     0.0000 
     34 O2D       -11.7710  -17.5150   23.9820 O.3       1 NAD1261     0.0000 
     35 C1D       -12.6240  -17.7600   26.1640 C.3       1 NAD1261     0.0000 
     36 N1N       -12.7950  -16.5270   26.9990 N.pl3     1 NAD1261     0.0000 
     37 C2N       -12.4830  -16.5930   28.3820 C.ar      1 NAD1261     0.0000 
     38 C3N       -12.6290  -15.4960   29.2310 C.ar      1 NAD1261     0.0000 
     39 C7N       -12.2890  -15.6300   30.7390 C.2       1 NAD1261     0.0000 
     40 O7N       -12.6670  -14.7910   31.5500 O.2       1 NAD1261     0.0000 
     41 N7N       -11.6080  -16.7140   31.1010 N.am      1 NAD1261     0.0000 
     42 C4N       -13.1070  -14.2980   28.6810 C.ar      1 NAD1261     0.0000 
     43 C5N       -13.4310  -14.2150   27.3160 C.ar      1 NAD1261     0.0000 
     44 C6N       -13.2880  -15.3170   26.4620 C.ar      1 NAD1261     0.0000 
     45 H          -7.2729  -22.8189   27.2825 H         1 NAD1261     0.0000 
     46 H          -8.8273  -22.2507   26.6494 H         1 NAD1261     0.0000 
     47 H          -9.8422  -24.3295   27.2169 H         1 NAD1261     0.0000 
     48 H          -7.7946  -24.4090   29.1431 H         1 NAD1261     0.0000 
     49 H          -6.3875  -25.7010   27.9713 H         1 NAD1261     0.0000 
     50 H          -8.6059  -26.7704   26.3391 H         1 NAD1261     0.0000 
     51 H          -5.4654  -24.8042   25.8497 H         1 NAD1261     0.0000 
     52 H          -3.1729  -28.8817   22.6045 H         1 NAD1261     0.0000 
     53 H          -3.7461  -27.3155   21.9379 H         1 NAD1261     0.0000 
     54 H          -7.5671  -30.3131   23.4121 H         1 NAD1261     0.0000 
     55 H         -11.0857  -21.8011   26.6332 H         1 NAD1261     0.0000 
     56 H         -10.3494  -20.3773   27.3885 H         1 NAD1261     0.0000 
     57 H         -12.9313  -20.4527   25.9158 H         1 NAD1261     0.0000 
     58 H         -10.2154  -19.7061   25.5600 H         1 NAD1261     0.0000 
     59 H         -10.5881  -17.4764   25.6928 H         1 NAD1261     0.0000 
     60 H         -13.5061  -17.9722   25.5927 H         1 NAD1261     0.0000 
     61 H         -12.1348  -17.4936   28.7651 H         1 NAD1261     0.0000 
     62 H         -11.3828  -17.3570   30.3690 H         1 NAD1261     0.0000 
     63 H         -11.3828  -16.7881   32.0725 H         1 NAD1261     0.0000 
     64 H         -13.2222  -13.4708   29.2814 H         1 NAD1261     0.0000 
     65 H         -13.7826  -13.3201   26.9348 H         1 NAD1261     0.0000 
     66 H         -13.5312  -15.2525   25.4814 H         1 NAD1261     0.0000 
     67 H          -9.1885  -26.6944   29.0938 H         1 NAD1261     0.0000 
     68 H          -6.6554  -27.5583   28.9762 H         1 NAD1261     0.0000 
     69 H         -10.8671  -20.6973   23.8018 H         1 NAD1261     0.0000 
     70 H         -11.9647  -18.3542   23.4739 H         1 NAD1261     0.0000 
@<TRIPOS>BOND
     1    2    1 ar   
     2    3    1 ar   
     3    4    1 1    
     4   23    1 1    
     5    5    4 1    
     6    6    5 1    
     7   45    5 1    
     8   46    5 1    
     9    7    6 1    
    10    8    6 1    
    11   47    6 1    
    12   12    7 1    
    13    9    8 1    
    14   10    8 1    
    15   48    8 1    
    16   67    9 1    
    17   11   10 1    
    18   12   10 1    
    19   49   10 1    
    20   68   11 1    
    21   13   12 1    
    22   50   12 1    
    23   14   13 1    
    24   22   13 1    
    25   15   14 2    
    26   51   14 1    
    27   16   15 1    
    28   17   16 ar   
    29   22   16 ar   
    30   18   17 1    
    31   19   17 ar   
    32   52   18 1    
    33   53   18 1    
    34   20   19 ar   
    35   21   20 ar   
    36   54   20 1    
    37   22   21 ar   
    38   24   23 1    
    39   25   24 ar   
    40   26   24 ar   
    41   27   24 1    
    42   28   27 1    
    43   29   28 1    
    44   55   28 1    
    45   56   28 1    
    46   30   29 1    
    47   31   29 1    
    48   57   29 1    
    49   35   30 1    
    50   32   31 1    
    51   33   31 1    
    52   58   31 1    
    53   69   32 1    
    54   34   33 1    
    55   35   33 1    
    56   59   33 1    
    57   70   34 1    
    58   36   35 1    
    59   60   35 1    
    60   37   36 ar   
    61   44   36 ar   
    62   38   37 ar   
    63   61   37 1    
    64   39   38 1    
    65   42   38 ar   
    66   40   39 2    
    67   41   39 am   
    68   62   41 1    
    69   63   41 1    
    70   43   42 ar   
    71   64   42 1    
    72   44   43 ar   
    73   65   43 1    
    74   66   44 1    
@<TRIPOS>SUBSTRUCTURE
     1 NAD1261     1 GROUP   
@<TRIPOS>SET

