#    Name: 3u2m_FAD_1_INTS_M
#    Modification time : Mon Mar 24 21:20:26 2014

@<TRIPOS>MOLECULE
3u2m_FAD_1_INTS_M
  102     0    12     0     0
SMALL
NO_CHARGES


@<TRIPOS>ATOM
      1 N          -8.0730  -26.9930    6.9935 N.am      2 SEC2        0.0000 
      2 N          -7.2400  -28.0830    6.4000 N.am     10 SEL2        0.0000 
      3 N          -8.9060  -25.9030    7.5870 N.am      6 SEP2        0.0000 
      4 CA         -9.0035  -28.5895   12.5800 C.3       4 GLC5        0.0000 
      5 CA         -8.6310  -29.7740   10.8300 C.3      12 GLL5        0.0000 
      6 CA         -9.3760  -27.4050   14.3300 C.3       8 GLP5        0.0000 
      7 CA        -12.9180  -30.2015   10.9875 C.3       4 GLC5        0.0000 
      8 CA        -10.9630  -30.4530   10.6330 C.3      12 GLL5        0.0000 
      9 CA        -14.8730  -29.9500   11.3420 C.3       8 GLP5        0.0000 
     10 N         -11.2715  -30.9255   13.3565 N.am      2 SEC2        0.0000 
     11 N         -11.1530  -31.1410   11.8700 N.am     10 SEL2        0.0000 
     12 N         -11.3900  -30.7100   14.8430 N.am      6 SEP2        0.0000 
     13 CA        -12.8180  -29.2195   10.4875 C.3       4 GLC5        0.0000 
     14 CA        -10.7940  -28.9600   10.9580 C.3      12 GLL5        0.0000 
     15 CA        -14.8420  -29.4790   10.0170 C.3       8 GLP5        0.0000 
     16 CA        -10.0850  -28.1825   12.6440 C.3       4 GLC5        0.0000 
     17 N         -12.1435  -27.0660    6.5685 N.am      2 SEC2        0.0000 
     18 N         -11.9940  -27.1630    8.0410 N.am     10 SEL2        0.0000 
     19 N         -12.2930  -26.9690    5.0960 N.am      6 SEP2        0.0000 
     20 CA        -14.7615  -24.2910    9.3880 C.3       4 GLC5        0.0000 
     21 CA        -13.2000  -25.2450    9.0810 C.3      12 GLL5        0.0000 
     22 CA        -16.3230  -23.3370    9.6950 C.3       8 GLP5        0.0000 
     23 O         -13.9465  -23.3095    7.6940 O.2       1 ALC1        0.0000 
     24 O         -13.5160  -24.6450    7.9710 O.2       9 ALL1        0.0000 
     25 O         -14.3770  -21.9740    7.4170 O.2       5 ALP1        0.0000 
     26 CA        -11.3365  -24.5450   11.9935 C.3       4 GLC5        0.0000 
     27 CA        -13.1320  -25.1650   11.4800 C.3      12 GLL5        0.0000 
     28 CA         -9.5410  -23.9250   12.5070 C.3       8 GLP5        0.0000 
     29 CA        -14.7275  -24.2510   10.5875 C.3       4 GLC5        0.0000 
     30 CA        -14.7205  -24.4320   12.3675 C.3       4 GLC5        0.0000 
     31 CA        -16.3090  -23.6990   13.2550 C.3       8 GLP5        0.0000 
     32 N         -12.0110  -26.3090   12.9115 N.am      2 SEC2        0.0000 
     33 N         -12.4060  -26.3260   11.4440 N.am     10 SEL2        0.0000 
     34 N         -11.6160  -26.2920   14.3790 N.am      6 SEP2        0.0000 
     35 CA        -10.7860  -25.4075   11.3710 C.3       4 GLC5        0.0000 
     36 CA        -12.0310  -26.8900   10.2350 C.3      12 GLL5        0.0000 
     37 N          -3.6300  -21.3580   -1.4555 N.am      2 SEC2        0.0000 
     38 N          -3.0510  -21.8340   -0.2950 N.am     10 SEL2        0.0000 
     39 N          -4.2090  -20.8820   -2.6160 N.am      6 SEP2        0.0000 
     40 CA         -1.5975  -21.5500    2.6815 C.3       4 GLC5        0.0000 
     41 CA         -3.3260  -22.0050    3.8420 C.3      12 GLL5        0.0000 
     42 CA          0.1310  -21.0950    1.5210 C.3       8 GLP5        0.0000 
     43 CA         -5.6475  -21.0265    3.7845 C.3       4 GLC5        0.0000 
     44 CA         -3.6570  -20.8940    4.6010 C.3      12 GLL5        0.0000 
     45 CA         -7.6380  -21.1590    2.9680 C.3       8 GLP5        0.0000 
     46 CA         -5.7275  -20.6545    6.9265 C.3       4 GLC5        0.0000 
     47 CA         -4.0760  -19.8190    6.8180 C.3      12 GLL5        0.0000 
     48 CA         -7.3790  -21.4900    7.0350 C.3       8 GLP5        0.0000 
     49 CA         -4.5800  -19.6240    8.9880 C.3       4 GLC5        0.0000 
     50 CA         -5.0840  -19.4290   11.1580 C.3       8 GLP5        0.0000 
     51 CA         -3.7170  -18.0730    6.3440 C.3       4 GLC5        0.0000 
     52 CA         -3.3580  -16.3270    5.8700 C.3       8 GLP5        0.0000 
     53 CA         -2.3810  -24.1835    8.0500 C.3       4 GLC5        0.0000 
     54 CA         -3.5520  -22.3780    8.1150 C.3      12 GLL5        0.0000 
     55 CA         -1.2100  -25.9890    7.9850 C.3       8 GLP5        0.0000 
     56 CA         -2.4110  -22.5555    9.5295 C.3       4 GLC5        0.0000 
     57 CA         -1.2700  -22.7330   10.9440 C.3       8 GLP5        0.0000 
     58 CA         -4.9915  -23.0040    7.7690 C.3       4 GLC5        0.0000 
     59 CA         -6.4310  -23.6300    7.4230 C.3       8 GLP5        0.0000 
     60 CA         -1.5225  -22.1090    7.5020 C.3       4 GLC5        0.0000 
     61 CA          0.5070  -21.8400    6.8890 C.3       8 GLP5        0.0000 
     62 CA         -2.1760  -24.6750    6.9190 C.3       4 GLC5        0.0000 
     63 CA         -3.1420  -23.3610    5.8530 C.3      12 GLL5        0.0000 
     64 CA         -1.8835  -25.8490    6.1510 C.3       4 GLC5        0.0000 
     65 CA         -2.5570  -25.7090    4.3170 C.3      12 GLL5        0.0000 
     66 CA         -5.2460  -24.9440    3.3050 C.3       4 GLC5        0.0000 
     67 CA         -3.9040  -26.4840    4.2270 C.3      12 GLL5        0.0000 
     68 CA         -6.5880  -23.4040    2.3830 C.3       8 GLP5        0.0000 
     69 CA         -4.6120  -26.7680    2.4735 C.3       4 GLC5        0.0000 
     70 CA         -5.3200  -27.0520    0.7200 C.3       8 GLP5        0.0000 
     71 N          -5.4345  -25.2605    5.8315 N.am      2 SEC2        0.0000 
     72 N          -5.0690  -25.6970    4.4480 N.am     10 SEL2        0.0000 
     73 N          -5.8000  -24.8240    7.2150 N.am      6 SEP2        0.0000 
     74 CA         -2.6640  -26.8370    6.5870 C.3       4 GLC5        0.0000 
     75 CA         -4.1180  -27.6850    5.1890 C.3      12 GLL5        0.0000 
     76 CA         -4.8985  -26.5760    6.8095 C.3       4 GLC5        0.0000 
     77 CA         -5.6790  -25.4670    8.4300 C.3       8 GLP5        0.0000 
     78 CA         -3.3440  -30.4770    7.4915 C.3       4 GLC5        0.0000 
     79 CA         -3.6530  -30.1990    5.5970 C.3      12 GLL5        0.0000 
     80 CA         -3.0350  -30.7550    9.3860 C.3       8 GLP5        0.0000 
     81 NZ         -6.7425  -32.0425    3.9930 N.4       3 LYC4        0.0000 
     82 NZ         -6.8190  -32.2380    5.4080 N.4      11 LYL4        0.0000 
     83 NZ         -6.6660  -31.8470    2.5780 N.4       7 LYP4        0.0000 
     84 N          -6.7425  -32.0425    3.9930 N.am      2 SEC2        0.0000 
     85 N          -6.8190  -32.2380    5.4080 N.am     10 SEL2        0.0000 
     86 N          -6.6660  -31.8470    2.5780 N.am      6 SEP2        0.0000 
     87 NZ         -3.8440  -32.8930    7.1600 N.4       3 LYC4        0.0000 
     88 NZ         -5.1740  -32.2260    7.2070 N.4      11 LYL4        0.0000 
     89 NZ         -1.5790  -33.4430    8.0570 N.4       7 LYP4        0.0000 
     90 N          -3.8440  -32.8930    7.1600 N.am      2 SEC2        0.0000 
     91 N          -5.1740  -32.2260    7.2070 N.am     10 SEL2        0.0000 
     92 N          -2.5140  -33.5600    7.1130 N.am      6 SEP2        0.0000 
     93 CA        -11.2559  -25.2086    8.7462 C.3       4 GLC5        0.0000 
     94 CA        -12.4330  -26.3600    9.0510 C.3      12 GLL5        0.0000 
     95 CA        -10.0880  -24.0710    7.8420 C.3       8 GLP5        0.0000 
     96 CA        -13.8419  -27.0151    8.9422 C.3       4 GLC5        0.0000 
     97 CA        -15.2600  -27.6840    8.2340 C.3       8 GLP5        0.0000 
     98 CA         -4.8920  -23.0130    3.2687 C.3       4 GLC5        0.0000 
     99 CA         -3.0660  -23.2390    4.4670 C.3      12 GLL5        0.0000 
    100 CA         -1.5955  -29.7373    5.2197 C.3       4 GLC5        0.0000 
    101 CA         -3.3050  -28.9360    4.7920 C.3      12 GLL5        0.0000 
    102 CA          0.2880  -29.9070    5.2450 C.3       8 GLP5        0.0000 
@<TRIPOS>BOND
@<TRIPOS>SUBSTRUCTURE
     1 ALC1       23 GROUP        1 X    ALC  0     ROOT ALC X 1
     2 SEC2        1 GROUP        1 X    SEC  0     **** SEC X 2
     3 LYC4       81 GROUP        1 X    LYC  0     **** LYC X 4
     4 GLC5        4 GROUP        1 X    GLC  0     **** GLC X 6
     5 ALP1       25 GROUP        1 Y    ALP  0     ROOT ALP Y 8
     6 SEP2        3 GROUP        1 Y    SEP  0     **** SEP Y 9
     7 LYP4       83 GROUP        1 Y    LYP  0     **** LYP Y 11
     8 GLP5        6 GROUP        1 Y    GLP  0     **** GLP Y 13
     9 ALL1       24 GROUP        1 Z    ALL  0     ROOT ALL Z 15
    10 SEL2        2 GROUP        1 Z    SEL  0     **** SEL Z 16
    11 LYL4       82 GROUP        1 Z    LYL  0     **** LYL Z 18
    12 GLL5        5 GROUP        1 Z    GLL  0     **** GLL Z 20
@<TRIPOS>SET

