#    Name: 3u2m_FAD_1_ligand
#    Modification time : Mon Mar 24 21:20:26 2014

@<TRIPOS>MOLECULE
3u2m_FAD_1_ligand
   84    89     1     0     0
SMALL
NO_CHARGES


@<TRIPOS>ATOM
      1 PA         -6.7970  -28.9340    7.5800 P.3       1 FAD301      0.0000 
      2 O1A        -5.3310  -28.7460    7.9960 O.co2     1 FAD301      0.0000 
      3 O2A        -7.2400  -28.0830    6.4000 O.co2     1 FAD301      0.0000 
      4 O5B        -7.8230  -28.8120    8.8350 O.3       1 FAD301      0.0000 
      5 C5B        -7.3870  -29.3660   10.0620 C.3       1 FAD301      0.0000 
      6 C4B        -8.6310  -29.7740   10.8300 C.3       1 FAD301      0.0000 
      7 O4B        -9.4090  -28.6430   11.0190 O.3       1 FAD301      0.0000 
      8 C3B        -9.5620  -30.7790   10.1260 C.3       1 FAD301      0.0000 
      9 O3B        -9.1490  -32.0530   10.4990 O.3       1 FAD301      0.0000 
     10 C2B       -10.9630  -30.4530   10.6330 C.3       1 FAD301      0.0000 
     11 O2B       -11.1530  -31.1410   11.8700 O.3       1 FAD301      0.0000 
     12 C1B       -10.7940  -28.9600   10.9580 C.3       1 FAD301      0.0000 
     13 N9A       -11.3820  -28.0500    9.9410 N.pl3     1 FAD301      0.0000 
     14 C8A       -11.3240  -28.2060    8.5730 C.2       1 FAD301      0.0000 
     15 N7A       -11.9940  -27.1630    8.0410 N.2       1 FAD301      0.0000 
     16 C5A       -12.4330  -26.3600    9.0510 C.ar      1 FAD301      0.0000 
     17 C6A       -13.2000  -25.2450    9.0810 C.ar      1 FAD301      0.0000 
     18 N6A       -13.5160  -24.6450    7.9710 N.pl3     1 FAD301      0.0000 
     19 N1A       -13.4890  -24.6040   10.2810 N.ar      1 FAD301      0.0000 
     20 C2A       -13.1320  -25.1650   11.4800 C.ar      1 FAD301      0.0000 
     21 N3A       -12.4060  -26.3260   11.4440 N.ar      1 FAD301      0.0000 
     22 C4A       -12.0310  -26.8900   10.2350 C.ar      1 FAD301      0.0000 
     23 N1         -2.3730  -25.3020    1.5940 N.2       1 FAD301      0.0000 
     24 C2         -2.2720  -25.2190    0.2150 C.2       1 FAD301      0.0000 
     25 O2         -1.9300  -26.2320   -0.4260 O.2       1 FAD301      0.0000 
     26 N3         -2.5190  -24.0160   -0.4070 N.am      1 FAD301      0.0000 
     27 C4         -2.8420  -22.9000    0.3040 C.2       1 FAD301      0.0000 
     28 O4         -3.0510  -21.8340   -0.2950 O.2       1 FAD301      0.0000 
     29 C4X        -2.9480  -22.9910    1.7060 C.2       1 FAD301      0.0000 
     30 N5         -3.2690  -21.8880    2.4620 N.2       1 FAD301      0.0000 
     31 C5X        -3.3260  -22.0050    3.8420 C.ar      1 FAD301      0.0000 
     32 C6         -3.6570  -20.8940    4.6010 C.ar      1 FAD301      0.0000 
     33 C7         -3.7280  -21.0190    5.9970 C.ar      1 FAD301      0.0000 
     34 C7M        -4.0760  -19.8190    6.8180 C.3       1 FAD301      0.0000 
     35 C8         -3.4760  -22.2560    6.6110 C.ar      1 FAD301      0.0000 
     36 C8M        -3.5520  -22.3780    8.1150 C.3       1 FAD301      0.0000 
     37 C9         -3.1420  -23.3610    5.8530 C.ar      1 FAD301      0.0000 
     38 C9A        -3.0660  -23.2390    4.4670 C.ar      1 FAD301      0.0000 
     39 N10        -2.7650  -24.3330    3.7060 N.pl3     1 FAD301      0.0000 
     40 C10        -2.6980  -24.1990    2.3340 C.2       1 FAD301      0.0000 
     41 C1'        -2.5570  -25.7090    4.3170 C.3       1 FAD301      0.0000 
     42 C2'        -3.9040  -26.4840    4.2270 C.3       1 FAD301      0.0000 
     43 O2'        -5.0690  -25.6970    4.4480 O.3       1 FAD301      0.0000 
     44 C3'        -4.1180  -27.6850    5.1890 C.3       1 FAD301      0.0000 
     45 O3'        -3.8430  -27.2480    6.4960 O.3       1 FAD301      0.0000 
     46 C4'        -3.3050  -28.9360    4.7920 C.3       1 FAD301      0.0000 
     47 O4'        -3.5250  -29.1120    3.3890 O.3       1 FAD301      0.0000 
     48 C5'        -3.6530  -30.1990    5.5970 C.3       1 FAD301      0.0000 
     49 O5'        -5.0390  -30.4100    5.3910 O.3       1 FAD301      0.0000 
     50 P          -5.9640  -31.3560    6.2870 P.3       1 FAD301      0.0000 
     51 O1P        -6.8190  -32.2380    5.4080 O.co2     1 FAD301      0.0000 
     52 O2P        -5.1740  -32.2260    7.2070 O.co2     1 FAD301      0.0000 
     53 O3P        -7.0120  -30.5040    7.2110 O.3       1 FAD301      0.0000 
     54 H          -6.8385  -28.6473   10.6663 H         1 FAD301      0.0000 
     55 H          -6.7737  -30.2525    9.9186 H         1 FAD301      0.0000 
     56 H          -8.3429  -30.1993   11.7806 H         1 FAD301      0.0000 
     57 H          -9.5123  -30.5855    9.0882 H         1 FAD301      0.0000 
     58 H         -11.6514  -30.5865    9.9170 H         1 FAD301      0.0000 
     59 H         -11.2584  -28.7660   11.9176 H         1 FAD301      0.0000 
     60 H         -10.8933  -28.9137    8.1130 H         1 FAD301      0.0000 
     61 H         -14.0657  -23.8144    8.0608 H         1 FAD301      0.0000 
     62 H         -13.1801  -25.0696    7.1302 H         1 FAD301      0.0000 
     63 H         -13.3968  -24.7344   12.3635 H         1 FAD301      0.0000 
     64 H          -2.4556  -23.9642   -1.4496 H         1 FAD301      0.0000 
     65 H          -3.8478  -19.9944    4.1590 H         1 FAD301      0.0000 
     66 H          -2.9512  -24.2630    6.2994 H         1 FAD301      0.0000 
     67 H          -2.2811  -25.6172    5.3517 H         1 FAD301      0.0000 
     68 H          -1.8106  -26.2506    3.7650 H         1 FAD301      0.0000 
     69 H          -3.9801  -26.9225    3.2007 H         1 FAD301      0.0000 
     70 H          -5.1904  -27.9515    5.0990 H         1 FAD301      0.0000 
     71 H          -2.2513  -28.6926    4.9670 H         1 FAD301      0.0000 
     72 H          -3.4112  -30.0060    6.6315 H         1 FAD301      0.0000 
     73 H          -3.0483  -31.0083    5.2159 H         1 FAD301      0.0000 
     74 H          -4.0993  -20.0314    7.7949 H         1 FAD301      0.0000 
     75 H          -3.4139  -19.0798    6.6945 H         1 FAD301      0.0000 
     76 H          -4.9741  -19.4515    6.5765 H         1 FAD301      0.0000 
     77 H          -3.3503  -23.3078    8.4229 H         1 FAD301      0.0000 
     78 H          -2.9008  -21.7708    8.5702 H         1 FAD301      0.0000 
     79 H          -4.4609  -22.1454    8.4610 H         1 FAD301      0.0000 
     80 H          -8.1510  -32.0007   10.5368 H         1 FAD301      0.0000 
     81 H         -10.5165  -31.9117   11.8378 H         1 FAD301      0.0000 
     82 H          -5.8335  -26.3352    4.3566 H         1 FAD301      0.0000 
     83 H          -4.6776  -27.4377    7.0131 H         1 FAD301      0.0000 
     84 H          -4.4154  -29.5621    3.3212 H         1 FAD301      0.0000 
@<TRIPOS>BOND
     1    2    1 ar   
     2    3    1 ar   
     3    4    1 1    
     4   53    1 1    
     5    5    4 1    
     6    6    5 1    
     7   54    5 1    
     8   55    5 1    
     9    7    6 1    
    10    8    6 1    
    11   56    6 1    
    12   12    7 1    
    13    9    8 1    
    14   10    8 1    
    15   57    8 1    
    16   80    9 1    
    17   11   10 1    
    18   12   10 1    
    19   58   10 1    
    20   81   11 1    
    21   13   12 1    
    22   59   12 1    
    23   14   13 1    
    24   22   13 1    
    25   15   14 2    
    26   60   14 1    
    27   16   15 1    
    28   17   16 ar   
    29   22   16 ar   
    30   18   17 1    
    31   19   17 ar   
    32   61   18 1    
    33   62   18 1    
    34   20   19 ar   
    35   21   20 ar   
    36   63   20 1    
    37   22   21 ar   
    38   24   23 1    
    39   40   23 2    
    40   25   24 2    
    41   26   24 am   
    42   27   26 am   
    43   64   26 1    
    44   28   27 2    
    45   29   27 1    
    46   30   29 2    
    47   40   29 1    
    48   31   30 1    
    49   32   31 ar   
    50   38   31 ar   
    51   33   32 ar   
    52   65   32 1    
    53   34   33 1    
    54   35   33 ar   
    55   74   34 1    
    56   75   34 1    
    57   76   34 1    
    58   36   35 1    
    59   37   35 ar   
    60   77   36 1    
    61   78   36 1    
    62   79   36 1    
    63   38   37 ar   
    64   66   37 1    
    65   39   38 1    
    66   40   39 1    
    67   41   39 1    
    68   42   41 1    
    69   67   41 1    
    70   68   41 1    
    71   43   42 1    
    72   44   42 1    
    73   69   42 1    
    74   82   43 1    
    75   45   44 1    
    76   46   44 1    
    77   70   44 1    
    78   83   45 1    
    79   47   46 1    
    80   48   46 1    
    81   71   46 1    
    82   84   47 1    
    83   49   48 1    
    84   72   48 1    
    85   73   48 1    
    86   50   49 1    
    87   51   50 ar   
    88   52   50 ar   
    89   53   50 1    
@<TRIPOS>SUBSTRUCTURE
     1 FAD301      1 GROUP   
@<TRIPOS>SET

