#    Name: 3qcj_NX4_1_INTS_M
#    Modification time : Tue Mar 25 09:37:22 2014

@<TRIPOS>MOLECULE
3qcj_NX4_1_INTS_M
   84     0     6     0     0
SMALL
NO_CHARGES


@<TRIPOS>ATOM
      1 CA         19.3845   31.1890   59.1225 C.3       2 GLC5        0.0000 
      2 CA         19.6480   29.6980   60.3490 C.3       6 GLL5        0.0000 
      3 CA         19.1210   32.6800   57.8960 C.3       4 GLP5        0.0000 
      4 CA         18.5910   31.3580   60.6925 C.3       2 GLC5        0.0000 
      5 CA         17.5340   33.0180   61.0360 C.3       4 GLP5        0.0000 
      6 CA         21.0715   29.6495   58.9570 C.3       2 GLC5        0.0000 
      7 CA         22.4950   29.6010   57.5650 C.3       4 GLP5        0.0000 
      8 CA         17.1685   30.7725   61.1360 C.3       2 GLC5        0.0000 
      9 CA         17.9580   29.0710   60.4460 C.3       6 GLL5        0.0000 
     10 CA         16.3790   32.4740   61.8260 C.3       4 GLP5        0.0000 
     11 CA         16.6765   27.8735   61.0420 C.3       2 GLC5        0.0000 
     12 CA         15.3950   26.6760   61.6380 C.3       4 GLP5        0.0000 
     13 CA         15.9520   29.8060   54.8700 C.3       2 GLC5        0.0000 
     14 CA         16.4440   29.0990   56.9100 C.3       6 GLL5        0.0000 
     15 CA         15.4600   30.5130   52.8300 C.3       4 GLP5        0.0000 
     16 CA         18.7695   25.7165   59.5625 C.3       2 GLC5        0.0000 
     17 CA         17.8030   27.1880   58.7120 C.3       6 GLL5        0.0000 
     18 CA         19.7360   24.2450   60.4130 C.3       4 GLP5        0.0000 
     19 CA         17.8765   28.0065   54.8055 C.3       2 GLC5        0.0000 
     20 CA         16.1480   27.1840   55.0320 C.3       6 GLL5        0.0000 
     21 CA         19.6050   28.8290   54.5790 C.3       4 GLP5        0.0000 
     22 CA         15.3520   28.9425   54.5265 C.3       2 GLC5        0.0000 
     23 CA         14.5560   30.7010   54.0210 C.3       4 GLP5        0.0000 
     24 CA         15.1050   26.5470   56.6155 C.3       2 GLC5        0.0000 
     25 CA         14.0620   25.9100   58.1990 C.3       4 GLP5        0.0000 
     26 CA         15.0705   26.7365   53.8485 C.3       2 GLC5        0.0000 
     27 CA         13.9930   26.2890   52.6650 C.3       4 GLP5        0.0000 
     28 CA         18.7665   25.6205   55.1100 C.3       2 GLC5        0.0000 
     29 CA         17.6260   25.1760   56.8270 C.3       6 GLL5        0.0000 
     30 CA         19.9070   26.0650   53.3930 C.3       4 GLP5        0.0000 
     31 CA         15.8440   25.5430   57.5130 C.3       2 GLC5        0.0000 
     32 CA         18.6810   24.7105   58.6200 C.3       2 GLC5        0.0000 
     33 CA         18.4460   23.7025   56.4645 C.3       2 GLC5        0.0000 
     34 CA         19.2660   22.2290   56.1020 C.3       4 GLP5        0.0000 
     35 CA         17.0115   23.8405   58.4105 C.3       2 GLC5        0.0000 
     36 CA         16.3970   22.5050   59.9940 C.3       4 GLP5        0.0000 
     37 N          22.1995   31.6680   59.0920 N.am      1 SEC2        0.0000 
     38 N          22.0430   31.2720   60.5350 N.am      5 SEL2        0.0000 
     39 N          22.3560   32.0640   57.6490 N.am      3 SEP2        0.0000 
     40 N          23.1215   30.0365   60.7645 N.am      1 SEC2        0.0000 
     41 N          24.2000   28.8010   60.9940 N.am      3 SEP2        0.0000 
     42 N          22.7975   32.9475   59.0805 N.am      1 SEC2        0.0000 
     43 N          23.2390   33.8310   60.5120 N.am      5 SEL2        0.0000 
     44 N          22.7735   34.0750   59.2995 N.am      1 SEC2        0.0000 
     45 N          22.3080   34.3190   58.0870 N.am      3 SEP2        0.0000 
     46 CA         20.6660   28.0435   64.4850 C.3       2 GLC5        0.0000 
     47 CA         19.5810   29.7160   64.4350 C.3       6 GLL5        0.0000 
     48 CA         21.7510   26.3710   64.5350 C.3       4 GLP5        0.0000 
     49 CA         19.7490   32.1640   63.1835 C.3       2 GLC5        0.0000 
     50 CA         21.0070   30.7640   64.3070 C.3       6 GLL5        0.0000 
     51 CA         18.4910   33.5640   62.0600 C.3       4 GLP5        0.0000 
     52 CA         22.0045   29.2615   63.5610 C.3       2 GLC5        0.0000 
     53 CA         23.0020   27.7590   62.8150 C.3       4 GLP5        0.0000 
     54 CA         28.8725   29.6530   61.6550 C.3       2 GLC5        0.0000 
     55 CA         27.8060   31.4170   61.2640 C.3       6 GLL5        0.0000 
     56 CA         29.9390   27.8890   62.0460 C.3       4 GLP5        0.0000 
     57 CA         30.0535   29.6145   61.9970 C.3       2 GLC5        0.0000 
     58 CA         30.1680   31.3400   61.9480 C.3       6 GLL5        0.0000 
     59 N          29.3640   29.3855   59.2470 N.am      1 SEC2        0.0000 
     60 N          28.2280   30.1740   58.6940 N.am      5 SEL2        0.0000 
     61 N          30.5000   28.5970   59.8000 N.am      3 SEP2        0.0000 
     62 N          25.2405   28.4525   58.1445 N.am      1 SEC2        0.0000 
     63 N          26.0930   29.6790   58.5200 N.am      5 SEL2        0.0000 
     64 N          24.3880   27.2260   57.7690 N.am      3 SEP2        0.0000 
     65 N          25.1465   29.2400   59.7570 N.am      1 SEC2        0.0000 
     66 CA         15.1666   28.6680   58.2820 C.3       2 GLC5        0.0000 
     67 CA         13.5050   28.2690   58.7860 C.3       4 GLP5        0.0000 
     68 CA         18.2869   28.2174   55.8290 C.3       2 GLC5        0.0000 
     69 CA         17.3640   26.7950   57.4210 C.3       6 GLL5        0.0000 
     70 CA         15.7401   26.5681   58.0256 C.3       2 GLC5        0.0000 
     71 CA         16.7030   27.7340   56.5640 C.3       6 GLL5        0.0000 
     72 CA         20.6265   32.5565   64.0775 C.3       2 GLC5        0.0000 
     73 CA         21.0510   30.7660   62.5450 C.3       6 GLL5        0.0000 
     74 CA         20.2240   34.3480   64.7290 C.3       4 GLP5        0.0000 
     75 CA         19.2404   31.7684   62.3811 C.3       2 GLC5        0.0000 
     76 CA         21.4959   28.8659   62.7586 C.3       2 GLC5        0.0000 
     77 CA         18.6227   27.9423   64.1877 C.3       2 GLC5        0.0000 
     78 CA         19.4580   29.5790   63.1320 C.3       6 GLL5        0.0000 
     79 CA         17.7260   26.2370   64.5920 C.3       4 GLP5        0.0000 
     80 CA         21.1810   29.9335   66.0040 C.3       2 GLC5        0.0000 
     81 CA         22.0680   29.6270   67.6370 C.3       4 GLP5        0.0000 
     82 CA         27.2314   30.8033   63.4038 C.3       2 GLC5        0.0000 
     83 CA         26.2660   32.8250   62.5120 C.3       6 GLL5        0.0000 
     84 CA         27.1040   29.6250   64.9440 C.3       4 GLP5        0.0000 
@<TRIPOS>BOND
@<TRIPOS>SUBSTRUCTURE
     1 SEC2       37 GROUP        1 X    SEC  0     ROOT SEC X 2
     2 GLC5        1 GROUP        1 X    GLC  0     **** GLC X 6
     3 SEP2       39 GROUP        1 Y    SEP  0     ROOT SEP Y 9
     4 GLP5        3 GROUP        1 Y    GLP  0     **** GLP Y 13
     5 SEL2       38 GROUP        1 Z    SEL  0     ROOT SEL Z 16
     6 GLL5        2 GROUP        1 Z    GLL  0     **** GLL Z 20
@<TRIPOS>SET

