#    Name: 3qcj_NX4_1_ligand
#    Modification time : Tue Mar 25 09:37:22 2014

@<TRIPOS>MOLECULE
3qcj_NX4_1_ligand
   46    48     1     0     0
SMALL
NO_CHARGES


@<TRIPOS>ATOM
      1 C1         19.9920   29.9670   62.0000 C.2       1 NX42001     0.0000 
      2 C2         21.9840   31.4990   61.7360 C.2       1 NX42001     0.0000 
      3 N3         22.6960   32.3920   62.4200 N.am      1 NX42001     0.0000 
      4 S4         19.6480   29.6980   60.3490 S.3       1 NX42001     0.0000 
      5 C5         17.9580   29.0710   60.4460 C.3       1 NX42001     0.0000 
      6 C6         17.5400   28.5720   59.0830 C.ar      1 NX42001     0.0000 
      7 C7         16.8850   29.4980   58.2090 C.ar      1 NX42001     0.0000 
      8 C8         16.4440   29.0990   56.9100 C.ar      1 NX42001     0.0000 
      9 C9         16.7030   27.7340   56.5640 C.ar      1 NX42001     0.0000 
     10 C10        17.3640   26.7950   57.4210 C.ar      1 NX42001     0.0000 
     11 C11        17.8030   27.1880   58.7120 C.ar      1 NX42001     0.0000 
     12 CL12       16.1480   27.1840   55.0320 Cl        1 NX42001     0.0000 
     13 CL13       17.6260   25.1760   56.8270 Cl        1 NX42001     0.0000 
     14 O14        22.0430   31.2720   60.5350 O.2       1 NX42001     0.0000 
     15 S15        23.7770   33.3380   61.7590 S.o2      1 NX42001     0.0000 
     16 O16        24.0770   34.2810   62.7960 O.2       1 NX42001     0.0000 
     17 O17        23.2390   33.8310   60.5120 O.2       1 NX42001     0.0000 
     18 C18        21.0510   30.7660   62.5450 C.2       1 NX42001     0.0000 
     19 C19        19.4580   29.5790   63.1320 C.2       1 NX42001     0.0000 
     20 C20        19.5810   29.7160   64.4350 C.2       1 NX42001     0.0000 
     21 S21        21.0070   30.7640   64.3070 S.3       1 NX42001     0.0000 
     22 C22        25.2850   32.5450   61.5070 C.ar      1 NX42001     0.0000 
     23 C23        26.2660   32.8250   62.5120 C.ar      1 NX42001     0.0000 
     24 C24        27.5570   32.2670   62.4140 C.ar      1 NX42001     0.0000 
     25 C25        27.8060   31.4170   61.2640 C.ar      1 NX42001     0.0000 
     26 C26        26.7800   31.1420   60.2490 C.ar      1 NX42001     0.0000 
     27 C27        25.4610   31.7230   60.3610 C.ar      1 NX42001     0.0000 
     28 O28        29.0860   30.8410   61.1170 O.3       1 NX42001     0.0000 
     29 C29        30.1680   31.3400   61.9480 C.3       1 NX42001     0.0000 
     30 C30        27.0440   30.2730   59.0800 C.2       1 NX42001     0.0000 
     31 O31        28.2280   30.1740   58.6940 O.co2     1 NX42001     0.0000 
     32 O32        26.0930   29.6790   58.5200 O.co2     1 NX42001     0.0000 
     33 H          22.6122   32.5528   63.4421 H         1 NX42001     0.0000 
     34 H          17.4188   29.9205   60.7794 H         1 NX42001     0.0000 
     35 H          18.0394   28.3095   61.1789 H         1 NX42001     0.0000 
     36 H          16.7311   30.4596   58.5208 H         1 NX42001     0.0000 
     37 H          15.9932   29.7184   56.2944 H         1 NX42001     0.0000 
     38 H          18.2595   26.5759   59.3330 H         1 NX42001     0.0000 
     39 H          18.5333   28.8404   62.9012 H         1 NX42001     0.0000 
     40 H          19.3292   29.5573   65.1994 H         1 NX42001     0.0000 
     41 H          26.0211   33.4292   63.2948 H         1 NX42001     0.0000 
     42 H          28.2677   32.4333   63.0815 H         1 NX42001     0.0000 
     43 H          24.7642   31.5584   59.7038 H         1 NX42001     0.0000 
     44 H          31.0285   30.8660   61.7614 H         1 NX42001     0.0000 
     45 H          30.3320   32.3150   61.7982 H         1 NX42001     0.0000 
     46 H          29.9733   31.2217   62.9217 H         1 NX42001     0.0000 
@<TRIPOS>BOND
     1    4    1 1    
     2   18    1 2    
     3   19    1 1    
     4    3    2 am   
     5   14    2 2    
     6   18    2 1    
     7   15    3 1    
     8   33    3 1    
     9    5    4 1    
    10    6    5 1    
    11   34    5 1    
    12   35    5 1    
    13    7    6 ar   
    14   11    6 ar   
    15    8    7 ar   
    16   36    7 1    
    17    9    8 ar   
    18   37    8 1    
    19   10    9 ar   
    20   12    9 1    
    21   11   10 ar   
    22   13   10 1    
    23   38   11 1    
    24   16   15 2    
    25   17   15 2    
    26   22   15 1    
    27   21   18 1    
    28   20   19 2    
    29   39   19 1    
    30   21   20 1    
    31   40   20 1    
    32   23   22 ar   
    33   27   22 ar   
    34   24   23 ar   
    35   41   23 1    
    36   25   24 ar   
    37   42   24 1    
    38   26   25 ar   
    39   28   25 1    
    40   27   26 ar   
    41   30   26 1    
    42   43   27 1    
    43   29   28 1    
    44   44   29 1    
    45   45   29 1    
    46   46   29 1    
    47   31   30 ar   
    48   32   30 ar   
@<TRIPOS>SUBSTRUCTURE
     1 NX42001     1 GROUP   
@<TRIPOS>SET

