#    Name: 1n6b_DMZ_1_INTS_M
#    Modification time : Mon Mar 24 17:44:53 2014

@<TRIPOS>MOLECULE
1n6b_DMZ_1_INTS_M
   37     0     3     0     0
SMALL
NO_CHARGES


@<TRIPOS>ATOM
      1 CA         -9.8005  -14.9325  -31.5580 C.3       1 GLC5        0.0000 
      2 CA         -8.9390  -14.6240  -29.6390 C.3       3 GLL5        0.0000 
      3 CA        -10.6620  -15.2410  -33.4770 C.3       2 GLP5        0.0000 
      4 CA         -9.5795  -14.9370  -27.5560 C.3       1 GLC5        0.0000 
      5 CA        -10.2200  -15.2500  -25.4730 C.3       2 GLP5        0.0000 
      6 CA        -12.4460  -10.5805  -29.3305 C.3       1 GLC5        0.0000 
      7 CA        -11.4800  -10.1510  -31.2330 C.3       3 GLL5        0.0000 
      8 CA        -13.4120  -11.0100  -27.4280 C.3       2 GLP5        0.0000 
      9 CA         -6.4840  -10.8825  -31.6145 C.3       1 GLC5        0.0000 
     10 CA         -8.1910  -10.5710  -32.4630 C.3       3 GLL5        0.0000 
     11 CA         -4.7770  -11.1940  -30.7660 C.3       2 GLP5        0.0000 
     12 CA         -9.9745   -6.0830  -35.7065 C.3       1 GLC5        0.0000 
     13 CA        -10.5250   -6.7460  -33.6730 C.3       3 GLL5        0.0000 
     14 CA         -9.4240   -5.4200  -37.7400 C.3       2 GLP5        0.0000 
     15 CA        -13.3598  -13.4695  -29.4680 C.3       1 GLC5        0.0000 
     16 CA        -11.1100  -12.8270  -29.4250 C.3       3 GLL5        0.0000 
     17 CA        -15.4930  -13.4180  -29.4650 C.3       2 GLP5        0.0000 
     18 CA        -11.3329  -15.6800  -31.2879 C.3       1 GLC5        0.0000 
     19 CA        -11.3430  -14.2150  -29.5170 C.3       3 GLL5        0.0000 
     20 CA        -12.0030  -15.7120  -32.9320 C.3       2 GLP5        0.0000 
     21 CA        -11.5209  -15.8205  -28.0179 C.3       1 GLC5        0.0000 
     22 CA        -10.5220  -16.6200  -29.7170 C.3       3 GLL5        0.0000 
     23 CA        -12.3790  -15.9930  -26.3920 C.3       2 GLP5        0.0000 
     24 CA         -9.3860  -11.0233  -33.6700 C.3       1 GLC5        0.0000 
     25 CA         -9.1630   -9.7340  -31.8950 C.3       3 GLL5        0.0000 
     26 CA        -10.0950  -11.8940  -35.1610 C.3       2 GLP5        0.0000 
     27 CA         -8.0575   -6.1818  -32.6815 C.3       1 GLC5        0.0000 
     28 CA         -9.8610   -7.2880  -32.5330 C.3       3 GLL5        0.0000 
     29 CA         -6.2180   -5.4130  -33.4560 C.3       2 GLP5        0.0000 
     30 CA        -11.5612   -5.7314  -30.0041 C.3       1 GLC5        0.0000 
     31 CA         -9.9330   -6.6130  -31.2810 C.3       3 GLL5        0.0000 
     32 CA        -12.3110   -6.0210  -28.2370 C.3       2 GLP5        0.0000 
     33 CA        -13.0035   -4.1138  -32.8450 C.3       1 GLC5        0.0000 
     34 CA        -11.3240   -4.8720  -32.3110 C.3       3 GLL5        0.0000 
     35 CA        -14.7180   -3.0210  -32.7570 C.3       2 GLP5        0.0000 
     36 CA        -11.5380   -3.4897  -33.7965 C.3       1 GLC5        0.0000 
     37 CA        -11.7870   -1.7730  -34.6600 C.3       2 GLP5        0.0000 
@<TRIPOS>BOND
@<TRIPOS>SUBSTRUCTURE
     1 GLC5        1 GROUP        1 X    GLC  0     ROOT GLC X 6
     2 GLP5        3 GROUP        1 Y    GLP  0     ROOT GLP Y 13
     3 GLL5        2 GROUP        1 Z    GLL  0     ROOT GLL Z 20
@<TRIPOS>SET

