#    Name: 1n6b_DMZ_1_ligand
#    Modification time : Mon Mar 24 17:44:53 2014

@<TRIPOS>MOLECULE
1n6b_DMZ_1_ligand
   40    42     1     0     0
SMALL
NO_CHARGES


@<TRIPOS>ATOM
      1 C18       -11.3430  -14.2150  -29.5170 C.ar      1 DMZ501      0.0000 
      2 C19       -10.2640  -15.1370  -29.6240 C.ar      1 DMZ501      0.0000 
      3 C20        -8.9390  -14.6240  -29.6390 C.ar      1 DMZ501      0.0000 
      4 C21        -8.7010  -13.2360  -29.5470 C.ar      1 DMZ501      0.0000 
      5 C16        -9.7840  -12.3300  -29.4400 C.ar      1 DMZ501      0.0000 
      6 C17       -11.1100  -12.8270  -29.4250 C.ar      1 DMZ501      0.0000 
      7 C41       -10.5220  -16.6200  -29.7170 C.3       1 DMZ501      0.0000 
      8 S2         -9.4850  -10.5840  -29.3170 S.o2      1 DMZ501      0.0000 
      9 O3        -10.3000   -9.9990  -28.1690 O.2       1 DMZ501      0.0000 
     10 O4         -7.9950  -10.2810  -29.1950 O.2       1 DMZ501      0.0000 
     11 N6        -10.0780   -9.8950  -30.8190 N.pl3     1 DMZ501      0.0000 
     12 C31       -11.4800  -10.1510  -31.2330 C.3       1 DMZ501      0.0000 
     13 C22        -9.1630   -9.7340  -31.8950 C.2       1 DMZ501      0.0000 
     14 C23        -8.1910  -10.5710  -32.4630 C.2       1 DMZ501      0.0000 
     15 C24        -7.6030   -9.8060  -33.5320 C.2       1 DMZ501      0.0000 
     16 N7         -8.1770   -8.5840  -33.6100 N.2       1 DMZ501      0.0000 
     17 N8         -9.1090   -8.5180  -32.6440 N.pl3     1 DMZ501      0.0000 
     18 C25        -9.8610   -7.2880  -32.5330 C.ar      1 DMZ501      0.0000 
     19 C30        -9.9330   -6.6130  -31.2810 C.ar      1 DMZ501      0.0000 
     20 C29       -10.6650   -5.4100  -31.1820 C.ar      1 DMZ501      0.0000 
     21 C28       -11.3240   -4.8720  -32.3110 C.ar      1 DMZ501      0.0000 
     22 C27       -11.2540   -5.5410  -33.5550 C.ar      1 DMZ501      0.0000 
     23 C26       -10.5250   -6.7460  -33.6730 C.ar      1 DMZ501      0.0000 
     24 H         -12.3065  -14.5723  -29.5071 H         1 DMZ501      0.0000 
     25 H          -8.1494  -15.2733  -29.7177 H         1 DMZ501      0.0000 
     26 H          -7.7418  -12.8804  -29.5575 H         1 DMZ501      0.0000 
     27 H         -11.8946  -12.1792  -29.3476 H         1 DMZ501      0.0000 
     28 H          -7.9618  -11.4266  -32.2214 H         1 DMZ501      0.0000 
     29 H          -6.9010  -10.1588  -34.0870 H         1 DMZ501      0.0000 
     30 H          -9.4598   -6.9984  -30.4696 H         1 DMZ501      0.0000 
     31 H         -10.7198   -4.9207  -30.2822 H         1 DMZ501      0.0000 
     32 H         -11.8499   -4.0016  -32.2287 H         1 DMZ501      0.0000 
     33 H         -11.7317   -5.1520  -34.3700 H         1 DMZ501      0.0000 
     34 H         -10.4705   -7.2299  -34.5662 H         1 DMZ501      0.0000 
     35 H          -9.6715  -17.1412  -29.7876 H         1 DMZ501      0.0000 
     36 H         -11.0102  -16.9631  -28.9145 H         1 DMZ501      0.0000 
     37 H         -11.0749  -16.8513  -30.5175 H         1 DMZ501      0.0000 
     38 H         -11.6984   -9.7046  -32.1008 H         1 DMZ501      0.0000 
     39 H         -11.6596  -11.1275  -31.3523 H         1 DMZ501      0.0000 
     40 H         -12.1345   -9.8131  -30.5567 H         1 DMZ501      0.0000 
@<TRIPOS>BOND
     1    2    1 ar   
     2    6    1 ar   
     3   24    1 1    
     4    3    2 ar   
     5    7    2 1    
     6    4    3 ar   
     7   25    3 1    
     8    5    4 ar   
     9   26    4 1    
    10    6    5 ar   
    11    8    5 1    
    12   27    6 1    
    13   35    7 1    
    14   36    7 1    
    15   37    7 1    
    16    9    8 2    
    17   10    8 2    
    18   11    8 1    
    19   12   11 1    
    20   13   11 1    
    21   38   12 1    
    22   39   12 1    
    23   40   12 1    
    24   14   13 2    
    25   17   13 1    
    26   15   14 1    
    27   28   14 1    
    28   16   15 2    
    29   29   15 1    
    30   17   16 1    
    31   18   17 1    
    32   19   18 ar   
    33   23   18 ar   
    34   20   19 ar   
    35   30   19 1    
    36   21   20 ar   
    37   31   20 1    
    38   22   21 ar   
    39   32   21 1    
    40   23   22 ar   
    41   33   22 1    
    42   34   23 1    
@<TRIPOS>SUBSTRUCTURE
     1 DMZ501      1 GROUP   
@<TRIPOS>SET

