#    Name: 3qwh_KMP_3_INTS_M
#    Modification time : Tue Mar 25 10:18:35 2014

@<TRIPOS>MOLECULE
3qwh_KMP_3_INTS_M
   34     0     6     0     0
SMALL
NO_CHARGES


@<TRIPOS>ATOM
      1 CA         14.2055   -3.2320    7.3470 C.3       2 GLC5        0.0000 
      2 CA         15.1280   -2.9160    5.3430 C.3       6 GLL5        0.0000 
      3 CA         13.2830   -3.5480    9.3510 C.3       4 GLP5        0.0000 
      4 CA         17.4120   -6.0255    1.5190 C.3       2 GLC5        0.0000 
      5 CA         16.9280   -7.0100    3.0530 C.3       6 GLL5        0.0000 
      6 CA         17.8960   -5.0410   -0.0150 C.3       4 GLP5        0.0000 
      7 CA         17.1965   -7.2590    4.7640 C.3       2 GLC5        0.0000 
      8 CA         17.4650   -7.5080    6.4750 C.3       4 GLP5        0.0000 
      9 O          13.1625   -2.0305    6.0205 O.2       1 ALC1        0.0000 
     10 O          14.4010   -1.9740    6.0220 O.2       5 ALL1        0.0000 
     11 O          11.9240   -2.0870    6.0190 O.2       3 ALP1        0.0000 
     12 CA         15.7550   -3.1310    2.8725 C.3       2 GLC5        0.0000 
     13 CA         16.4430   -2.6160    5.0010 C.3       6 GLL5        0.0000 
     14 CA         14.6790   -3.1860    1.0890 C.3       4 GLP5        0.0000 
     15 CA         15.3480   -4.0607    2.6052 C.3       2 GLC5        0.0000 
     16 CA         16.6790   -4.7780    3.9500 C.3       6 GLL5        0.0000 
     17 CA         14.7670   -3.3595    3.1250 C.3       2 GLC5        0.0000 
     18 CA         14.5820   -4.1500    4.9790 C.3       6 GLL5        0.0000 
     19 CA         16.1330   -7.8580    1.1575 C.3       2 GLC5        0.0000 
     20 CA         15.5760   -7.2760    3.3650 C.3       6 GLL5        0.0000 
     21 CA         16.0140   -8.5730   -0.8940 C.3       4 GLP5        0.0000 
     22 CA         15.6810   -8.8233    0.9920 C.3       2 GLC5        0.0000 
     23 CA         14.9840   -8.5300    3.1250 C.3       6 GLL5        0.0000 
     24 CA         16.3615   -8.8620    4.5290 C.3       2 GLC5        0.0000 
     25 CA         15.7120   -9.6170    2.6310 C.3       6 GLL5        0.0000 
     26 CA         17.2270   -8.9640    6.1200 C.3       4 GLP5        0.0000 
     27 CA         16.9055  -11.4307    3.1190 C.3       2 GLC5        0.0000 
     28 CA         18.3990  -12.6230    3.7150 C.3       4 GLP5        0.0000 
     29 CA         14.7250  -10.3170    0.7312 C.3       2 GLC5        0.0000 
     30 CA         15.1120  -10.8600    2.4150 C.3       6 GLL5        0.0000 
     31 CA         15.0160   -9.6830   -1.0960 C.3       4 GLP5        0.0000 
     32 CA         12.0804   -9.4938    1.7914 C.3       2 GLC5        0.0000 
     33 CA         13.7560  -11.0420    2.7020 C.3       6 GLL5        0.0000 
     34 CA         10.6540   -9.3770    0.3950 C.3       4 GLP5        0.0000 
@<TRIPOS>BOND
@<TRIPOS>SUBSTRUCTURE
     1 ALC1        9 GROUP        1 X    ALC  0     ROOT ALC X 1
     2 GLC5        1 GROUP        1 X    GLC  0     **** GLC X 6
     3 ALP1       11 GROUP        1 Y    ALP  0     ROOT ALP Y 8
     4 GLP5        3 GROUP        1 Y    GLP  0     **** GLP Y 13
     5 ALL1       10 GROUP        1 Z    ALL  0     ROOT ALL Z 15
     6 GLL5        2 GROUP        1 Z    GLL  0     **** GLL Z 20
@<TRIPOS>SET

