#    Name: 3qwh_KMP_3_ligand
#    Modification time : Tue Mar 25 10:18:35 2014

@<TRIPOS>MOLECULE
3qwh_KMP_3_ligand
   31    33     1     0     0
SMALL
NO_CHARGES


@<TRIPOS>ATOM
      1 C1         16.4430   -2.6160    5.0010 C.ar      1 KMP272      0.0000 
      2 C2         17.2190   -3.5360    4.3110 C.ar      1 KMP272      0.0000 
      3 C3         16.6790   -4.7780    3.9500 C.ar      1 KMP272      0.0000 
      4 C4         15.3550   -5.0930    4.2930 C.ar      1 KMP272      0.0000 
      5 C5         14.5820   -4.1500    4.9790 C.ar      1 KMP272      0.0000 
      6 C6         15.1280   -2.9160    5.3430 C.ar      1 KMP272      0.0000 
      7 C9         17.4580   -5.7340    3.2930 C.2       1 KMP272      0.0000 
      8 C10        16.9280   -7.0100    3.0530 C.2       1 KMP272      0.0000 
      9 C11        15.5760   -7.2760    3.3650 C.2       1 KMP272      0.0000 
     10 C14        14.9840   -8.5300    3.1250 C.ar      1 KMP272      0.0000 
     11 C15        15.7120   -9.6170    2.6310 C.ar      1 KMP272      0.0000 
     12 C16        15.1120  -10.8600    2.4150 C.ar      1 KMP272      0.0000 
     13 C17        13.7560  -11.0420    2.7020 C.ar      1 KMP272      0.0000 
     14 C18        13.0170   -9.9640    3.2090 C.ar      1 KMP272      0.0000 
     15 C19        13.6270   -8.7180    3.4200 C.ar      1 KMP272      0.0000 
     16 O12        14.7930   -6.3080    3.9590 O.3       1 KMP272      0.0000 
     17 O13        18.6530   -5.5180    3.0600 O.2       1 KMP272      0.0000 
     18 O24        13.1580  -12.2560    2.4830 O.3       1 KMP272      0.0000 
     19 O27        17.7440   -7.9560    2.4730 O.3       1 KMP272      0.0000 
     20 O29        14.4010   -1.9740    6.0220 O.3       1 KMP272      0.0000 
     21 O30        18.5060   -3.2000    4.0100 O.3       1 KMP272      0.0000 
     22 H          16.8426   -1.7011    5.2636 H         1 KMP272      0.0000 
     23 H          13.6048   -4.3670    5.2169 H         1 KMP272      0.0000 
     24 H          16.7198   -9.4971    2.4205 H         1 KMP272      0.0000 
     25 H          15.6668  -11.6403    2.0454 H         1 KMP272      0.0000 
     26 H          12.0201  -10.0866    3.4282 H         1 KMP272      0.0000 
     27 H          13.0728   -7.9368    3.7943 H         1 KMP272      0.0000 
     28 H          13.3020  -12.4438    1.5114 H         1 KMP272      0.0000 
     29 H          18.6570   -7.5481    2.4780 H         1 KMP272      0.0000 
     30 H          13.5497   -2.4351    6.2721 H         1 KMP272      0.0000 
     31 H          18.8867   -4.0092    3.5624 H         1 KMP272      0.0000 
@<TRIPOS>BOND
     1    2    1 ar   
     2    6    1 ar   
     3   22    1 1    
     4    3    2 ar   
     5   21    2 1    
     6    4    3 ar   
     7    7    3 1    
     8    5    4 ar   
     9   16    4 1    
    10    6    5 ar   
    11   23    5 1    
    12   20    6 1    
    13    8    7 1    
    14   17    7 2    
    15    9    8 2    
    16   19    8 1    
    17   10    9 1    
    18   16    9 1    
    19   11   10 ar   
    20   15   10 ar   
    21   12   11 ar   
    22   24   11 1    
    23   13   12 ar   
    24   25   12 1    
    25   14   13 ar   
    26   18   13 1    
    27   15   14 ar   
    28   26   14 1    
    29   27   15 1    
    30   28   18 1    
    31   29   19 1    
    32   30   20 1    
    33   31   21 1    
@<TRIPOS>SUBSTRUCTURE
     1 KMP272      1 GROUP   
@<TRIPOS>SET

