#    Name: 1oiq_HDU_1_INTS_M
#    Modification time : Mon Mar 24 20:12:22 2014

@<TRIPOS>MOLECULE
1oiq_HDU_1_INTS_M
   53     0     9     0     0
SMALL
NO_CHARGES


@<TRIPOS>ATOM
      1 CA          9.9550  -13.0210   11.7685 C.3       3 GLC5        0.0000 
      2 CA          9.1160  -11.1830   10.8190 C.3       9 GLL5        0.0000 
      3 CA         10.7940  -14.8590   12.7180 C.3       6 GLP5        0.0000 
      4 CA          7.1545  -10.5625   11.2635 C.3       3 GLC5        0.0000 
      5 CA          5.1930   -9.9420   11.7080 C.3       6 GLP5        0.0000 
      6 O           9.6915  -11.5035   13.2290 O.2       1 ALC1        0.0000 
      7 O          10.7340  -10.9250   12.6190 O.2       7 ALL1        0.0000 
      8 O           8.6490  -12.0820   13.8390 O.2       4 ALP1        0.0000 
      9 CA         12.6860  -11.9680   12.0355 C.3       3 GLC5        0.0000 
     10 CA         11.9030  -10.3940   13.2890 C.3       9 GLL5        0.0000 
     11 CA         13.4690  -13.5420   10.7820 C.3       6 GLP5        0.0000 
     12 CA         13.6385  -11.5780   13.7925 C.3       3 GLC5        0.0000 
     13 CA         15.3740  -12.7620   14.2960 C.3       6 GLP5        0.0000 
     14 CA         11.5760   -8.8960   14.2275 C.3       3 GLC5        0.0000 
     15 CA         11.2490   -7.3980   15.1660 C.3       6 GLP5        0.0000 
     16 N          11.0480  -11.5015   15.4765 N.am      2 SEC2        0.0000 
     17 N          12.1840  -10.6980   14.6630 N.am      8 SEL2        0.0000 
     18 N           9.9120  -12.3050   16.2900 N.am      5 SEP2        0.0000 
     19 CA         12.5540  -11.8995   16.0950 C.3       3 GLC5        0.0000 
     20 CA         13.2600  -10.1780   15.2460 C.3       9 GLL5        0.0000 
     21 CA         11.8480  -13.6210   16.9440 C.3       6 GLP5        0.0000 
     22 CA         15.6255   -9.9580   16.0300 C.3       3 GLC5        0.0000 
     23 CA         14.0960   -9.3960   14.5860 C.3       9 GLL5        0.0000 
     24 CA         17.1550  -10.5200   17.4740 C.3       6 GLP5        0.0000 
     25 CA         17.7605   -6.9395   11.2710 C.3       3 GLC5        0.0000 
     26 CA         15.6850   -6.6890   11.0130 C.3       9 GLL5        0.0000 
     27 CA         19.8360   -7.1900   11.5290 C.3       6 GLP5        0.0000 
     28 N          17.9745   -6.2880   11.9515 N.am      2 SEC2        0.0000 
     29 N          16.6130   -6.7830   12.0620 N.am      8 SEL2        0.0000 
     30 N          19.3360   -5.7930   11.8410 N.am      5 SEP2        0.0000 
     31 CA         15.0990   -6.0760   14.1415 C.3       3 GLC5        0.0000 
     32 CA         16.1650   -7.6280   13.0200 C.3       9 GLL5        0.0000 
     33 CA         14.0330   -4.5240   15.2630 C.3       6 GLP5        0.0000 
     34 CA         17.9500   -8.6135   15.2280 C.3       3 GLC5        0.0000 
     35 CA         16.9440   -7.9520   14.2620 C.3       9 GLL5        0.0000 
     36 CA         18.9560   -9.2750   16.1940 C.3       6 GLP5        0.0000 
     37 CA         13.4005   -9.4485    9.5995 C.3       3 GLC5        0.0000 
     38 CA         13.5550   -7.5600   10.4250 C.3       9 GLL5        0.0000 
     39 CA         13.2460  -11.3370    8.7740 C.3       6 GLP5        0.0000 
     40 CA         11.8135   -7.1970   11.7225 C.3       3 GLC5        0.0000 
     41 CA         10.0720   -6.8340   13.0200 C.3       6 GLP5        0.0000 
     42 CA         13.8485   -8.9205   16.6845 C.3       3 GLC5        0.0000 
     43 CA         14.0190   -8.0540   18.4530 C.3       6 GLP5        0.0000 
     44 CA         12.4635   -8.5925   15.0410 C.3       3 GLC5        0.0000 
     45 CA         14.5820  -11.0977   14.1982 C.3       3 GLC5        0.0000 
     46 CA         12.8100   -8.0065   14.0460 C.3       3 GLC5        0.0000 
     47 CA         13.9020   -9.0800   13.2850 C.3       9 GLL5        0.0000 
     48 CA         16.2933   -9.4455   11.7203 C.3       3 GLC5        0.0000 
     49 CA         14.8400   -8.1500   12.5670 C.3       9 GLL5        0.0000 
     50 CA         17.0840  -11.0020   10.6470 C.3       6 GLP5        0.0000 
     51 CA         16.9510   -7.7680    9.8912 C.3       3 GLC5        0.0000 
     52 CA         18.2040   -9.2180    9.3590 C.3       6 GLP5        0.0000 
     53 CA         18.1953   -7.4900   12.5850 C.3       3 GLC5        0.0000 
@<TRIPOS>BOND
@<TRIPOS>SUBSTRUCTURE
     1 ALC1        6 GROUP        1 X    ALC  0     ROOT ALC X 1
     2 SEC2       16 GROUP        1 X    SEC  0     **** SEC X 2
     3 GLC5        1 GROUP        1 X    GLC  0     **** GLC X 6
     4 ALP1        8 GROUP        1 Y    ALP  0     ROOT ALP Y 8
     5 SEP2       18 GROUP        1 Y    SEP  0     **** SEP Y 9
     6 GLP5        3 GROUP        1 Y    GLP  0     **** GLP Y 13
     7 ALL1        7 GROUP        1 Z    ALL  0     ROOT ALL Z 15
     8 SEL2       17 GROUP        1 Z    SEL  0     **** SEL Z 16
     9 GLL5        2 GROUP        1 Z    GLL  0     **** GLL Z 20
@<TRIPOS>SET

