#    Name: 1oiq_HDU_1_ligand
#    Modification time : Mon Mar 24 20:12:22 2014

@<TRIPOS>MOLECULE
1oiq_HDU_1_ligand
   33    35     1     0     0
SMALL
NO_CHARGES


@<TRIPOS>ATOM
      1 O20        10.9720   -9.7210   10.7170 O.2       1 HDU1299     0.0000 
      2 C18        10.3520  -10.5520   11.3910 C.2       1 HDU1299     0.0000 
      3 C19         9.1160  -11.1830   10.8190 C.3       1 HDU1299     0.0000 
      4 N17        10.7340  -10.9250   12.6190 N.am      1 HDU1299     0.0000 
      5 C15        11.9030  -10.3940   13.2890 C.ar      1 HDU1299     0.0000 
      6 N16        12.8410   -9.5420   12.6240 N.ar      1 HDU1299     0.0000 
      7 N14        12.1840  -10.6980   14.6630 N.ar      1 HDU1299     0.0000 
      8 C13        13.2600  -10.1780   15.2460 C.ar      1 HDU1299     0.0000 
      9 C12        14.0960   -9.3960   14.5860 C.ar      1 HDU1299     0.0000 
     10 C11        13.9020   -9.0800   13.2850 C.ar      1 HDU1299     0.0000 
     11 C7         14.8400   -8.1500   12.5670 C.ar      1 HDU1299     0.0000 
     12 N6         14.5850   -7.5080   11.2960 N.pl3     1 HDU1299     0.0000 
     13 C5         15.6850   -6.6890   11.0130 C.ar      1 HDU1299     0.0000 
     14 N8         16.6130   -6.7830   12.0620 N.ar      1 HDU1299     0.0000 
     15 C9         16.1650   -7.6280   13.0200 C.ar      1 HDU1299     0.0000 
     16 C10        16.9440   -7.9520   14.2620 C.3       1 HDU1299     0.0000 
     17 C4         15.7110   -5.9470    9.8340 C.ar      1 HDU1299     0.0000 
     18 C3         14.6450   -6.0130    8.9250 C.ar      1 HDU1299     0.0000 
     19 C2         13.5530   -6.8240    9.2270 C.ar      1 HDU1299     0.0000 
     20 C1         13.5550   -7.5600   10.4250 C.ar      1 HDU1299     0.0000 
     21 H          10.1848  -11.6400   13.1638 H         1 HDU1299     0.0000 
     22 H          13.4488  -10.3986   16.2664 H         1 HDU1299     0.0000 
     23 H          14.9457   -8.9987   15.0771 H         1 HDU1299     0.0000 
     24 H          16.5188   -5.3431    9.6243 H         1 HDU1299     0.0000 
     25 H          14.6726   -5.4761    8.0608 H         1 HDU1299     0.0000 
     26 H          12.7588   -6.8869    8.5904 H         1 HDU1299     0.0000 
     27 H          12.7206   -8.1599   10.6259 H         1 HDU1299     0.0000 
     28 H           9.3101  -11.6800    9.9733 H         1 HDU1299     0.0000 
     29 H           8.7041  -11.8358   11.4547 H         1 HDU1299     0.0000 
     30 H           8.4163  -10.5015   10.6044 H         1 HDU1299     0.0000 
     31 H          17.1684   -8.9250   14.3164 H         1 HDU1299     0.0000 
     32 H          17.8077   -7.4494   14.3004 H         1 HDU1299     0.0000 
     33 H          16.4340   -7.7221   15.0909 H         1 HDU1299     0.0000 
@<TRIPOS>BOND
     1    2    1 2    
     2    3    2 1    
     3    4    2 am   
     4   28    3 1    
     5   29    3 1    
     6   30    3 1    
     7    5    4 1    
     8   21    4 1    
     9    6    5 ar   
    10    7    5 ar   
    11   10    6 ar   
    12    8    7 ar   
    13    9    8 ar   
    14   22    8 1    
    15   10    9 ar   
    16   23    9 1    
    17   11   10 1    
    18   12   11 ar   
    19   15   11 ar   
    20   13   12 ar   
    21   20   12 ar   
    22   14   13 ar   
    23   17   13 ar   
    24   15   14 ar   
    25   16   15 1    
    26   31   16 1    
    27   32   16 1    
    28   33   16 1    
    29   18   17 ar   
    30   24   17 1    
    31   19   18 ar   
    32   25   18 1    
    33   20   19 ar   
    34   26   19 1    
    35   27   20 1    
@<TRIPOS>SUBSTRUCTURE
     1 HDU1299     1 GROUP   
@<TRIPOS>SET

