#    Name: 1mu8_CDB_1_INTS_M
#    Modification time : Tue Mar 25 12:02:44 2014

@<TRIPOS>MOLECULE
1mu8_CDB_1_INTS_M
   69     0     9     0     0
SMALL
NO_CHARGES


@<TRIPOS>ATOM
      1 CA         20.0470  -15.4170   28.2785 C.3       3 GLC5        0.0000 
      2 CA         20.0650  -14.6260   26.2280 C.3       9 GLL5        0.0000 
      3 CA         20.0290  -16.2080   30.3290 C.3       6 GLP5        0.0000 
      4 CA         18.7265  -13.0590   25.5565 C.3       3 GLC5        0.0000 
      5 CA         17.3880  -11.4920   24.8850 C.3       6 GLP5        0.0000 
      6 CA         18.9045  -16.2490   28.5620 C.3       3 GLC5        0.0000 
      7 CA         17.7800  -16.2900   26.7950 C.3       9 GLL5        0.0000 
      8 O          16.1050  -15.6810   24.5440 O.2       1 ALC1        0.0000 
      9 O          17.5530  -16.0680   23.9960 O.2       7 ALL1        0.0000 
     10 O          14.6570  -15.2940   25.0920 O.2       4 ALP1        0.0000 
     11 N          15.5500  -13.2245   24.1505 N.am      2 SEC2        0.0000 
     12 N          16.3690  -13.7490   22.9310 N.am      8 SEL2        0.0000 
     13 N          14.7310  -12.7000   25.3700 N.am      5 SEP2        0.0000 
     14 CA         19.6370  -11.5075   19.1745 C.3       3 GLC5        0.0000 
     15 CA         20.0650  -13.1800   19.8330 C.3       9 GLL5        0.0000 
     16 CA         19.2090   -9.8350   18.5160 C.3       6 GLP5        0.0000 
     17 CA         21.8205  -14.1825   19.9880 C.3       3 GLC5        0.0000 
     18 CA         23.5760  -15.1850   20.1430 C.3       6 GLP5        0.0000 
     19 CA         19.5960  -14.4400   18.3795 C.3       3 GLC5        0.0000 
     20 CA         19.1270  -15.7000   16.9260 C.3       6 GLP5        0.0000 
     21 CA         18.3345  -11.0065   19.7430 C.3       3 GLC5        0.0000 
     22 CA         17.4600  -12.1780   20.9700 C.3       9 GLL5        0.0000 
     23 CA         19.1160  -11.5715   22.0850 C.3       3 GLC5        0.0000 
     24 CA         20.7720  -10.9650   23.2000 C.3       6 GLP5        0.0000 
     25 CA         17.4240  -11.8350   22.9275 C.3       3 GLC5        0.0000 
     26 O          16.0040  -10.4640   21.7055 O.2       1 ALC1        0.0000 
     27 O          15.0910  -11.5730   20.9010 O.2       7 ALL1        0.0000 
     28 O          16.9170   -9.3550   22.5100 O.2       4 ALP1        0.0000 
     29 CA         10.7330  -11.8400   20.8920 C.3       3 GLC5        0.0000 
     30 CA         12.7380  -11.6840   21.7980 C.3       9 GLL5        0.0000 
     31 CA          8.7280  -11.9960   19.9860 C.3       6 GLP5        0.0000 
     32 CA         11.1060  -10.7065   26.2030 C.3       3 GLC5        0.0000 
     33 CA         11.0360  -11.5280   24.1130 C.3       9 GLL5        0.0000 
     34 CA         11.1760   -9.8850   28.2930 C.3       6 GLP5        0.0000 
     35 CA         15.2095   -8.4220   22.9795 C.3       3 GLC5        0.0000 
     36 CA         13.7300   -9.6110   22.3840 C.3       9 GLL5        0.0000 
     37 CA         16.6890   -7.2330   23.5750 C.3       6 GLP5        0.0000 
     38 CA          9.8445  -12.3155   21.5925 C.3       3 GLC5        0.0000 
     39 CA         10.9610  -12.6350   23.1990 C.3       9 GLL5        0.0000 
     40 CA          9.7625  -13.8710   22.3450 C.3       3 GLC5        0.0000 
     41 CA          8.5640  -15.1070   21.4910 C.3       6 GLP5        0.0000 
     42 CA         10.5260   -8.8100   23.5655 C.3       3 GLC5        0.0000 
     43 CA         12.0660   -9.3140   24.7450 C.3       9 GLL5        0.0000 
     44 CA          8.9860   -8.3060   22.3860 C.3       6 GLP5        0.0000 
     45 CA         12.2380   -8.0920   23.2700 C.3       3 GLC5        0.0000 
     46 CA         12.4100   -6.8700   21.7950 C.3       6 GLP5        0.0000 
     47 CA         11.6210   -9.5995   26.5190 C.3       3 GLC5        0.0000 
     48 CA         23.0390  -13.3430   26.8505 C.3       3 GLC5        0.0000 
     49 CA         21.3150  -13.9430   25.9570 C.3       9 GLL5        0.0000 
     50 CA         24.1940  -12.3880   28.0290 C.3       6 GLP5        0.0000 
     51 CA         22.0225  -12.6850   24.7570 C.3       3 GLC5        0.0000 
     52 CA         22.1610  -11.0720   23.8420 C.3       6 GLP5        0.0000 
     53 CA         17.6978  -14.8598   27.0932 C.3       3 GLC5        0.0000 
     54 CA         18.7470  -16.8750   26.0440 C.3       9 GLL5        0.0000 
     55 CA         17.1320  -13.1370   27.7670 C.3       6 GLP5        0.0000 
     56 CA         16.6133  -16.8717   27.4342 C.3       3 GLC5        0.0000 
     57 CA         14.9630  -17.1610   28.4490 C.3       6 GLP5        0.0000 
     58 CA         20.1898  -17.1509   28.0230 C.3       3 GLC5        0.0000 
     59 CA         21.1540  -17.0450   29.7490 C.3       6 GLP5        0.0000 
     60 CA         20.2400  -12.2488   21.7888 C.3       3 GLC5        0.0000 
     61 CA         19.3510  -13.8850   20.9220 C.3       9 GLL5        0.0000 
     62 CA         14.0258  -10.3697   24.4375 C.3       3 GLC5        0.0000 
     63 CA         11.9870  -10.4830   23.8270 C.3       9 GLL5        0.0000 
     64 CA         16.0250  -10.8410   24.5890 C.3       6 GLP5        0.0000 
     65 CA         10.3549   -9.6662   23.0332 C.3       3 GLC5        0.0000 
     66 CA         12.7404   -8.4690   22.3055 C.3       3 GLC5        0.0000 
     67 CA         14.6417  -10.6046   23.4489 C.3       3 GLC5        0.0000 
     68 CA         12.4981  -12.6016   24.8908 C.3       3 GLC5        0.0000 
     69 CA         13.7600  -13.3830   26.1970 C.3       6 GLP5        0.0000 
@<TRIPOS>BOND
@<TRIPOS>SUBSTRUCTURE
     1 ALC1        8 GROUP        1 X    ALC  0     ROOT ALC X 1
     2 SEC2       11 GROUP        1 X    SEC  0     **** SEC X 2
     3 GLC5        1 GROUP        1 X    GLC  0     **** GLC X 6
     4 ALP1       10 GROUP        1 Y    ALP  0     ROOT ALP Y 8
     5 SEP2       13 GROUP        1 Y    SEP  0     **** SEP Y 9
     6 GLP5        3 GROUP        1 Y    GLP  0     **** GLP Y 13
     7 ALL1        9 GROUP        1 Z    ALL  0     ROOT ALL Z 15
     8 SEL2       12 GROUP        1 Z    SEL  0     **** SEL Z 16
     9 GLL5        2 GROUP        1 Z    GLL  0     **** GLL Z 20
@<TRIPOS>SET

