#    Name: 1mu8_CDB_1_ligand
#    Modification time : Tue Mar 25 12:02:44 2014

@<TRIPOS>MOLECULE
1mu8_CDB_1_ligand
   53    55     1     0     0
SMALL
NO_CHARGES


@<TRIPOS>ATOM
      1 N1         21.1780  -16.7010   25.4070 N.ar      1 CDB248      0.0000 
      2 C2         20.0330  -16.0520   25.9220 C.ar      1 CDB248      0.0000 
      3 C3         20.0650  -14.6260   26.2280 C.ar      1 CDB248      0.0000 
      4 C4         21.3150  -13.9430   25.9570 C.ar      1 CDB248      0.0000 
      5 C5         22.4530  -14.6530   25.3870 C.ar      1 CDB248      0.0000 
      6 C6         22.3790  -16.0760   25.1120 C.ar      1 CDB248      0.0000 
      7 C11        18.7470  -16.8750   26.0440 C.3       1 CDB248      0.0000 
      8 C12        18.1550  -17.2280   24.6820 C.3       1 CDB248      0.0000 
      9 F13        17.7800  -16.2900   26.7950 F         1 CDB248      0.0000 
     10 F1         19.0610  -18.0500   26.6110 F         1 CDB248      0.0000 
     11 N18        17.5530  -16.0680   23.9960 N.pl3     1 CDB248      0.0000 
     12 C21        18.1460  -15.3600   22.9720 C.2       1 CDB248      0.0000 
     13 C22        17.4540  -14.1250   22.4830 C.2       1 CDB248      0.0000 
     14 N23        18.1050  -13.4120   21.4820 N.am      1 CDB248      0.0000 
     15 C24        19.3510  -13.8850   20.9220 C.2       1 CDB248      0.0000 
     16 C25        19.9300  -15.0650   21.4330 C.2       1 CDB248      0.0000 
     17 N26        19.3360  -15.7330   22.4270 N.2       1 CDB248      0.0000 
     18 O28        16.3690  -13.7490   22.9310 O.2       1 CDB248      0.0000 
     19 C29        20.0650  -13.1800   19.8330 C.3       1 CDB248      0.0000 
     20 C33        17.4600  -12.1780   20.9700 C.3       1 CDB248      0.0000 
     21 C34        16.0350  -12.4860   20.5320 C.2       1 CDB248      0.0000 
     22 N37        15.0910  -11.5730   20.9010 N.am      1 CDB248      0.0000 
     23 O38        15.7950  -13.4930   19.8760 O.2       1 CDB248      0.0000 
     24 C39        13.6630  -11.7940   20.5840 C.3       1 CDB248      0.0000 
     25 C40        12.7380  -11.6840   21.7980 C.ar      1 CDB248      0.0000 
     26 C43        12.8360  -10.5670   22.6690 C.ar      1 CDB248      0.0000 
     27 C44        11.9870  -10.4830   23.8270 C.ar      1 CDB248      0.0000 
     28 C45        11.0360  -11.5280   24.1130 C.ar      1 CDB248      0.0000 
     29 N46        11.8020  -12.6630   22.0970 N.ar      1 CDB248      0.0000 
     30 F47        13.7300   -9.6110   22.3840 F         1 CDB248      0.0000 
     31 C50        10.9610  -12.6350   23.1990 C.ar      1 CDB248      0.0000 
     32 C1         12.0660   -9.3140   24.7450 C.3       1 CDB248      0.0000 
     33 H          19.2857  -14.1611   26.5949 H         1 CDB248      0.0000 
     34 H          21.4022  -12.9533   26.1668 H         1 CDB248      0.0000 
     35 H          23.3046  -14.1448   25.1813 H         1 CDB248      0.0000 
     36 H          23.1666  -16.5494   24.7315 H         1 CDB248      0.0000 
     37 H          17.3988  -18.0192   24.8288 H         1 CDB248      0.0000 
     38 H          18.9559  -17.6656   24.0604 H         1 CDB248      0.0000 
     39 H          16.5982  -15.7898   24.3422 H         1 CDB248      0.0000 
     40 H          20.8211  -15.3892   21.0137 H         1 CDB248      0.0000 
     41 H          18.0131  -11.7876   20.1159 H         1 CDB248      0.0000 
     42 H          17.4311  -11.4149   21.7476 H         1 CDB248      0.0000 
     43 H          15.3218  -10.7112   21.4035 H         1 CDB248      0.0000 
     44 H          13.5235  -12.7959   20.1352 H         1 CDB248      0.0000 
     45 H          13.3239  -11.0625   19.8260 H         1 CDB248      0.0000 
     46 H          10.4510  -11.4827   24.9180 H         1 CDB248      0.0000 
     47 H          10.2910  -13.3778   23.3788 H         1 CDB248      0.0000 
     48 H          20.3172  -12.2488   20.0962 H         1 CDB248      0.0000 
     49 H          20.9091  -13.6509   19.5766 H         1 CDB248      0.0000 
     50 H          19.5059  -13.1099   19.0068 H         1 CDB248      0.0000 
     51 H          12.9766   -9.2185   25.1472 H         1 CDB248      0.0000 
     52 H          11.8628   -8.4564   24.2726 H         1 CDB248      0.0000 
     53 H          11.4178   -9.3921   25.5024 H         1 CDB248      0.0000 
@<TRIPOS>BOND
     1    2    1 ar   
     2    6    1 ar   
     3    3    2 ar   
     4    7    2 1    
     5    4    3 ar   
     6   33    3 1    
     7    5    4 ar   
     8   34    4 1    
     9    6    5 ar   
    10   35    5 1    
    11   36    6 1    
    12    8    7 1    
    13    9    7 1    
    14   10    7 1    
    15   11    8 1    
    16   37    8 1    
    17   38    8 1    
    18   12   11 1    
    19   39   11 1    
    20   13   12 1    
    21   17   12 2    
    22   14   13 am   
    23   18   13 2    
    24   15   14 1    
    25   20   14 1    
    26   16   15 2    
    27   19   15 1    
    28   17   16 1    
    29   40   16 1    
    30   48   19 1    
    31   49   19 1    
    32   50   19 1    
    33   21   20 1    
    34   41   20 1    
    35   42   20 1    
    36   22   21 am   
    37   23   21 2    
    38   24   22 1    
    39   43   22 1    
    40   25   24 1    
    41   44   24 1    
    42   45   24 1    
    43   26   25 ar   
    44   29   25 ar   
    45   27   26 ar   
    46   30   26 1    
    47   28   27 ar   
    48   32   27 1    
    49   31   28 ar   
    50   46   28 1    
    51   31   29 ar   
    52   47   31 1    
    53   51   32 1    
    54   52   32 1    
    55   53   32 1    
@<TRIPOS>SUBSTRUCTURE
     1 CDB248      1 GROUP   
@<TRIPOS>SET

