#    Name: 3GAG_2_CAVITY_N1_6.mol2
#    Modification time : Mon Mar 10 18:40:41 2014

@<TRIPOS>MOLECULE
3GAG_2_CAVITY_N1_6.mol2
   93     0     5     0     0
SMALL
NO_CHARGES


@<TRIPOS>ATOM
      1 O          34.3409    5.7237   34.1106 O.2       2 ALA2        0.0000 
      2 O          33.3884    6.7326   33.5407 O.2       2 ALA2        0.0000 
      3 OG         33.5219    4.6156   33.5178 O.2       1 SER1        0.0000 
      4 CA         32.5693    5.6246   32.9480 C.3       4 GLY6        0.0000 
      5 O          31.6168    6.6335   32.3782 O.2       2 ALA2        0.0000 
      6 OG         32.7028    3.5076   32.9251 O.2       1 SER1        0.0000 
      7 CA         31.7503    4.5165   32.3552 C.3       4 GLY6        0.0000 
      8 CA         31.8837    2.3995   32.3323 C.3       4 GLY6        0.0000 
      9 CA         31.0647    1.2915   31.7395 C.3       4 GLY6        0.0000 
     10 O          39.3917    5.0411   28.4076 O.2       2 ALA2        0.0000 
     11 O          37.4866    7.0590   27.2679 O.2       2 ALA2        0.0000 
     12 DU         36.5341    8.0679   26.6981 H         5 CUB7        0.0000 
     13 CA         35.5815    9.0768   26.1283 C.3       4 GLY6        0.0000 
     14 DU         36.6675    5.9509   26.6752 H         5 CUB7        0.0000 
     15 DU         34.7625    7.9688   25.5355 H         5 CUB7        0.0000 
     16 CA         33.8099    8.9777   24.9657 C.3       4 GLY6        0.0000 
     17 DU         33.9434    6.8607   24.9428 H         5 CUB7        0.0000 
     18 CA         32.9909    7.8697   24.3729 C.3       4 GLY6        0.0000 
     19 CZ         33.1243    5.7527   24.3500 C.ar      3 PHE5        0.0000 
     20 N          37.3525   10.2187   29.1382 N.2       2 ALA2        0.0000 
     21 O          39.3911    6.0838   30.2549 O.2       2 ALA2        0.0000 
     22 CA         38.4386    7.0928   29.6851 C.3       4 GLY6        0.0000 
     23 CA         37.4860    8.1017   29.1153 C.3       4 GLY6        0.0000 
     24 CA         36.5335    9.1107   28.5454 C.3       4 GLY6        0.0000 
     25 DU         35.5809   10.1196   27.9756 H         5 CUB7        0.0000 
     26 O          37.6195    5.9847   29.0923 O.2       2 ALA2        0.0000 
     27 DU         36.6670    6.9937   28.5225 H         5 CUB7        0.0000 
     28 DU         34.7619    9.0116   27.3828 H         5 CUB7        0.0000 
     29 CA         33.8093   10.0205   26.8130 C.3       4 GLY6        0.0000 
     30 O          35.8479    5.8856   27.9297 O.2       2 ALA2        0.0000 
     31 DU         34.8954    6.8946   27.3599 H         5 CUB7        0.0000 
     32 CA         33.9428    7.9035   26.7901 C.3       4 GLY6        0.0000 
     33 O          35.0288    4.7776   27.3370 O.2       2 ALA2        0.0000 
     34 DU         34.0763    5.7865   26.7671 H         5 CUB7        0.0000 
     35 N          33.1238    6.7955   26.1973 N.2       2 ALA2        0.0000 
     36 N          32.1712    7.8044   25.6275 N.2       2 ALA2        0.0000 
     37 DU         33.2572    4.6785   26.1744 H         5 CUB7        0.0000 
     38 N          32.3047    5.6874   25.6046 N.2       2 ALA2        0.0000 
     39 CZ         31.3522    6.6964   25.0347 C.ar      3 PHE5        0.0000 
     40 N          37.4854    9.1445   30.9626 N.2       2 ALA2        0.0000 
     41 N          35.5804   11.1624   29.8229 N.2       2 ALA2        0.0000 
     42 N          38.5715    6.0186   31.5095 N.2       2 ALA2        0.0000 
     43 N          37.6189    7.0275   30.9396 N.2       2 ALA2        0.0000 
     44 N          36.6664    8.0365   30.3698 N.2       2 ALA2        0.0000 
     45 N          35.7138    9.0454   29.8000 N.2       2 ALA2        0.0000 
     46 O          34.7613   10.0544   29.2302 O.2       2 ALA2        0.0000 
     47 O          37.7524    4.9105   30.9167 O.2       2 ALA2        0.0000 
     48 O          36.7999    5.9195   30.3469 O.2       2 ALA2        0.0000 
     49 DU         35.8473    6.9284   29.7771 H         5 CUB7        0.0000 
     50 DU         34.8948    7.9374   29.2072 H         5 CUB7        0.0000 
     51 O          33.9422    8.9463   28.6374 O.2       2 ALA2        0.0000 
     52 O          35.9808    4.8114   29.7541 O.2       2 ALA2        0.0000 
     53 O          35.0283    5.8204   29.1843 O.2       2 ALA2        0.0000 
     54 DU         34.0757    6.8293   28.6145 H         5 CUB7        0.0000 
     55 CA         33.1232    7.8383   28.0446 C.3       4 GLY6        0.0000 
     56 O          34.2092    4.7123   28.5915 O.2       2 ALA2        0.0000 
     57 CA         33.2567    5.7213   28.0217 C.3       4 GLY6        0.0000 
     58 CA         32.3041    6.7302   27.4519 C.3       4 GLY6        0.0000 
     59 O          33.3901    3.6043   27.9988 O.2       2 ALA2        0.0000 
     60 CA         32.4376    4.6132   27.4289 C.3       4 GLY6        0.0000 
     61 N          36.6658    9.0792   32.2171 N.2       2 ALA2        0.0000 
     62 N          36.7993    6.9623   32.1942 N.2       2 ALA2        0.0000 
     63 N          35.8467    7.9712   31.6244 N.2       2 ALA2        0.0000 
     64 O          34.8942    8.9801   31.0546 O.2       2 ALA2        0.0000 
     65 O          33.9417    9.9891   30.4847 O.2       2 ALA2        0.0000 
     66 CA         35.9802    5.8542   31.6014 C.3       4 GLY6        0.0000 
     67 DU         35.0277    6.8631   31.0316 H         5 CUB7        0.0000 
     68 O          34.0751    7.8721   30.4618 O.2       2 ALA2        0.0000 
     69 O          33.1226    8.8810   29.8920 O.2       2 ALA2        0.0000 
     70 OG         35.1611    4.7462   31.0087 O.2       1 SER1        0.0000 
     71 DU         34.2086    5.7551   30.4389 H         5 CUB7        0.0000 
     72 CA         33.2561    6.7640   29.8690 C.3       4 GLY6        0.0000 
     73 O          33.3895    4.6471   29.8461 O.2       2 ALA2        0.0000 
     74 CA         32.4370    5.6560   29.2763 C.3       4 GLY6        0.0000 
     75 O          32.5705    3.5390   29.2533 O.2       2 ALA2        0.0000 
     76 O          31.6179    4.5479   28.6835 O.2       2 ALA2        0.0000 
     77 O          32.7040    1.4220   29.2304 O.2       2 ALA2        0.0000 
     78 O          31.7514    2.4310   28.6606 O.2       2 ALA2        0.0000 
     79 CA         35.9796    6.8970   33.4488 C.3       4 GLY6        0.0000 
     80 O          35.0271    7.9059   32.8789 O.2       2 ALA2        0.0000 
     81 O          35.1606    5.7889   32.8560 O.2       2 ALA2        0.0000 
     82 O          34.2080    6.7979   32.2862 O.2       2 ALA2        0.0000 
     83 O          33.2555    7.8068   31.7164 O.2       2 ALA2        0.0000 
     84 OG         34.3415    4.6809   32.2633 O.2       1 SER1        0.0000 
     85 DU         33.3890    5.6898   31.6934 H         5 CUB7        0.0000 
     86 N          32.4364    6.6988   31.1236 N.2       2 ALA2        0.0000 
     87 N          32.5699    4.5818   31.1007 N.2       2 ALA2        0.0000 
     88 CA         31.6174    5.5907   30.5308 C.3       4 GLY6        0.0000 
     89 OG         32.7034    2.4648   31.0777 O.2       1 SER1        0.0000 
     90 N          31.7508    3.4737   30.5079 N.2       2 ALA2        0.0000 
     91 N          31.8843    1.3567   30.4850 N.2       2 ALA2        0.0000 
     92 N          30.9318    2.3657   29.9151 N.2       2 ALA2        0.0000 
     93 O          30.1127    1.2576   29.3224 O.2       2 ALA2        0.0000 
@<TRIPOS>BOND
@<TRIPOS>SUBSTRUCTURE
     1 SER1        3 GROUP   
     2 ALA2        1 GROUP   
     3 PHE5       19 GROUP   
     4 GLY6        4 GROUP   
     5 CUB7       12 GROUP   
@<TRIPOS>SET

