#    Name: 3gag_FMN_2_INTS_M
#    Modification time : Tue Mar 25 07:24:26 2014

@<TRIPOS>MOLECULE
3gag_FMN_2_INTS_M
   83     0    12     0     0
SMALL
NO_CHARGES


@<TRIPOS>ATOM
      1 N          34.6735    0.9600   28.8375 N.am      2 SEC2        0.0000 
      2 N          33.6290   -0.3650   28.7200 N.am     10 SEL2        0.0000 
      3 N          35.7180    2.2850   28.9550 N.am      6 SEP2        0.0000 
      4 N          36.3650   -0.1320   27.8935 N.am      2 SEC2        0.0000 
      5 N          35.4260   -1.0760   27.5190 N.am     10 SEL2        0.0000 
      6 N          37.3040    0.8120   28.2680 N.am      6 SEP2        0.0000 
      7 O          34.5015   -3.1095   26.6135 O.2       1 ALC1        0.0000 
      8 O          33.5970   -2.3360   27.3110 O.2       9 ALL1        0.0000 
      9 O          35.4060   -3.8830   25.9160 O.2       5 ALP1        0.0000 
     10 N          30.5295   -4.4730   27.0715 N.am      2 SEC2        0.0000 
     11 N          31.7120   -3.5570   27.2330 N.am     10 SEL2        0.0000 
     12 N          29.3470   -5.3890   26.9100 N.am      6 SEP2        0.0000 
     13 N          29.8635   -3.3915   29.2605 N.am      2 SEC2        0.0000 
     14 N          30.3260   -1.9020   28.8540 N.am     10 SEL2        0.0000 
     15 N          29.4010   -4.8810   29.6670 N.am      6 SEP2        0.0000 
     16 CA         27.7450   -3.2680   29.9115 C.3       4 GLC5        0.0000 
     17 CA         28.5550   -1.5950   30.4120 C.3      12 GLL5        0.0000 
     18 CA         26.9350   -4.9410   29.4110 C.3       8 GLP5        0.0000 
     19 CA         25.4320   -2.1950   33.1575 C.3       4 GLC5        0.0000 
     20 CA         26.6960   -1.3850   32.0520 C.3      12 GLL5        0.0000 
     21 CA         24.1680   -3.0050   34.2630 C.3       8 GLP5        0.0000 
     22 CA         29.5425    2.1850   34.2765 C.3       4 GLC5        0.0000 
     23 CA         28.1590    0.7930   33.3180 C.3      12 GLL5        0.0000 
     24 CA         30.9260    3.5770   35.2350 C.3       8 GLP5        0.0000 
     25 CA         27.4325    0.9810   34.8360 C.3       4 GLC5        0.0000 
     26 CA         26.7060    1.1690   36.3540 C.3       8 GLP5        0.0000 
     27 CA         34.2300    0.0875   31.1250 C.3       4 GLC5        0.0000 
     28 CA         32.4980    1.3240   30.6200 C.3      12 GLL5        0.0000 
     29 CA         35.9620   -1.1490   31.6300 C.3       8 GLP5        0.0000 
     30 CA         32.3030    0.5710   32.5145 C.3       4 GLC5        0.0000 
     31 CA         32.1080   -0.1820   34.4090 C.3       8 GLP5        0.0000 
     32 CA         31.7000    3.6825   33.1600 C.3       4 GLC5        0.0000 
     33 CA         32.4740    3.7880   31.0850 C.3      12 GLL5        0.0000 
     34 CA         31.2935    5.5400   33.3645 C.3       4 GLC5        0.0000 
     35 CA         32.4980    6.2310   31.6740 C.3      12 GLL5        0.0000 
     36 CA         30.0890    4.8490   35.0550 C.3       8 GLP5        0.0000 
     37 N          36.7110    4.9690   33.6790 N.am      2 SEC2        0.0000 
     38 N          36.0330    5.9930   32.9950 N.am     10 SEL2        0.0000 
     39 N          37.3890    3.9450   34.3630 N.am      6 SEP2        0.0000 
     40 NZ         33.8105    5.2200   35.2865 N.4       3 LYC4        0.0000 
     41 NZ         34.1500    4.6110   33.7260 N.4      11 LYL4        0.0000 
     42 NZ         33.9890    4.7550   37.3910 N.4       7 LYP4        0.0000 
     43 N          34.3605    4.2275   35.1610 N.am      2 SEC2        0.0000 
     44 N          34.1500    4.6110   33.7260 N.am     10 SEL2        0.0000 
     45 N          34.5710    3.8440   36.5960 N.am      6 SEP2        0.0000 
     46 N          33.8105    5.2200   35.2865 N.am      2 SEC2        0.0000 
     47 N          33.4710    5.8290   36.8470 N.am      6 SEP2        0.0000 
     48 N          35.7695    4.2780   34.0445 N.am      2 SEC2        0.0000 
     49 N          34.7340    3.4925   33.3040 N.am      2 SEC2        0.0000 
     50 N          35.3180    2.3740   32.8820 N.am      6 SEP2        0.0000 
     51 NZ         33.8180    6.4510   35.5280 N.4       3 LYC4        0.0000 
     52 NZ         34.1650    7.0730   34.2090 N.4      11 LYL4        0.0000 
     53 NZ         33.0275    7.8935   34.2745 N.4       3 LYC4        0.0000 
     54 NZ         31.5280    9.7860   33.6720 N.4       7 LYP4        0.0000 
     55 N          33.8180    6.4510   35.5280 N.am      2 SEC2        0.0000 
     56 N          34.1650    7.0730   34.2090 N.am     10 SEL2        0.0000 
     57 N          34.6180    8.4790   34.8810 N.am      2 SEC2        0.0000 
     58 N          35.0710    9.8850   35.5530 N.am      6 SEP2        0.0000 
     59 N          33.0275    7.8935   34.2745 N.am      2 SEC2        0.0000 
     60 N          31.8900    8.7140   34.3400 N.am      6 SEP2        0.0000 
     61 CA         28.1510    0.2998   29.7763 C.3       4 GLC5        0.0000 
     62 CA         29.7850   -1.2040   29.9330 C.3      12 GLL5        0.0000 
     63 CA         27.1320    1.9990   29.3800 C.3       8 GLP5        0.0000 
     64 CA         27.2438    0.4185   30.5828 C.3       4 GLC5        0.0000 
     65 CA         28.0150   -0.9390   31.5190 C.3      12 GLL5        0.0000 
     66 CA         26.9268   -3.1100   31.3343 C.3       4 GLC5        0.0000 
     67 CA         26.4980   -5.0580   30.8830 C.3       8 GLP5        0.0000 
     68 CA         27.8373   -2.6825   32.8039 C.3       4 GLC5        0.0000 
     69 CA         28.1840   -4.0390   34.0990 C.3       8 GLP5        0.0000 
     70 CA         27.8340    2.2540   32.6765 C.3       4 GLC5        0.0000 
     71 CA         28.6910    0.0810   32.1120 C.3      12 GLL5        0.0000 
     72 CA         27.2430    4.0710   32.6380 C.3       8 GLP5        0.0000 
     73 CA         27.7785    1.2180   31.0475 C.3       4 GLC5        0.0000 
     74 CA         30.2665    0.1275   33.5620 C.3       4 GLC5        0.0000 
     75 CA         28.6597    1.0823   30.2188 C.3       4 GLC5        0.0000 
     76 CA         29.9000    0.4880   31.6020 C.3      12 GLL5        0.0000 
     77 CA         31.1477   -0.0082   32.7332 C.3       4 GLC5        0.0000 
     78 CA         30.5877   -2.5851   30.6744 C.3       4 GLC5        0.0000 
     79 CA         30.4750   -0.1570   30.5130 C.3      12 GLL5        0.0000 
     80 CA         31.3530   -4.3920   31.0060 C.3       8 GLP5        0.0000 
     81 CA         31.1340    6.7795   29.8895 C.3       4 GLC5        0.0000 
     82 CA         32.0460    5.1870   30.6320 C.3      12 GLL5        0.0000 
     83 CA         29.9960    7.8500   28.6260 C.3       8 GLP5        0.0000 
@<TRIPOS>BOND
@<TRIPOS>SUBSTRUCTURE
     1 ALC1        7 GROUP        1 X    ALC  0     ROOT ALC X 1
     2 SEC2        1 GROUP        1 X    SEC  0     **** SEC X 2
     3 LYC4       40 GROUP        1 X    LYC  0     **** LYC X 4
     4 GLC5       16 GROUP        1 X    GLC  0     **** GLC X 6
     5 ALP1        9 GROUP        1 Y    ALP  0     ROOT ALP Y 8
     6 SEP2        3 GROUP        1 Y    SEP  0     **** SEP Y 9
     7 LYP4       42 GROUP        1 Y    LYP  0     **** LYP Y 11
     8 GLP5       18 GROUP        1 Y    GLP  0     **** GLP Y 13
     9 ALL1        8 GROUP        1 Z    ALL  0     ROOT ALL Z 15
    10 SEL2        2 GROUP        1 Z    SEL  0     **** SEL Z 16
    11 LYL4       41 GROUP        1 Z    LYL  0     **** LYL Z 18
    12 GLL5       17 GROUP        1 Z    GLL  0     **** GLL Z 20
@<TRIPOS>SET

