#    Name: 3gag_FMN_2_ligand
#    Modification time : Tue Mar 25 07:24:26 2014

@<TRIPOS>MOLECULE
3gag_FMN_2_ligand
   50    52     1     0     0
SMALL
NO_CHARGES


@<TRIPOS>ATOM
      1 N1         33.6290   -0.3650   28.7200 N.2       1 FMN500      0.0000 
      2 C2         34.2620   -1.2640   27.8490 C.2       1 FMN500      0.0000 
      3 O2         35.4260   -1.0760   27.5190 O.2       1 FMN500      0.0000 
      4 N3         33.5970   -2.3360   27.3110 N.am      1 FMN500      0.0000 
      5 C4         32.2930   -2.5540   27.6530 C.2       1 FMN500      0.0000 
      6 O4         31.7120   -3.5570   27.2330 O.2       1 FMN500      0.0000 
      7 C4A        31.6530   -1.7050   28.5760 C.2       1 FMN500      0.0000 
      8 N5         30.3260   -1.9020   28.8540 N.2       1 FMN500      0.0000 
      9 C5A        29.7850   -1.2040   29.9330 C.ar      1 FMN500      0.0000 
     10 C6         28.5550   -1.5950   30.4120 C.ar      1 FMN500      0.0000 
     11 C7         28.0150   -0.9390   31.5190 C.ar      1 FMN500      0.0000 
     12 C7M        26.6960   -1.3850   32.0520 C.3       1 FMN500      0.0000 
     13 C8         28.6910    0.0810   32.1120 C.ar      1 FMN500      0.0000 
     14 C8M        28.1590    0.7930   33.3180 C.3       1 FMN500      0.0000 
     15 C9         29.9000    0.4880   31.6020 C.ar      1 FMN500      0.0000 
     16 C9A        30.4750   -0.1570   30.5130 C.ar      1 FMN500      0.0000 
     17 N10        31.6870    0.2530   29.9740 N.pl3     1 FMN500      0.0000 
     18 C10        32.3150   -0.5920   29.0720 C.2       1 FMN500      0.0000 
     19 C1'        32.4980    1.3240   30.6200 C.3       1 FMN500      0.0000 
     20 C2'        31.9450    2.6980   30.1730 C.3       1 FMN500      0.0000 
     21 O2'        32.2970    2.8870   28.8060 O.3       1 FMN500      0.0000 
     22 C3'        32.4740    3.7880   31.0850 C.3       1 FMN500      0.0000 
     23 O3'        32.0450    3.5890   32.4500 O.3       1 FMN500      0.0000 
     24 C4'        32.0460    5.1870   30.6320 C.3       1 FMN500      0.0000 
     25 O4'        32.6230    5.5270   29.3730 O.3       1 FMN500      0.0000 
     26 C5'        32.4980    6.2310   31.6740 C.3       1 FMN500      0.0000 
     27 O5'        33.9140    6.1850   31.7940 O.3       1 FMN500      0.0000 
     28 P          34.5500    5.9820   33.2750 P.3       1 FMN500      0.0000 
     29 O1P        36.0330    5.9930   32.9950 O.co2     1 FMN500      0.0000 
     30 O2P        34.1500    4.6110   33.7260 O.co2     1 FMN500      0.0000 
     31 O3P        34.1650    7.0730   34.2090 O.co2     1 FMN500      0.0000 
     32 H          34.0788   -2.9691   26.6555 H         1 FMN500      0.0000 
     33 H          28.0355   -2.3576   29.9671 H         1 FMN500      0.0000 
     34 H          30.3990    1.2913   32.0328 H         1 FMN500      0.0000 
     35 H          33.5331    1.2565   30.3140 H         1 FMN500      0.0000 
     36 H          32.4256    1.2608   31.6973 H         1 FMN500      0.0000 
     37 H          30.8625    2.6430   30.2917 H         1 FMN500      0.0000 
     38 H          33.5723    3.7618   31.0436 H         1 FMN500      0.0000 
     39 H          30.9675    5.2179   30.5941 H         1 FMN500      0.0000 
     40 H          31.9952    5.9919   32.6144 H         1 FMN500      0.0000 
     41 H          32.1433    7.2068   31.3329 H         1 FMN500      0.0000 
     42 H          26.7170   -2.3418   32.3421 H         1 FMN500      0.0000 
     43 H          26.4137   -0.8445   32.8446 H         1 FMN500      0.0000 
     44 H          25.9716   -1.3020   31.3676 H         1 FMN500      0.0000 
     45 H          28.0271    0.1700   34.0890 H         1 FMN500      0.0000 
     46 H          28.7788    1.5144   33.6268 H         1 FMN500      0.0000 
     47 H          27.2754    1.2241   33.1351 H         1 FMN500      0.0000 
     48 H          32.4544    3.8701   28.7129 H         1 FMN500      0.0000 
     49 H          32.8069    3.9135   33.0105 H         1 FMN500      0.0000 
     50 H          33.6107    5.4596   29.5144 H         1 FMN500      0.0000 
@<TRIPOS>BOND
     1    2    1 1    
     2   18    1 2    
     3    3    2 2    
     4    4    2 am   
     5    5    4 am   
     6   32    4 1    
     7    6    5 2    
     8    7    5 1    
     9    8    7 2    
    10   18    7 1    
    11    9    8 1    
    12   10    9 ar   
    13   16    9 ar   
    14   11   10 ar   
    15   33   10 1    
    16   12   11 1    
    17   13   11 ar   
    18   42   12 1    
    19   43   12 1    
    20   44   12 1    
    21   14   13 1    
    22   15   13 ar   
    23   45   14 1    
    24   46   14 1    
    25   47   14 1    
    26   16   15 ar   
    27   34   15 1    
    28   17   16 1    
    29   18   17 1    
    30   19   17 1    
    31   20   19 1    
    32   35   19 1    
    33   36   19 1    
    34   21   20 1    
    35   22   20 1    
    36   37   20 1    
    37   48   21 1    
    38   23   22 1    
    39   24   22 1    
    40   38   22 1    
    41   49   23 1    
    42   25   24 1    
    43   26   24 1    
    44   39   24 1    
    45   50   25 1    
    46   27   26 1    
    47   40   26 1    
    48   41   26 1    
    49   28   27 1    
    50   29   28 ar   
    51   30   28 ar   
    52   31   28 ar   
@<TRIPOS>SUBSTRUCTURE
     1 FMN500      1 GROUP   
@<TRIPOS>SET

