#    Name: 4mk0_29X_1_INTS_M
#    Modification time : Tue Mar 25 12:11:00 2014

@<TRIPOS>MOLECULE
4mk0_29X_1_INTS_M
   66     0     9     0     0
SMALL
NO_CHARGES


@<TRIPOS>ATOM
      1 CA        -14.1445   24.2185   14.4780 C.3       3 GLC5        0.0000 
      2 CA        -15.2100   24.6680   15.8390 C.3       9 GLL5        0.0000 
      3 CA        -13.0790   23.7690   13.1170 C.3       6 GLP5        0.0000 
      4 CA        -15.8535   24.7295   13.8155 C.3       3 GLC5        0.0000 
      5 CA        -16.4970   24.7910   11.7920 C.3       6 GLP5        0.0000 
      6 CA        -14.6115   23.0620   16.0625 C.3       3 GLC5        0.0000 
      7 CA        -14.0130   21.4560   16.2860 C.3       6 GLP5        0.0000 
      8 CA        -16.5865   25.6530   13.6490 C.3       3 GLC5        0.0000 
      9 CA        -16.6760   26.5150   15.5060 C.3       9 GLL5        0.0000 
     10 CA        -18.5975   28.2990   14.4910 C.3       3 GLC5        0.0000 
     11 CA        -17.2510   27.6950   15.9840 C.3       9 GLL5        0.0000 
     12 CA        -19.9440   28.9030   12.9980 C.3       6 GLP5        0.0000 
     13 CA        -15.0360   29.4865   16.5600 C.3       3 GLC5        0.0000 
     14 CA        -16.4480   30.5000   17.9580 C.3       9 GLL5        0.0000 
     15 CA        -13.6240   28.4730   15.1620 C.3       6 GLP5        0.0000 
     16 CA        -14.7685   31.9190   17.6835 C.3       3 GLC5        0.0000 
     17 CA        -13.0890   33.3380   17.4090 C.3       6 GLP5        0.0000 
     18 CA        -15.5460   33.0930   17.8060 C.3       3 GLC5        0.0000 
     19 CA        -16.9720   31.7870   18.5900 C.3       9 GLL5        0.0000 
     20 CA        -14.1200   34.3990   17.0220 C.3       6 GLP5        0.0000 
     21 OD1       -18.9610   33.0080   19.1785 O.co2     2 ASC3        0.0000 
     22 OD1       -17.7920   31.5000   19.7450 O.co2     8 ASL3        0.0000 
     23 OD1       -20.1300   34.5160   18.6120 O.co2     5 ASP3        0.0000 
     24 CA        -21.0285   30.5555   19.4640 C.3       3 GLC5        0.0000 
     25 CA        -18.8290   30.4850   19.6580 C.3       9 GLL5        0.0000 
     26 CA        -23.2280   30.6260   19.2700 C.3       6 GLP5        0.0000 
     27 CA        -21.5130   28.2625   19.5795 C.3       3 GLC5        0.0000 
     28 CA        -19.4100   28.1790   18.9190 C.3       9 GLL5        0.0000 
     29 CA        -23.6160   28.3460   20.2400 C.3       6 GLP5        0.0000 
     30 CA        -20.4690   27.9240   20.8700 C.3       3 GLC5        0.0000 
     31 CA        -21.5280   27.6690   22.8210 C.3       6 GLP5        0.0000 
     32 CA        -21.0405   28.5270   14.7215 C.3       3 GLC5        0.0000 
     33 CA        -22.1370   28.1510   16.4450 C.3       9 GLL5        0.0000 
     34 CA        -21.4255   26.5465   15.2085 C.3       3 GLC5        0.0000 
     35 CA        -20.7140   24.9420   13.9720 C.3       6 GLP5        0.0000 
     36 CA        -22.6825   29.3885   17.8575 C.3       3 GLC5        0.0000 
     37 CA        -24.4475   24.4205   16.3930 C.3       3 GLC5        0.0000 
     38 CA        -23.7170   26.4450   16.9940 C.3       9 GLL5        0.0000 
     39 CA        -25.1780   22.3960   15.7920 C.3       6 GLP5        0.0000 
     40 CA        -25.5680   27.0000   17.9535 C.3       3 GLC5        0.0000 
     41 CA        -27.4190   27.5550   18.9130 C.3       6 GLP5        0.0000 
     42 N         -27.1475   25.7630   16.8505 N.am      1 SEC2        0.0000 
     43 N         -25.9420   25.5680   16.3780 N.am      7 SEL2        0.0000 
     44 N         -28.3530   25.9580   17.3230 N.am      4 SEP2        0.0000 
     45 CA        -14.5573   26.8543   15.6130 C.3       3 GLC5        0.0000 
     46 CA        -15.7710   25.8030   16.2890 C.3       9 GLL5        0.0000 
     47 CA        -16.1039   24.3709   17.7710 C.3       3 GLC5        0.0000 
     48 CA        -15.4430   26.2640   17.5560 C.3       9 GLL5        0.0000 
     49 CA        -16.7410   22.9920   18.7320 C.3       6 GLP5        0.0000 
     50 CA        -16.5742   28.2145   14.0960 C.3       3 GLC5        0.0000 
     51 CA        -16.1850   29.3240   12.4470 C.3       6 GLP5        0.0000 
     52 CA        -18.2676   25.7970   15.5484 C.3       3 GLC5        0.0000 
     53 CA        -19.7980   24.6670   15.1560 C.3       6 GLP5        0.0000 
     54 CA        -20.6303   25.8920   16.4890 C.3       3 GLC5        0.0000 
     55 CA        -21.2760   27.6710   17.4370 C.3       9 GLL5        0.0000 
     56 CA        -21.3867   29.7170   16.1970 C.3       3 GLC5        0.0000 
     57 CA        -21.0670   31.5230   15.4530 C.3       6 GLP5        0.0000 
     58 CA        -24.4630   26.5602   14.8845 C.3       3 GLC5        0.0000 
     59 CA        -23.3710   27.5340   16.2120 C.3       9 GLL5        0.0000 
     60 CA        -25.3820   26.1310   13.1660 C.3       6 GLP5        0.0000 
     61 CA        -22.6595   25.4424   15.7737 C.3       3 GLC5        0.0000 
     62 CA        -22.8760   25.9660   17.9700 C.3       9 GLL5        0.0000 
     63 CA        -22.1090   24.4070   14.2610 C.3       6 GLP5        0.0000 
     64 CA        -15.1347   27.8901   15.8991 C.3       3 GLC5        0.0000 
     65 CA        -16.9240   28.1670   17.2590 C.3       9 GLL5        0.0000 
     66 CA        -23.2363   27.5557   18.7447 C.3       3 GLC5        0.0000 
@<TRIPOS>BOND
@<TRIPOS>SUBSTRUCTURE
     1 SEC2       42 GROUP        1 X    SEC  0     ROOT SEC X 2
     2 ASC3       21 GROUP        1 X    ASC  0     **** ASC X 3
     3 GLC5        1 GROUP        1 X    GLC  0     **** GLC X 6
     4 SEP2       44 GROUP        1 Y    SEP  0     ROOT SEP Y 9
     5 ASP3       23 GROUP        1 Y    ASP  0     **** ASP Y 10
     6 GLP5        3 GROUP        1 Y    GLP  0     **** GLP Y 13
     7 SEL2       43 GROUP        1 Z    SEL  0     ROOT SEL Z 16
     8 ASL3       22 GROUP        1 Z    ASL  0     **** ASL Z 17
     9 GLL5        2 GROUP        1 Z    GLL  0     **** GLL Z 20
@<TRIPOS>SET

