#    Name: 4mk0_29X_1_ligand
#    Modification time : Tue Mar 25 12:11:00 2014

@<TRIPOS>MOLECULE
4mk0_29X_1_ligand
   43    46     1     0     0
SMALL
NO_CHARGES


@<TRIPOS>ATOM
      1 F21       -15.2100   24.6680   15.8390 F         1 29X702      0.0000 
      2 C4        -15.7710   25.8030   16.2890 C.ar      1 29X702      0.0000 
      3 C5        -15.4430   26.2640   17.5560 C.ar      1 29X702      0.0000 
      4 C6        -16.0180   27.4390   18.0350 C.ar      1 29X702      0.0000 
      5 C3        -16.6760   26.5150   15.5060 C.ar      1 29X702      0.0000 
      6 C2        -17.2510   27.6950   15.9840 C.ar      1 29X702      0.0000 
      7 C1        -16.9240   28.1670   17.2590 C.ar      1 29X702      0.0000 
      8 C7        -17.5300   29.4280   17.7810 C.3       1 29X702      0.0000 
      9 C8        -16.4480   30.5000   17.9580 C.3       1 29X702      0.0000 
     10 C9        -16.9720   31.7870   18.5900 C.3       1 29X702      0.0000 
     11 N10       -17.7920   31.5000   19.7450 N.4       1 29X702      0.0000 
     12 C11       -18.8290   30.4850   19.6580 C.3       1 29X702      0.0000 
     13 C12       -18.2760   29.1810   19.0920 C.3       1 29X702      0.0000 
     14 C13       -19.4100   28.1790   18.9190 C.3       1 29X702      0.0000 
     15 O14       -20.0710   28.3000   17.6490 O.3       1 29X702      0.0000 
     16 C15       -21.2760   27.6710   17.4370 C.ar      1 29X702      0.0000 
     17 C16       -21.6490   26.5630   18.2070 C.ar      1 29X702      0.0000 
     18 C20       -22.1370   28.1510   16.4450 C.ar      1 29X702      0.0000 
     19 C19       -23.3710   27.5340   16.2120 C.ar      1 29X702      0.0000 
     20 C18       -23.7170   26.4450   16.9940 C.ar      1 29X702      0.0000 
     21 C22       -24.8840   25.5200   17.1010 C.2       1 29X702      0.0000 
     22 O25       -25.9420   25.5680   16.3780 O.2       1 29X702      0.0000 
     23 C17       -22.8760   25.9660   17.9700 C.ar      1 29X702      0.0000 
     24 C24       -23.4100   24.8180   18.6910 C.2       1 29X702      0.0000 
     25 N23       -24.7170   24.6000   18.0570 N.2       1 29X702      0.0000 
     26 H         -14.7790   25.7426   18.1405 H         1 29X702      0.0000 
     27 H         -15.7717   27.7797   18.9799 H         1 29X702      0.0000 
     28 H         -16.9245   26.1708   14.5674 H         1 29X702      0.0000 
     29 H         -17.9141   28.2164   15.3994 H         1 29X702      0.0000 
     30 H         -18.2488   29.8030   17.0493 H         1 29X702      0.0000 
     31 H         -16.0142   30.7322   16.9755 H         1 29X702      0.0000 
     32 H         -15.6436   30.0923   18.5858 H         1 29X702      0.0000 
     33 H         -17.5411   32.3329   17.8242 H         1 29X702      0.0000 
     34 H         -16.1064   32.4078   18.8615 H         1 29X702      0.0000 
     35 H         -19.6510   30.8174   19.0087 H         1 29X702      0.0000 
     36 H         -19.2560   30.2733   20.6482 H         1 29X702      0.0000 
     37 H         -17.5709   28.7744   19.8174 H         1 29X702      0.0000 
     38 H         -20.1218   28.3284   19.7553 H         1 29X702      0.0000 
     39 H         -18.9857   27.1639   19.0531 H         1 29X702      0.0000 
     40 H         -21.0228   26.2065   18.9288 H         1 29X702      0.0000 
     41 H         -21.8603   28.9668   15.8802 H         1 29X702      0.0000 
     42 H         -23.9917   27.8808   15.4869 H         1 29X702      0.0000 
     43 H         -23.0414   24.3576   19.3528 H         1 29X702      0.0000 
@<TRIPOS>BOND
     1    2    1 1    
     2    3    2 ar   
     3    5    2 ar   
     4    4    3 ar   
     5   26    3 1    
     6    7    4 ar   
     7   27    4 1    
     8    6    5 ar   
     9   28    5 1    
    10    7    6 ar   
    11   29    6 1    
    12    8    7 1    
    13    9    8 1    
    14   13    8 1    
    15   30    8 1    
    16   10    9 1    
    17   31    9 1    
    18   32    9 1    
    19   11   10 1    
    20   33   10 1    
    21   34   10 1    
    22   12   11 1    
    23   13   12 1    
    24   35   12 1    
    25   36   12 1    
    26   14   13 1    
    27   37   13 1    
    28   15   14 1    
    29   38   14 1    
    30   39   14 1    
    31   16   15 1    
    32   17   16 ar   
    33   18   16 ar   
    34   23   17 ar   
    35   40   17 1    
    36   19   18 ar   
    37   41   18 1    
    38   20   19 ar   
    39   42   19 1    
    40   21   20 1    
    41   23   20 ar   
    42   22   21 2    
    43   25   21 1    
    44   24   23 1    
    45   25   24 2    
    46   43   24 1    
@<TRIPOS>SUBSTRUCTURE
     1 29X702      1 GROUP   
@<TRIPOS>SET

