#    Name: 2bal_PQA_1_INTS_M
#    Modification time : Mon Mar 24 20:28:01 2014

@<TRIPOS>MOLECULE
2bal_PQA_1_INTS_M
   50     0     6     0     0
SMALL
NO_CHARGES


@<TRIPOS>ATOM
      1 CA         -1.2655   -0.8655   19.6620 C.3       2 GLC5        0.0000 
      2 CA         -3.2090   -0.7670   20.5380 C.3       6 GLL5        0.0000 
      3 CA          0.6780   -0.9640   18.7860 C.3       4 GLP5        0.0000 
      4 CA         -0.8335    0.0245   21.2020 C.3       2 GLC5        0.0000 
      5 CA         -2.7450   -0.6820   21.8380 C.3       6 GLL5        0.0000 
      6 CA          1.0780    0.7310   20.5660 C.3       4 GLP5        0.0000 
      7 CA         -4.5515    3.8640   16.7585 C.3       2 GLC5        0.0000 
      8 CA         -3.7900    1.9150   16.6150 C.3       6 GLL5        0.0000 
      9 CA         -5.3130    5.8130   16.9020 C.3       4 GLP5        0.0000 
     10 CA         -5.7455    2.1440   20.1945 C.3       2 GLC5        0.0000 
     11 CA         -5.2360    0.7080   18.6530 C.3       6 GLL5        0.0000 
     12 CA         -6.2550    3.5800   21.7360 C.3       4 GLP5        0.0000 
     13 CA         -5.9790   -0.7085   19.7620 C.3       2 GLC5        0.0000 
     14 CA         -6.7220   -2.1250   20.8710 C.3       4 GLP5        0.0000 
     15 N          -2.7705   -4.3570   22.5560 N.am      1 SEC2        0.0000 
     16 N          -2.8650   -2.9540   22.3220 N.am      5 SEL2        0.0000 
     17 N          -2.6760   -5.7600   22.7900 N.am      3 SEP2        0.0000 
     18 CA          0.9075   -2.0215   23.0855 C.3       2 GLC5        0.0000 
     19 CA         -0.6230   -0.8560   24.0650 C.3       6 GLL5        0.0000 
     20 CA          2.4380   -3.1870   22.1060 C.3       4 GLP5        0.0000 
     21 CA          0.2275   -0.0625   22.3155 C.3       2 GLC5        0.0000 
     22 CA          2.0765   -0.5090   25.6305 C.3       2 GLC5        0.0000 
     23 CA          0.0410   -0.7510   25.2950 C.3       6 GLL5        0.0000 
     24 CA          4.1120   -0.2670   25.9660 C.3       4 GLP5        0.0000 
     25 CA         -4.8620   -0.5330   28.2445 C.3       2 GLC5        0.0000 
     26 CA         -3.2870   -1.6700   28.8380 C.3       6 GLL5        0.0000 
     27 CA         -6.4370    0.6040   27.6510 C.3       4 GLP5        0.0000 
     28 CA         -4.1240   -3.2635   24.7695 C.3       2 GLC5        0.0000 
     29 CA         -2.1810   -2.4520   25.0530 C.3       6 GLL5        0.0000 
     30 CA         -6.0670   -4.0750   24.4860 C.3       4 GLP5        0.0000 
     31 CA         -4.8495   -1.4247   21.0295 C.3       2 GLC5        0.0000 
     32 CA         -6.6530    2.8510   17.1090 C.3       2 GLC5        0.0000 
     33 CA         -5.1490    1.6710   16.4640 C.3       6 GLL5        0.0000 
     34 CA         -7.8490    3.8520   18.3210 C.3       4 GLP5        0.0000 
     35 CA         -7.0035    2.0860   14.8890 C.3       2 GLC5        0.0000 
     36 CA         -8.5500    2.3220   13.8810 C.3       4 GLP5        0.0000 
     37 CA         -4.6981    2.0905   14.0879 C.3       2 GLC5        0.0000 
     38 CA         -5.7650    2.0290   15.3300 C.3       6 GLL5        0.0000 
     39 CA         -4.2790    2.2700   12.2410 C.3       4 GLP5        0.0000 
     40 CA         -5.2086    0.0425   15.6204 C.3       2 GLC5        0.0000 
     41 CA         -5.3000   -1.8260   15.3060 C.3       4 GLP5        0.0000 
     42 CA         -6.7040    2.3682   18.1920 C.3       2 GLC5        0.0000 
     43 CA         -5.8820    1.0610   17.4730 C.3       6 GLL5        0.0000 
     44 CA         -5.4295   -0.4708   16.6845 C.3       2 GLC5        0.0000 
     45 CA         -1.1073   -3.7675   23.6517 C.3       2 GLC5        0.0000 
     46 CA         -1.7400   -1.7020   23.9480 C.3       6 GLL5        0.0000 
     47 CA         -0.2540   -5.4580   22.8030 C.3       4 GLP5        0.0000 
     48 CA          0.5072   -3.0600   27.0920 C.3       2 GLC5        0.0000 
     49 CA         -1.5050   -2.3350   26.2710 C.3       6 GLL5        0.0000 
     50 CA          1.9680   -4.2070   27.8550 C.3       4 GLP5        0.0000 
@<TRIPOS>BOND
@<TRIPOS>SUBSTRUCTURE
     1 SEC2       15 GROUP        1 X    SEC  0     ROOT SEC X 2
     2 GLC5        1 GROUP        1 X    GLC  0     **** GLC X 6
     3 SEP2       17 GROUP        1 Y    SEP  0     ROOT SEP Y 9
     4 GLP5        3 GROUP        1 Y    GLP  0     **** GLP Y 13
     5 SEL2       16 GROUP        1 Z    SEL  0     ROOT SEL Z 16
     6 GLL5        2 GROUP        1 Z    GLL  0     **** GLL Z 20
@<TRIPOS>SET

