#    Name: 2bal_PQA_1_ligand
#    Modification time : Mon Mar 24 20:28:01 2014

@<TRIPOS>MOLECULE
2bal_PQA_1_ligand
   47    50     1     0     0
SMALL
NO_CHARGES


@<TRIPOS>ATOM
      1 N1         -3.4720   -1.8760   19.8050 N.pl3     1 PQA401      0.0000 
      2 C2         -3.2090   -0.7670   20.5380 C.2       1 PQA401      0.0000 
      3 C3         -2.7450   -0.6820   21.8380 C.2       1 PQA401      0.0000 
      4 C4         -2.6450    0.7020   22.0820 C.2       1 PQA401      0.0000 
      5 N5         -3.0140    1.4410   21.0360 N.2       1 PQA401      0.0000 
      6 N6         -3.3480    0.5360   20.0700 N.pl3     1 PQA401      0.0000 
      7 C7         -3.8560    0.9580   18.8210 C.ar      1 PQA401      0.0000 
      8 C8         -3.1310    1.5570   17.7900 C.ar      1 PQA401      0.0000 
      9 C9         -3.7900    1.9150   16.6150 C.ar      1 PQA401      0.0000 
     10 C10        -5.1490    1.6710   16.4640 C.ar      1 PQA401      0.0000 
     11 F11        -5.7650    2.0290   15.3300 F         1 PQA401      0.0000 
     12 C12        -5.8820    1.0610   17.4730 C.ar      1 PQA401      0.0000 
     13 C13        -5.2360    0.7080   18.6530 C.ar      1 PQA401      0.0000 
     14 C14        -2.4700   -1.8390   22.6650 C.2       1 PQA401      0.0000 
     15 O15        -2.8650   -2.9540   22.3220 O.2       1 PQA401      0.0000 
     16 C16        -1.7400   -1.7020   23.9480 C.ar      1 PQA401      0.0000 
     17 C17        -0.6230   -0.8560   24.0650 C.ar      1 PQA401      0.0000 
     18 C18         0.0410   -0.7510   25.2950 C.ar      1 PQA401      0.0000 
     19 C19        -0.4020   -1.4910   26.3870 C.ar      1 PQA401      0.0000 
     20 C20        -1.5050   -2.3350   26.2710 C.ar      1 PQA401      0.0000 
     21 O21        -1.8710   -3.0090   27.4110 O.3       1 PQA401      0.0000 
     22 C22        -3.2360   -2.8040   27.8010 C.3       1 PQA401      0.0000 
     23 C23        -3.7740   -4.1230   28.3590 C.3       1 PQA401      0.0000 
     24 C24        -3.2380   -4.4370   29.7580 C.3       1 PQA401      0.0000 
     25 N25        -2.2840   -3.4430   30.2770 N.4       1 PQA401      0.0000 
     26 C26        -2.7700   -2.0620   30.2230 C.3       1 PQA401      0.0000 
     27 C27        -3.2870   -1.6700   28.8380 C.3       1 PQA401      0.0000 
     28 C28        -2.1810   -2.4520   25.0530 C.ar      1 PQA401      0.0000 
     29 H          -2.3298    1.0485   22.9512 H         1 PQA401      0.0000 
     30 H          -2.1304    1.7306   17.8957 H         1 PQA401      0.0000 
     31 H          -3.2613    2.3654   15.8514 H         1 PQA401      0.0000 
     32 H          -6.8782    0.8743   17.3520 H         1 PQA401      0.0000 
     33 H          -5.7603    0.2598   19.4169 H         1 PQA401      0.0000 
     34 H          -0.2988   -0.3219   23.2572 H         1 PQA401      0.0000 
     35 H           0.8510   -0.1289   25.3853 H         1 PQA401      0.0000 
     36 H           0.0897   -1.4149   27.2908 H         1 PQA401      0.0000 
     37 H          -3.8345   -2.5199   26.9541 H         1 PQA401      0.0000 
     38 H          -3.4983   -4.9382   27.6794 H         1 PQA401      0.0000 
     39 H          -4.8688   -4.0751   28.3982 H         1 PQA401      0.0000 
     40 H          -2.7662   -5.4407   29.7253 H         1 PQA401      0.0000 
     41 H          -4.1059   -4.5297   30.4431 H         1 PQA401      0.0000 
     42 H          -1.9663   -1.3570   30.4992 H         1 PQA401      0.0000 
     43 H          -3.5887   -1.9104   30.9482 H         1 PQA401      0.0000 
     44 H          -4.3288   -1.3213   28.9292 H         1 PQA401      0.0000 
     45 H          -2.6949   -0.8199   28.4612 H         1 PQA401      0.0000 
     46 H          -2.9843   -3.0724   24.9629 H         1 PQA401      0.0000 
     47 H          -3.3885   -2.6371   20.4483 H         1 PQA401      0.0000 
@<TRIPOS>BOND
     1    2    1 1    
     2   47    1 1    
     3    3    2 2    
     4    6    2 1    
     5    4    3 1    
     6   14    3 1    
     7    5    4 2    
     8   29    4 1    
     9    6    5 1    
    10    7    6 1    
    11    8    7 ar   
    12   13    7 ar   
    13    9    8 ar   
    14   30    8 1    
    15   10    9 ar   
    16   31    9 1    
    17   11   10 1    
    18   12   10 ar   
    19   13   12 ar   
    20   32   12 1    
    21   33   13 1    
    22   15   14 2    
    23   16   14 1    
    24   17   16 ar   
    25   28   16 ar   
    26   18   17 ar   
    27   34   17 1    
    28   19   18 ar   
    29   35   18 1    
    30   20   19 ar   
    31   36   19 1    
    32   21   20 1    
    33   28   20 ar   
    34   22   21 1    
    35   23   22 1    
    36   27   22 1    
    37   37   22 1    
    38   24   23 1    
    39   38   23 1    
    40   39   23 1    
    41   25   24 1    
    42   40   24 1    
    43   41   24 1    
    44   26   25 1    
    45   27   26 1    
    46   42   26 1    
    47   43   26 1    
    48   44   27 1    
    49   45   27 1    
    50   46   28 1    
@<TRIPOS>SUBSTRUCTURE
     1 PQA401      1 GROUP   
@<TRIPOS>SET

