#    Name: 2zcv_NAP_1_INTS_M
#    Modification time : Tue Mar 25 10:33:57 2014

@<TRIPOS>MOLECULE
2zcv_NAP_1_INTS_M
   72     0    12     0     0
SMALL
NO_CHARGES


@<TRIPOS>ATOM
      1 N          20.7075   11.6955    5.2170 N.am      2 SEC2        0.0000 
      2 N          20.8080   10.5150    6.2040 N.am     10 SEL2        0.0000 
      3 N          20.6070   12.8760    4.2300 N.am      6 SEP2        0.0000 
      4 CA         24.2065    8.9245    8.3895 C.3       4 GLC5        0.0000 
      5 CA         24.3940    9.9560    6.8590 C.3      12 GLL5        0.0000 
      6 CA         24.0190    7.8930    9.9200 C.3       8 GLP5        0.0000 
      7 O          25.6905   12.1870    3.9790 O.2       1 ALC1        0.0000 
      8 O          25.3830   10.7480    4.0750 O.2       9 ALL1        0.0000 
      9 O          25.9980   13.6260    3.8830 O.2       5 ALP1        0.0000 
     10 N          27.2570    6.2885    3.9425 N.am      2 SEC2        0.0000 
     11 N          26.1600    7.6170    4.1510 N.am     10 SEL2        0.0000 
     12 N          28.3540    4.9600    3.7340 N.am      6 SEP2        0.0000 
     13 N          26.3615    6.0840    4.6375 N.am      2 SEC2        0.0000 
     14 N          26.5630    4.5510    5.1240 N.am      6 SEP2        0.0000 
     15 CA         32.7220    6.0125    7.0270 C.3       4 GLC5        0.0000 
     16 CA         31.0430    5.4230    6.7210 C.3      12 GLL5        0.0000 
     17 CA         34.4010    6.6020    7.3330 C.3       8 GLP5        0.0000 
     18 CA         30.6975    6.0335    4.1135 C.3       4 GLC5        0.0000 
     19 CA         31.6630    7.2900    4.9410 C.3      12 GLL5        0.0000 
     20 CA         29.7320    4.7770    3.2860 C.3       8 GLP5        0.0000 
     21 CA         33.0320    6.9460    6.1370 C.3       4 GLC5        0.0000 
     22 NZ         17.8405   12.6605    8.8615 N.4       3 LYC4        0.0000 
     23 NZ         19.5200   12.6930    8.4790 N.4      11 LYL4        0.0000 
     24 NZ         16.0610   13.8010    8.6350 N.4       7 LYP4        0.0000 
     25 N          18.3370   13.5610    8.3485 N.am      2 SEC2        0.0000 
     26 N          19.5200   12.6930    8.4790 N.am     10 SEL2        0.0000 
     27 N          17.1540   14.4290    8.2180 N.am      6 SEP2        0.0000 
     28 N          17.8405   12.6605    8.8615 N.am      2 SEC2        0.0000 
     29 N          16.1610   12.6280    9.2440 N.am      6 SEP2        0.0000 
     30 N          20.9600   14.2805    6.1755 N.am      2 SEC2        0.0000 
     31 N          21.2250   13.1240    6.7770 N.am     10 SEL2        0.0000 
     32 N          20.6950   15.4370    5.5740 N.am      6 SEP2        0.0000 
     33 N          21.2125   14.9440   10.1835 N.am      2 SEC2        0.0000 
     34 N          21.6610   13.5170    9.3290 N.am     10 SEL2        0.0000 
     35 N          20.7640   16.3710   11.0380 N.am      6 SEP2        0.0000 
     36 CA         22.3950   15.3345    8.5530 C.3       4 GLC5        0.0000 
     37 CA         22.9150   13.9830    9.7870 C.3      12 GLL5        0.0000 
     38 CA         21.8750   16.6860    7.3190 C.3       8 GLP5        0.0000 
     39 CA         23.9575    9.9600   10.2890 C.3       4 GLC5        0.0000 
     40 CA         23.8960   12.0270   10.6580 C.3      12 GLL5        0.0000 
     41 CA         24.1225    9.6870   11.5235 C.3       4 GLC5        0.0000 
     42 CA         23.2910   11.3870   11.9200 C.3      12 GLL5        0.0000 
     43 CA         24.9540    7.9870   11.1270 C.3       8 GLP5        0.0000 
     44 N          16.6150   14.8190   15.5730 N.am      2 SEC2        0.0000 
     45 N          18.1070   15.5400   15.8800 N.am     10 SEL2        0.0000 
     46 N          15.1230   14.0980   15.2660 N.am      6 SEP2        0.0000 
     47 N          16.8335   16.3795   15.5155 N.am      2 SEC2        0.0000 
     48 N          15.5600   17.2190   15.1510 N.am      6 SEP2        0.0000 
     49 O          19.5020   17.4345   16.4050 O.2       1 ALC1        0.0000 
     50 O          20.2750   16.3090   16.1000 O.2       9 ALL1        0.0000 
     51 O          18.7290   18.5600   16.7100 O.2       5 ALP1        0.0000 
     52 NZ         25.7280    5.1395    4.2755 N.4       3 LYC4        0.0000 
     53 NZ         24.8930    5.7280    3.4270 N.4      11 LYL4        0.0000 
     54 NZ         27.8170    4.3140    4.7660 N.4       7 LYP4        0.0000 
     55 N          25.7280    5.1395    4.2755 N.am      2 SEC2        0.0000 
     56 N          24.8930    5.7280    3.4270 N.am     10 SEL2        0.0000 
     57 N          25.1000    8.8965    1.8030 N.am      2 SEC2        0.0000 
     58 N          24.0970    7.9870    2.7990 N.am     10 SEL2        0.0000 
     59 N          26.1030    9.8060    0.8070 N.am      6 SEP2        0.0000 
     60 N          26.0885    8.4055    1.2400 N.am      2 SEC2        0.0000 
     61 N          26.0740    7.0050    1.6730 N.am     10 SEL2        0.0000 
     62 CA         24.0572   10.8880    4.6943 C.3       4 GLC5        0.0000 
     63 CA         25.7580   10.1840    6.3750 C.3      12 GLL5        0.0000 
     64 CA         22.7570   11.9160    3.6130 C.3       8 GLP5        0.0000 
     65 CA         29.8449    5.6909    4.8950 C.3       4 GLC5        0.0000 
     66 CA         29.7220    6.2480    6.9170 C.3      12 GLL5        0.0000 
     67 CA         24.8455   14.3812    9.2970 C.3       4 GLC5        0.0000 
     68 CA         23.7810   13.4960   10.9830 C.3      12 GLL5        0.0000 
     69 CA         26.3430   15.0230    8.2090 C.3       8 GLP5        0.0000 
     70 CA         27.2985   11.0666    5.0237 C.3       4 GLC5        0.0000 
     71 CA         25.6390    9.6500    4.9340 C.3      12 GLL5        0.0000 
     72 CA         28.0510   12.6360    4.6220 C.3       8 GLP5        0.0000 
@<TRIPOS>BOND
@<TRIPOS>SUBSTRUCTURE
     1 ALC1        7 GROUP        1 X    ALC  0     ROOT ALC X 1
     2 SEC2        1 GROUP        1 X    SEC  0     **** SEC X 2
     3 LYC4       22 GROUP        1 X    LYC  0     **** LYC X 4
     4 GLC5        4 GROUP        1 X    GLC  0     **** GLC X 6
     5 ALP1        9 GROUP        1 Y    ALP  0     ROOT ALP Y 8
     6 SEP2        3 GROUP        1 Y    SEP  0     **** SEP Y 9
     7 LYP4       24 GROUP        1 Y    LYP  0     **** LYP Y 11
     8 GLP5        6 GROUP        1 Y    GLP  0     **** GLP Y 13
     9 ALL1        8 GROUP        1 Z    ALL  0     ROOT ALL Z 15
    10 SEL2        2 GROUP        1 Z    SEL  0     **** SEL Z 16
    11 LYL4       23 GROUP        1 Z    LYL  0     **** LYL Z 18
    12 GLL5        5 GROUP        1 Z    GLL  0     **** GLL Z 20
@<TRIPOS>SET

