#    Name: 2zcv_NAP_1_ligand
#    Modification time : Tue Mar 25 10:33:57 2014

@<TRIPOS>MOLECULE
2zcv_NAP_1_ligand
   73    77     1     0     0
SMALL
NO_CHARGES


@<TRIPOS>ATOM
      1 PA         21.8240   10.2480    7.2040 P.3       1 NAP400      0.0000 
      2 O1A        21.8720    8.8340    7.6890 O.co2     1 NAP400      0.0000 
      3 O2A        20.8080   10.5150    6.2040 O.co2     1 NAP400      0.0000 
      4 O5B        23.2530   10.7690    6.5630 O.3       1 NAP400      0.0000 
      5 C5B        24.3940    9.9560    6.8590 C.3       1 NAP400      0.0000 
      6 C4B        25.7580   10.1840    6.3750 C.3       1 NAP400      0.0000 
      7 O4B        27.0370    9.9000    6.8780 O.3       1 NAP400      0.0000 
      8 C3B        25.6390    9.6500    4.9340 C.3       1 NAP400      0.0000 
      9 O3B        25.3830   10.7480    4.0750 O.3       1 NAP400      0.0000 
     10 C2B        26.9690    8.9610    4.5250 C.3       1 NAP400      0.0000 
     11 O2B        26.1600    7.6170    4.1510 O.3       1 NAP400      0.0000 
     12 C1B        27.8180    9.1940    5.8680 C.3       1 NAP400      0.0000 
     13 N9A        28.3330    7.9210    6.5140 N.pl3     1 NAP400      0.0000 
     14 C8A        27.7600    7.0930    7.4890 C.2       1 NAP400      0.0000 
     15 N7A        28.6650    6.0350    7.7280 N.2       1 NAP400      0.0000 
     16 C5A        29.7220    6.2480    6.9170 C.ar      1 NAP400      0.0000 
     17 C6A        31.0430    5.4230    6.7210 C.ar      1 NAP400      0.0000 
     18 N6A        31.3120    4.1990    7.4720 N.pl3     1 NAP400      0.0000 
     19 N1A        32.0360    6.0380    5.6490 N.ar      1 NAP400      0.0000 
     20 C2A        31.6630    7.2900    4.9410 C.ar      1 NAP400      0.0000 
     21 N3A        30.4810    7.8770    5.2280 N.ar      1 NAP400      0.0000 
     22 C4A        29.5330    7.3740    6.1890 C.ar      1 NAP400      0.0000 
     23 O3         21.5620   11.2780    8.3700 O.3       1 NAP400      0.0000 
     24 PN         20.9490   12.7190    8.1720 P.3       1 NAP400      0.0000 
     25 O1N        19.5200   12.6930    8.4790 O.co2     1 NAP400      0.0000 
     26 O2N        21.2250   13.1240    6.7770 O.co2     1 NAP400      0.0000 
     27 O5D        21.6610   13.5170    9.3290 O.3       1 NAP400      0.0000 
     28 C5D        22.9150   13.9830    9.7870 C.3       1 NAP400      0.0000 
     29 C4D        23.7810   13.4960   10.9830 C.3       1 NAP400      0.0000 
     30 O4D        23.1850   13.7500   12.2290 O.3       1 NAP400      0.0000 
     31 C3D        23.8960   12.0270   10.6580 C.3       1 NAP400      0.0000 
     32 O3D        25.1700   11.6140   10.3040 O.3       1 NAP400      0.0000 
     33 C2D        23.2910   11.3870   11.9200 C.3       1 NAP400      0.0000 
     34 O2D        24.1960   10.4320   12.5640 O.3       1 NAP400      0.0000 
     35 C1D        22.8560   12.5610   12.8880 C.3       1 NAP400      0.0000 
     36 N1N        21.3450   12.8820   13.3690 N.pl3     1 NAP400      0.0000 
     37 C2N        21.0230   14.0460   14.2950 C.ar      1 NAP400      0.0000 
     38 C3N        19.6650   14.2450   14.6670 C.ar      1 NAP400      0.0000 
     39 C7N        19.2680   15.3770   15.5720 C.2       1 NAP400      0.0000 
     40 O7N        18.1070   15.5400   15.8800 O.2       1 NAP400      0.0000 
     41 N7N        20.2750   16.3090   16.1000 N.am      1 NAP400      0.0000 
     42 C4N        18.5880   13.2200   14.0800 C.ar      1 NAP400      0.0000 
     43 C5N        18.9280   12.1400   13.2150 C.ar      1 NAP400      0.0000 
     44 C6N        20.3970   11.9630   12.8350 C.ar      1 NAP400      0.0000 
     45 P2B        25.2450    7.0650    2.8980 P.3       1 NAP400      0.0000 
     46 O1X        24.8930    5.7280    3.4270 O.co2     1 NAP400      0.0000 
     47 O2X        24.0970    7.9870    2.7990 O.co2     1 NAP400      0.0000 
     48 O3X        26.0740    7.0050    1.6730 O.co2     1 NAP400      0.0000 
     49 H          24.1238    8.8427    6.5997 H         1 NAP400      0.0000 
     50 H          24.4633    9.8383    8.0257 H         1 NAP400      0.0000 
     51 H          25.7470   11.3579    6.0879 H         1 NAP400      0.0000 
     52 H          24.8610    8.9218    4.9092 H         1 NAP400      0.0000 
     53 H          27.2960    9.4389    3.7163 H         1 NAP400      0.0000 
     54 H          28.6808    9.8078    5.5904 H         1 NAP400      0.0000 
     55 H          26.9316    7.2132    7.9081 H         1 NAP400      0.0000 
     56 H          30.6031    3.9137    8.1170 H         1 NAP400      0.0000 
     57 H          32.1830    3.7470    7.2794 H         1 NAP400      0.0000 
     58 H          32.3269    7.6489    4.2643 H         1 NAP400      0.0000 
     59 H          22.8574   15.1610    9.9373 H         1 NAP400      0.0000 
     60 H          23.6758   14.0040    8.8736 H         1 NAP400      0.0000 
     61 H          24.7489   13.9349   10.8471 H         1 NAP400      0.0000 
     62 H          23.1428   11.8480    9.8631 H         1 NAP400      0.0000 
     63 H          22.3605   10.8950   11.6148 H         1 NAP400      0.0000 
     64 H          23.4669   12.5123   13.8008 H         1 NAP400      0.0000 
     65 H          21.7656   14.6185   14.6027 H         1 NAP400      0.0000 
     66 H          21.2202   16.1402   15.8204 H         1 NAP400      0.0000 
     67 H          19.9326   17.0356   16.6956 H         1 NAP400      0.0000 
     68 H          17.6354   13.4063   14.3786 H         1 NAP400      0.0000 
     69 H          18.2719   11.5025   12.8488 H         1 NAP400      0.0000 
     70 H          20.6349   11.2176   12.2329 H         1 NAP400      0.0000 
     71 H          25.4088   11.5523    4.6686 H         1 NAP400      0.0000 
     72 H          25.4614   11.0097   11.0456 H         1 NAP400      0.0000 
     73 H          24.5590   10.9161   13.3602 H         1 NAP400      0.0000 
@<TRIPOS>BOND
     1    2    1 ar   
     2    3    1 ar   
     3    4    1 1    
     4   23    1 1    
     5    5    4 1    
     6    6    5 1    
     7   49    5 1    
     8   50    5 1    
     9    7    6 1    
    10    8    6 1    
    11   51    6 1    
    12   12    7 1    
    13    9    8 1    
    14   10    8 1    
    15   52    8 1    
    16   71    9 1    
    17   11   10 1    
    18   12   10 1    
    19   53   10 1    
    20   45   11 1    
    21   13   12 1    
    22   54   12 1    
    23   14   13 1    
    24   22   13 1    
    25   15   14 2    
    26   55   14 1    
    27   16   15 1    
    28   17   16 ar   
    29   22   16 ar   
    30   18   17 1    
    31   19   17 ar   
    32   56   18 1    
    33   57   18 1    
    34   20   19 ar   
    35   21   20 ar   
    36   58   20 1    
    37   22   21 ar   
    38   24   23 1    
    39   25   24 ar   
    40   26   24 ar   
    41   27   24 1    
    42   28   27 1    
    43   29   28 1    
    44   59   28 1    
    45   60   28 1    
    46   30   29 1    
    47   31   29 1    
    48   61   29 1    
    49   35   30 1    
    50   32   31 1    
    51   33   31 1    
    52   62   31 1    
    53   72   32 1    
    54   34   33 1    
    55   35   33 1    
    56   63   33 1    
    57   73   34 1    
    58   36   35 1    
    59   64   35 1    
    60   37   36 ar   
    61   44   36 ar   
    62   38   37 ar   
    63   65   37 1    
    64   39   38 1    
    65   42   38 ar   
    66   40   39 2    
    67   41   39 am   
    68   66   41 1    
    69   67   41 1    
    70   43   42 ar   
    71   68   42 1    
    72   44   43 ar   
    73   69   43 1    
    74   70   44 1    
    75   46   45 ar   
    76   47   45 ar   
    77   48   45 ar   
@<TRIPOS>SUBSTRUCTURE
     1 NAP400      1 GROUP   
@<TRIPOS>SET

