#    Name: 3ihg_VAK_1_INTS_M
#    Modification time : Tue Mar 25 16:32:47 2014

@<TRIPOS>MOLECULE
3ihg_VAK_1_INTS_M
   64     0     9     0     0
SMALL
NO_CHARGES


@<TRIPOS>ATOM
      1 CA         13.2645   38.5835   -3.9945 C.3       3 GLC5        0.0000 
      2 CA         12.1240   37.5030   -5.3360 C.3       9 GLL5        0.0000 
      3 CA         14.4050   39.6640   -2.6530 C.3       6 GLP5        0.0000 
      4 CA         10.5505   39.0005   -5.4480 C.3       3 GLC5        0.0000 
      5 CA          8.9770   40.4980   -5.5600 C.3       6 GLP5        0.0000 
      6 CA          9.4690   36.2925    0.3600 C.3       3 GLC5        0.0000 
      7 CA          7.5040   35.4860   -0.0540 C.3       9 GLL5        0.0000 
      8 CA         11.4340   37.0990    0.7740 C.3       6 GLP5        0.0000 
      9 CA          7.2255   35.2170    2.8405 C.3       3 GLC5        0.0000 
     10 CA          7.5190   34.3740    0.9740 C.3       9 GLL5        0.0000 
     11 CA          6.9320   36.0600    4.7070 C.3       6 GLP5        0.0000 
     12 CA         10.9610   29.1895   -0.5405 C.3       3 GLC5        0.0000 
     13 CA         11.6610   30.8120    0.2040 C.3       9 GLL5        0.0000 
     14 CA         10.2610   27.5670   -1.2850 C.3       6 GLP5        0.0000 
     15 CA         11.4710   29.6710    1.4825 C.3       3 GLC5        0.0000 
     16 CA         11.2810   28.5300    2.7610 C.3       6 GLP5        0.0000 
     17 CA         12.5370   32.4595    0.2790 C.3       3 GLC5        0.0000 
     18 CA         13.4130   34.1070    0.3540 C.3       6 GLP5        0.0000 
     19 CA          8.7830   37.1210   -4.2220 C.3       3 GLC5        0.0000 
     20 CA         10.0030   35.8210   -2.8980 C.3       9 GLL5        0.0000 
     21 CA          7.5630   38.4210   -5.5460 C.3       6 GLP5        0.0000 
     22 N          11.6090   32.1490   -5.6665 N.am      2 SEC2        0.0000 
     23 N          11.5840   32.9230   -4.4130 N.am      8 SEL2        0.0000 
     24 N          11.6340   31.3750   -6.9200 N.am      5 SEP2        0.0000 
     25 N          11.0800   37.6135   -1.9785 N.am      2 SEC2        0.0000 
     26 N          10.3460   38.0740   -3.4140 N.am      8 SEL2        0.0000 
     27 N          11.8140   37.1530   -0.5430 N.am      5 SEP2        0.0000 
     28 N           8.7095   38.3060   -0.8045 N.am      2 SEC2        0.0000 
     29 N           8.7520   37.4380   -1.6330 N.am      8 SEL2        0.0000 
     30 N           8.6670   39.1740    0.0240 N.am      5 SEP2        0.0000 
     31 N           7.5060   37.5055   -2.6615 N.am      2 SEC2        0.0000 
     32 N           6.2600   37.5730   -3.6900 N.am      5 SEP2        0.0000 
     33 CA          8.0120   32.5395    3.7725 C.3       3 GLC5        0.0000 
     34 CA          6.5970   32.2650    2.5520 C.3       9 GLL5        0.0000 
     35 CA          9.4270   32.8140    4.9930 C.3       6 GLP5        0.0000 
     36 CA          6.7645   34.1625    3.6295 C.3       3 GLC5        0.0000 
     37 CA          5.3895   32.4295    4.2690 C.3       3 GLC5        0.0000 
     38 CA          4.1820   32.5940    5.9860 C.3       6 GLP5        0.0000 
     39 O           5.5815   32.0305   -0.8865 O.2       1 ALC1        0.0000 
     40 O           5.9770   33.1830   -0.4290 O.2       7 ALL1        0.0000 
     41 O           5.1860   30.8780   -1.3440 O.2       4 ALP1        0.0000 
     42 CA         13.9730   37.8293   -6.8662 C.3       3 GLC5        0.0000 
     43 CA         13.4240   35.8810   -6.5970 C.3       9 GLL5        0.0000 
     44 CA         15.2580   38.6300   -7.8350 C.3       6 GLP5        0.0000 
     45 CA         11.7115   36.8003   -7.2703 C.3       3 GLC5        0.0000 
     46 CA         13.0800   37.2270   -6.3210 C.3       9 GLL5        0.0000 
     47 CA         10.7350   36.5720   -8.6430 C.3       6 GLP5        0.0000 
     48 CA          6.5841   36.3201   -1.8924 C.3       3 GLC5        0.0000 
     49 CA          9.0700   36.1510   -1.9030 C.3       9 GLL5        0.0000 
     50 CA          5.0340   37.0710   -2.9920 C.3       6 GLP5        0.0000 
     51 CA          6.9558   34.3670   -2.1515 C.3       3 GLC5        0.0000 
     52 CA          5.9300   33.4140   -3.6960 C.3       6 GLP5        0.0000 
     53 CA          6.8475   33.1155   -1.9498 C.3       3 GLC5        0.0000 
     54 CA          8.3110   32.6160   -0.6930 C.3       9 GLL5        0.0000 
     55 CA          7.6132   33.5078   -2.8285 C.3       3 GLC5        0.0000 
     56 CA          8.8310   33.7490   -1.4670 C.3       9 GLL5        0.0000 
     57 CA          4.8913   31.3462    1.7552 C.3       3 GLC5        0.0000 
     58 CA          7.0940   31.8120    1.2170 C.3       9 GLL5        0.0000 
     59 CA          2.9370   30.6540    1.6260 C.3       6 GLP5        0.0000 
     60 CA          7.4407   30.6497    3.2843 C.3       3 GLC5        0.0000 
     61 CA          8.0360   29.2610    4.6840 C.3       6 GLP5        0.0000 
     62 CA         10.9815   35.5823   -6.5112 C.3       3 GLC5        0.0000 
     63 CA         11.8820   35.1520   -4.8800 C.3       9 GLL5        0.0000 
     64 CA         10.0230   35.4240   -8.0270 C.3       6 GLP5        0.0000 
@<TRIPOS>BOND
@<TRIPOS>SUBSTRUCTURE
     1 ALC1       39 GROUP        1 X    ALC  0     ROOT ALC X 1
     2 SEC2       22 GROUP        1 X    SEC  0     **** SEC X 2
     3 GLC5        1 GROUP        1 X    GLC  0     **** GLC X 6
     4 ALP1       41 GROUP        1 Y    ALP  0     ROOT ALP Y 8
     5 SEP2       24 GROUP        1 Y    SEP  0     **** SEP Y 9
     6 GLP5        3 GROUP        1 Y    GLP  0     **** GLP Y 13
     7 ALL1       40 GROUP        1 Z    ALL  0     ROOT ALL Z 15
     8 SEL2       23 GROUP        1 Z    SEL  0     **** SEL Z 16
     9 GLL5        2 GROUP        1 Z    GLL  0     **** GLL Z 20
@<TRIPOS>SET

