#    Name: 3ihg_VAK_1_ligand
#    Modification time : Tue Mar 25 16:32:47 2014

@<TRIPOS>MOLECULE
3ihg_VAK_1_ligand
   50    53     1     0     0
SMALL
NO_CHARGES


@<TRIPOS>ATOM
      1 C1         12.8320   34.8440   -5.8580 C.ar      1 VAK537      0.0000 
      2 C2         13.4240   35.8810   -6.5970 C.ar      1 VAK537      0.0000 
      3 C3         13.0800   37.2270   -6.3210 C.ar      1 VAK537      0.0000 
      4 C4         12.1240   37.5030   -5.3360 C.ar      1 VAK537      0.0000 
      5 C5         10.6120   36.8390   -3.6280 C.2       1 VAK537      0.0000 
      6 C6          9.0700   36.1510   -1.9030 C.ar      1 VAK537      0.0000 
      7 C7          7.5040   35.4860   -0.0540 C.3       1 VAK537      0.0000 
      8 C8          7.5190   34.3740    0.9740 C.3       1 VAK537      0.0000 
      9 C9          7.2190   33.0180    0.2860 C.3       1 VAK537      0.0000 
     10 C10         8.3110   32.6160   -0.6930 C.3       1 VAK537      0.0000 
     11 C11         9.7620   33.4540   -2.4550 C.ar      1 VAK537      0.0000 
     12 C12        11.2790   34.1270   -4.1640 C.2       1 VAK537      0.0000 
     13 C13         7.0940   31.8120    1.2170 C.3       1 VAK537      0.0000 
     14 C14         9.5640   32.2150    0.0790 C.2       1 VAK537      0.0000 
     15 C15        11.6610   30.8120    0.2040 C.3       1 VAK537      0.0000 
     16 C16        11.5230   36.4830   -4.6220 C.ar      1 VAK537      0.0000 
     17 O16        10.3920   31.1040   -0.3840 O.3       1 VAK537      0.0000 
     18 C17        10.0030   35.8210   -2.8980 C.ar      1 VAK537      0.0000 
     19 O17         9.9520   32.8300    1.0540 O.2       1 VAK537      0.0000 
     20 C18        10.3510   34.4790   -3.1670 C.ar      1 VAK537      0.0000 
     21 O18        11.5840   32.9230   -4.4130 O.2       1 VAK537      0.0000 
     22 C19         8.8310   33.7490   -1.4670 C.ar      1 VAK537      0.0000 
     23 O19        11.7710   38.7590   -5.0300 O.3       1 VAK537      0.0000 
     24 C20         8.4590   35.1540   -1.1600 C.ar      1 VAK537      0.0000 
     25 O20        10.3460   38.0740   -3.4140 O.2       1 VAK537      0.0000 
     26 C21        11.8820   35.1520   -4.8800 C.ar      1 VAK537      0.0000 
     27 O21         8.7520   37.4380   -1.6330 O.3       1 VAK537      0.0000 
     28 C22         6.5970   32.2650    2.5520 C.3       1 VAK537      0.0000 
     29 O22         6.1630   35.7800   -0.4320 O.3       1 VAK537      0.0000 
     30 O23         5.9770   33.1830   -0.4290 O.3       1 VAK537      0.0000 
     31 H          13.0954   33.8736   -6.0358 H         1 VAK537      0.0000 
     32 H          14.1003   35.6712   -7.3315 H         1 VAK537      0.0000 
     33 H          13.5276   37.9811   -6.8377 H         1 VAK537      0.0000 
     34 H           7.9356   36.3767    0.4869 H         1 VAK537      0.0000 
     35 H           6.7613   34.5547    1.7274 H         1 VAK537      0.0000 
     36 H           8.4940   34.3155    1.4434 H         1 VAK537      0.0000 
     37 H           8.0279   31.8273   -1.3071 H         1 VAK537      0.0000 
     38 H          10.0082   32.4754   -2.6517 H         1 VAK537      0.0000 
     39 H           8.0693   31.3443    1.3185 H         1 VAK537      0.0000 
     40 H           6.3989   31.1011    0.7792 H         1 VAK537      0.0000 
     41 H          12.0964   30.0211   -0.2260 H         1 VAK537      0.0000 
     42 H          12.2961   31.5795    0.1170 H         1 VAK537      0.0000 
     43 H          11.5801   30.6076    1.1795 H         1 VAK537      0.0000 
     44 H           6.4998   31.5017    3.1907 H         1 VAK537      0.0000 
     45 H           7.2184   32.9242    2.9755 H         1 VAK537      0.0000 
     46 H           5.7024   32.7068    2.4849 H         1 VAK537      0.0000 
     47 H          12.0346   38.8758   -4.0725 H         1 VAK537      0.0000 
     48 H           9.5866   37.9556   -1.8213 H         1 VAK537      0.0000 
     49 H           5.7206   34.8886   -0.5304 H         1 VAK537      0.0000 
     50 H           5.4842   32.3236   -0.2932 H         1 VAK537      0.0000 
@<TRIPOS>BOND
     1    2    1 ar   
     2   26    1 ar   
     3   31    1 1    
     4    3    2 ar   
     5   32    2 1    
     6    4    3 ar   
     7   33    3 1    
     8   16    4 ar   
     9   23    4 1    
    10   16    5 1    
    11   18    5 1    
    12   25    5 2    
    13   18    6 ar   
    14   24    6 ar   
    15   27    6 1    
    16    8    7 1    
    17   24    7 1    
    18   29    7 1    
    19   34    7 1    
    20    9    8 1    
    21   35    8 1    
    22   36    8 1    
    23   10    9 1    
    24   13    9 1    
    25   30    9 1    
    26   14   10 1    
    27   22   10 1    
    28   37   10 1    
    29   20   11 ar   
    30   22   11 ar   
    31   38   11 1    
    32   20   12 1    
    33   21   12 2    
    34   26   12 1    
    35   28   13 1    
    36   39   13 1    
    37   40   13 1    
    38   17   14 1    
    39   19   14 2    
    40   17   15 1    
    41   41   15 1    
    42   42   15 1    
    43   43   15 1    
    44   26   16 ar   
    45   20   18 ar   
    46   24   22 ar   
    47   47   23 1    
    48   48   27 1    
    49   44   28 1    
    50   45   28 1    
    51   46   28 1    
    52   49   29 1    
    53   50   30 1    
@<TRIPOS>SUBSTRUCTURE
     1 VAK537      1 GROUP   
@<TRIPOS>SET

