#    Name: 2ddo_ATP_1_INTS_M
#    Modification time : Tue Mar 25 10:04:25 2014

@<TRIPOS>MOLECULE
2ddo_ATP_1_INTS_M
   50     0    12     0     0
SMALL
NO_CHARGES


@<TRIPOS>ATOM
      1 N          -6.3185    6.8375   47.3215 N.am      2 SEC2        0.0000 
      2 N          -6.4380    8.4310   47.6640 N.am     10 SEL2        0.0000 
      3 N          -6.1990    5.2440   46.9790 N.am      6 SEP2        0.0000 
      4 Zn         -7.3170    7.6430   44.4670 Zn        3 ZIC7        0.0000 
      5 Zn         -7.3460    7.3960   45.5730 Zn       11 ZIL7        0.0000 
      6 Zn         -7.2880    7.8900   43.3610 Zn        7 ZIP7        0.0000 
      7 N          -6.7725    6.3200   46.2760 N.am      2 SEC2        0.0000 
      8 N          -7.3460    7.3960   45.5730 N.am     10 SEL2        0.0000 
      9 N          -8.8860    7.0535   45.4480 N.am      2 SEC2        0.0000 
     10 N         -10.4260    6.7110   45.3230 N.am      6 SEP2        0.0000 
     11 N          -3.7000   13.6460   44.1340 N.am      2 SEC2        0.0000 
     12 N          -4.9440   12.8970   44.4100 N.am     10 SEL2        0.0000 
     13 N          -2.4560   14.3950   43.8580 N.am      6 SEP2        0.0000 
     14 CA         -3.9105   11.4280   46.9785 C.3       4 GLC5        0.0000 
     15 CA         -5.2860   12.4010   48.2540 C.3      12 GLL5        0.0000 
     16 CA         -2.5350   10.4550   45.7030 C.3       8 GLP5        0.0000 
     17 CA         -3.9135   11.6780   49.6575 C.3       4 GLC5        0.0000 
     18 CA         -2.5410   10.9550   51.0610 C.3       8 GLP5        0.0000 
     19 CA         -3.7050   12.8425   50.4710 C.3       4 GLC5        0.0000 
     20 CA         -4.7750   13.6150   49.0610 C.3      12 GLL5        0.0000 
     21 CA         -2.6350   12.0700   51.8810 C.3       8 GLP5        0.0000 
     22 N          -8.3420   13.6895   49.4875 N.am      2 SEC2        0.0000 
     23 N          -6.9660   14.2930   49.6610 N.am     10 SEL2        0.0000 
     24 N          -9.7180   13.0860   49.3140 N.am      6 SEP2        0.0000 
     25 O          -4.9285   16.6395   52.2310 O.2       1 ALC1        0.0000 
     26 O          -4.8700   15.3810   51.2380 O.2       9 ALL1        0.0000 
     27 O          -4.9870   17.8980   53.2240 O.2       5 ALP1        0.0000 
     28 CA         -2.1395   16.0015   48.4970 C.3       4 GLC5        0.0000 
     29 CA         -3.9700   15.8410   48.9390 C.3      12 GLL5        0.0000 
     30 CA         -0.3090   16.1620   48.0550 C.3       8 GLP5        0.0000 
     31 O          -5.2285   21.3170   44.1405 O.2       1 ALC1        0.0000 
     32 O          -4.9040   20.0430   44.6710 O.2       9 ALL1        0.0000 
     33 O          -5.5530   22.5910   43.6100 O.2       5 ALP1        0.0000 
     34 N          -4.9825   22.0495   46.5810 N.am      2 SEC2        0.0000 
     35 N          -4.8180   20.5940   46.9710 N.am     10 SEL2        0.0000 
     36 N          -5.1470   23.5050   46.1910 N.am      6 SEP2        0.0000 
     37 CA         -6.3105   19.9295   48.8320 C.3       4 GLC5        0.0000 
     38 CA         -4.6620   20.1990   48.2480 C.3      12 GLL5        0.0000 
     39 CA         -7.9590   19.6600   49.4160 C.3       8 GLP5        0.0000 
     40 CA         -5.5310   21.7450   48.2530 C.3       4 GLC5        0.0000 
     41 CA         -6.4000   23.2910   48.2580 C.3       8 GLP5        0.0000 
     42 CA         -3.0100   19.8850   47.5820 C.3       4 GLC5        0.0000 
     43 CA         -1.3580   19.5710   46.9160 C.3       8 GLP5        0.0000 
     44 CA         -6.4350   18.1015   48.1130 C.3       4 GLC5        0.0000 
     45 CA         -4.3910   18.0540   47.6160 C.3      12 GLL5        0.0000 
     46 CA         -8.4790   18.1490   48.6100 C.3       8 GLP5        0.0000 
     47 CA         -7.0355   16.6680   49.0760 C.3       4 GLC5        0.0000 
     48 CA         -5.1980   15.7270   49.8890 C.3      12 GLL5        0.0000 
     49 CA         -2.9399   19.0529   46.8895 C.3       4 GLC5        0.0000 
     50 CA         -4.5490   18.3470   46.2750 C.3      12 GLL5        0.0000 
@<TRIPOS>BOND
@<TRIPOS>SUBSTRUCTURE
     1 ALC1       25 GROUP        1 X    ALC  0     ROOT ALC X 1
     2 SEC2        1 GROUP        1 X    SEC  0     **** SEC X 2
     3 ZIC7        4 GROUP        1 X    ZIC  0     **** ZIC X 5
     4 GLC5       14 GROUP        1 X    GLC  0     **** GLC X 6
     5 ALP1       27 GROUP        1 Y    ALP  0     ROOT ALP Y 8
     6 SEP2        3 GROUP        1 Y    SEP  0     **** SEP Y 9
     7 ZIP7        6 GROUP        1 Y    ZIP  0     **** ZIP Y 12
     8 GLP5       16 GROUP        1 Y    GLP  0     **** GLP Y 13
     9 ALL1       26 GROUP        1 Z    ALL  0     ROOT ALL Z 15
    10 SEL2        2 GROUP        1 Z    SEL  0     **** SEL Z 16
    11 ZIL7        5 GROUP        1 Z    ZIL  0     **** ZIL Z 19
    12 GLL5       15 GROUP        1 Z    GLL  0     **** GLL Z 20
@<TRIPOS>SET

