#    Name: 2ddo_ATP_1_ligand
#    Modification time : Tue Mar 25 10:04:25 2014

@<TRIPOS>MOLECULE
2ddo_ATP_1_ligand
   43    45     1     0     0
SMALL
NO_CHARGES


@<TRIPOS>ATOM
      1 PG         -6.7470    8.5830   46.2380 P.3       1 ATP285      0.0000 
      2 O1G        -5.6860    9.0910   45.3220 O.co2     1 ATP285      0.0000 
      3 O2G        -6.4380    8.4310   47.6640 O.co2     1 ATP285      0.0000 
      4 O3G        -7.3460    7.3960   45.5730 O.co2     1 ATP285      0.0000 
      5 PB         -8.0820   11.1950   45.3940 P.3       1 ATP285      0.0000 
      6 O1B        -8.5410   11.1220   43.9730 O.co2     1 ATP285      0.0000 
      7 O2B        -8.7950   12.0790   46.3360 O.co2     1 ATP285      0.0000 
      8 O3B        -7.9660    9.6630   46.0330 O.3       1 ATP285      0.0000 
      9 PA         -5.7280   12.7320   45.6370 P.3       1 ATP285      0.0000 
     10 O1A        -4.9440   12.8970   44.4100 O.co2     1 ATP285      0.0000 
     11 O2A        -6.6670   13.8330   46.0690 O.co2     1 ATP285      0.0000 
     12 O3A        -6.4910   11.3570   45.5380 O.3       1 ATP285      0.0000 
     13 O5'        -4.8270   12.5080   46.9180 O.3       1 ATP285      0.0000 
     14 C5'        -5.2860   12.4010   48.2540 C.3       1 ATP285      0.0000 
     15 C4'        -4.7750   13.6150   49.0610 C.3       1 ATP285      0.0000 
     16 O4'        -3.7730   14.4550   48.4740 O.3       1 ATP285      0.0000 
     17 C3'        -5.9860   14.6470   49.1950 C.3       1 ATP285      0.0000 
     18 O3'        -6.9660   14.2930   49.6610 O.3       1 ATP285      0.0000 
     19 C2'        -5.1980   15.7270   49.8890 C.3       1 ATP285      0.0000 
     20 O2'        -4.8700   15.3810   51.2380 O.3       1 ATP285      0.0000 
     21 C1'        -3.9700   15.8410   48.9390 C.3       1 ATP285      0.0000 
     22 N9         -4.1880   16.6890   47.6890 N.pl3     1 ATP285      0.0000 
     23 C8         -4.2330   16.2890   46.3600 C.2       1 ATP285      0.0000 
     24 N7         -4.4320   17.2320   45.4980 N.2       1 ATP285      0.0000 
     25 C5         -4.5490   18.3470   46.2750 C.ar      1 ATP285      0.0000 
     26 C6         -4.7560   19.6840   45.9450 C.ar      1 ATP285      0.0000 
     27 N6         -4.9040   20.0430   44.6710 N.pl3     1 ATP285      0.0000 
     28 N1         -4.8180   20.5940   46.9710 N.ar      1 ATP285      0.0000 
     29 C2         -4.6620   20.1990   48.2480 C.ar      1 ATP285      0.0000 
     30 N3         -4.4530   18.9410   48.6570 N.ar      1 ATP285      0.0000 
     31 C4         -4.3910   18.0540   47.6160 C.ar      1 ATP285      0.0000 
     32 H          -4.9138   11.5016   48.7516 H         1 ATP285      0.0000 
     33 H          -6.3771   12.4037   48.3211 H         1 ATP285      0.0000 
     34 H          -4.5452   13.3381   50.0610 H         1 ATP285      0.0000 
     35 H          -5.9948   15.0478   48.1118 H         1 ATP285      0.0000 
     36 H          -5.7461   16.6414   49.7906 H         1 ATP285      0.0000 
     37 H          -3.1314   16.1573   49.4812 H         1 ATP285      0.0000 
     38 H          -4.1119   15.3063   46.1287 H         1 ATP285      0.0000 
     39 H          -4.8270   19.3097   43.9954 H         1 ATP285      0.0000 
     40 H          -5.0788   21.0135   44.5048 H         1 ATP285      0.0000 
     41 H          -4.7101   20.9678   49.0099 H         1 ATP285      0.0000 
     42 H          -6.7109   13.5236   50.2466 H         1 ATP285      0.0000 
     43 H          -5.0459   16.2106   51.7679 H         1 ATP285      0.0000 
@<TRIPOS>BOND
     1    2    1 ar   
     2    3    1 ar   
     3    4    1 ar   
     4    8    1 1    
     5    6    5 ar   
     6    7    5 ar   
     7    8    5 1    
     8   12    5 1    
     9   10    9 ar   
    10   11    9 ar   
    11   12    9 1    
    12   13    9 1    
    13   14   13 1    
    14   15   14 1    
    15   32   14 1    
    16   33   14 1    
    17   16   15 1    
    18   17   15 1    
    19   34   15 1    
    20   21   16 1    
    21   18   17 1    
    22   19   17 1    
    23   35   17 1    
    24   42   18 1    
    25   20   19 1    
    26   21   19 1    
    27   36   19 1    
    28   43   20 1    
    29   22   21 1    
    30   37   21 1    
    31   23   22 1    
    32   31   22 1    
    33   24   23 2    
    34   38   23 1    
    35   25   24 1    
    36   26   25 ar   
    37   31   25 ar   
    38   27   26 1    
    39   28   26 ar   
    40   39   27 1    
    41   40   27 1    
    42   29   28 ar   
    43   30   29 ar   
    44   41   29 1    
    45   31   30 ar   
@<TRIPOS>SUBSTRUCTURE
     1 ATP285      1 GROUP   
@<TRIPOS>SET

