#    Name: 1AH3_1_CAVITY_N1_6.mol2
#    Modification time : Mon Mar 10 13:10:52 2014

@<TRIPOS>MOLECULE
1AH3_1_CAVITY_N1_6.mol2
  101     0     5     0     0
SMALL
NO_CHARGES


@<TRIPOS>ATOM
      1 CA         76.3481   39.1687   86.2045 C.3       4 GLY6        0.0000 
      2 CA         75.2529   39.5461   84.4274 C.3       4 GLY6        0.0000 
      3 CA         74.6734   38.6939   83.3375 C.3       4 GLY6        0.0000 
      4 CA         74.5486   40.2891   86.2853 C.3       4 GLY6        0.0000 
      5 CA         73.9691   39.4369   85.1954 C.3       4 GLY6        0.0000 
      6 CA         73.4534   40.6665   84.5081 C.3       4 GLY6        0.0000 
      7 CA         73.3895   38.5847   84.1054 C.3       4 GLY6        0.0000 
      8 OG         73.2647   40.1799   87.0533 O.2       1 SER1        0.0000 
      9 OG         73.2009   38.0982   86.6506 O.2       1 SER1        0.0000 
     10 OG         72.6852   39.3277   85.9633 O.2       1 SER1        0.0000 
     11 CZ         72.1696   40.5573   85.2761 C.ar      3 PHE5        0.0000 
     12 CZ         72.1057   38.4755   84.8734 C.ar      3 PHE5        0.0000 
     13 CZ         71.5262   37.6233   83.7835 C.ar      3 PHE5        0.0000 
     14 OG         71.9809   40.0708   87.8212 O.2       1 SER1        0.0000 
     15 CA         71.4652   41.3003   87.1340 C.3       4 GLY6        0.0000 
     16 OG         71.9170   37.9890   87.4186 O.2       1 SER1        0.0000 
     17 CZ         71.4014   39.2186   86.7313 C.ar      3 PHE5        0.0000 
     18 DU         71.3375   37.1368   86.3286 H         5 CUB7        0.0000 
     19 CZ         70.8218   38.3663   85.6414 C.ar      3 PHE5        0.0000 
     20 CA         71.2765   40.8138   89.6791 C.3       4 GLY6        0.0000 
     21 CZ         70.7609   42.0434   88.9919 C.ar      3 PHE5        0.0000 
     22 CA         70.6970   39.9616   88.5892 C.3       4 GLY6        0.0000 
     23 CZ         70.1814   41.1912   87.9020 C.ar      3 PHE5        0.0000 
     24 CA         70.6331   37.8798   88.1865 C.3       4 GLY6        0.0000 
     25 CZ         70.1175   39.1094   87.4993 C.ar      3 PHE5        0.0000 
     26 DU         70.0536   37.0276   87.0966 H         5 CUB7        0.0000 
     27 CZ         69.5380   38.2572   86.4094 C.ar      3 PHE5        0.0000 
     28 CZ         69.4741   36.1754   86.0067 C.ar      3 PHE5        0.0000 
     29 CA         70.5722   41.5568   91.5370 C.3       4 GLY6        0.0000 
     30 CA         70.0565   42.7864   90.8498 C.3       4 GLY6        0.0000 
     31 CA         69.9927   40.7046   90.4471 C.3       4 GLY6        0.0000 
     32 CZ         69.4770   41.9342   89.7599 C.ar      3 PHE5        0.0000 
     33 CA         69.4132   39.8524   89.3572 C.3       4 GLY6        0.0000 
     34 CZ         68.8975   41.0820   88.6700 C.ar      3 PHE5        0.0000 
     35 CA         69.3493   37.7707   88.9545 C.3       4 GLY6        0.0000 
     36 CZ         68.8336   39.0002   88.2673 C.ar      3 PHE5        0.0000 
     37 CZ         68.7698   36.9184   87.8646 C.ar      3 PHE5        0.0000 
     38 CZ         68.2541   38.1480   87.1774 C.ar      3 PHE5        0.0000 
     39 CZ         68.7059   34.8367   87.4619 C.ar      3 PHE5        0.0000 
     40 CZ         68.1903   36.0662   86.7747 C.ar      3 PHE5        0.0000 
     41 CZ         68.1264   33.9845   86.3720 C.ar      3 PHE5        0.0000 
     42 DU         67.6108   35.2140   85.6848 H         5 CUB7        0.0000 
     43 CZ         67.0951   36.4436   84.9976 C.ar      3 PHE5        0.0000 
     44 DU         67.0313   34.3618   84.5949 H         5 CUB7        0.0000 
     45 CZ         66.5156   35.5914   83.9077 C.ar      3 PHE5        0.0000 
     46 CZ         66.0000   36.8209   83.2204 C.ar      3 PHE5        0.0000 
     47 CA         68.7088   40.5955   91.2151 C.3       4 GLY6        0.0000 
     48 CZ         68.1932   41.8250   90.5279 C.ar      3 PHE5        0.0000 
     49 CA         68.1293   39.7433   90.1252 C.3       4 GLY6        0.0000 
     50 CZ         67.6136   40.9728   89.4380 C.ar      3 PHE5        0.0000 
     51 CA         68.0654   37.6615   89.7225 C.3       4 GLY6        0.0000 
     52 CA         67.5498   38.8910   89.0353 C.3       4 GLY6        0.0000 
     53 CZ         67.0341   40.1206   88.3481 C.ar      3 PHE5        0.0000 
     54 CZ         67.4859   36.8093   88.6326 C.ar      3 PHE5        0.0000 
     55 CZ         66.9703   38.0388   87.9454 C.ar      3 PHE5        0.0000 
     56 CZ         66.4546   39.2684   87.2581 C.ar      3 PHE5        0.0000 
     57 CZ         67.4221   34.7275   88.2299 C.ar      3 PHE5        0.0000 
     58 CZ         66.9064   35.9571   87.5427 C.ar      3 PHE5        0.0000 
     59 CZ         66.3908   37.1866   86.8555 C.ar      3 PHE5        0.0000 
     60 CZ         65.8751   38.4162   86.1682 C.ar      3 PHE5        0.0000 
     61 CZ         66.8426   33.8753   87.1400 C.ar      3 PHE5        0.0000 
     62 O          66.3269   35.1049   86.4528 O.2       2 ALA2        0.0000 
     63 CZ         65.8113   36.3344   85.7656 C.ar      3 PHE5        0.0000 
     64 CZ         65.2956   37.5640   85.0783 C.ar      3 PHE5        0.0000 
     65 CZ         66.2631   33.0231   86.0501 C.ar      3 PHE5        0.0000 
     66 O          65.7474   34.2526   85.3629 O.2       2 ALA2        0.0000 
     67 O          65.2318   35.4822   84.6756 O.2       2 ALA2        0.0000 
     68 N          64.7161   36.7118   83.9884 N.2       2 ALA2        0.0000 
     69 O          65.1679   33.4004   84.2730 O.2       2 ALA2        0.0000 
     70 DU         64.6523   34.6300   83.5857 H         5 CUB7        0.0000 
     71 N          64.1366   35.8596   82.8985 N.2       2 ALA2        0.0000 
     72 CZ         66.8454   39.6341   90.8932 C.ar      3 PHE5        0.0000 
     73 CZ         67.2972   36.3227   91.1777 C.ar      3 PHE5        0.0000 
     74 CA         66.7816   37.5523   90.4905 C.3       4 GLY6        0.0000 
     75 O          66.2659   38.7819   89.8033 O.2       2 ALA2        0.0000 
     76 CZ         65.7503   40.0114   89.1160 C.ar      3 PHE5        0.0000 
     77 CZ         66.7177   35.4705   90.0878 C.ar      3 PHE5        0.0000 
     78 CZ         66.2021   36.7001   89.4006 C.ar      3 PHE5        0.0000 
     79 DU         65.6864   37.9297   88.7134 H         5 CUB7        0.0000 
     80 CZ         65.1708   39.1592   88.0261 C.ar      3 PHE5        0.0000 
     81 CZ         65.6226   35.8479   88.3107 C.ar      3 PHE5        0.0000 
     82 O          65.1069   37.0775   87.6235 O.2       2 ALA2        0.0000 
     83 CA         64.5913   38.3070   86.9362 C.3       4 GLY6        0.0000 
     84 O          64.5274   36.2252   86.5335 O.2       2 ALA2        0.0000 
     85 CA         64.0118   37.4548   85.8463 C.3       4 GLY6        0.0000 
     86 O          63.9479   35.3730   85.4436 O.2       2 ALA2        0.0000 
     87 N          63.4323   36.6026   84.7564 N.2       2 ALA2        0.0000 
     88 O          63.3684   34.5208   84.3537 O.2       2 ALA2        0.0000 
     89 CA         66.0134   36.2136   91.9457 C.3       4 GLY6        0.0000 
     90 CZ         65.4977   37.4431   91.2585 C.ar      3 PHE5        0.0000 
     91 O          64.9821   38.6727   90.5713 O.2       2 ALA2        0.0000 
     92 CZ         65.4339   35.3614   90.8558 C.ar      3 PHE5        0.0000 
     93 CZ         64.9182   36.5909   90.1686 C.ar      3 PHE5        0.0000 
     94 DU         64.4026   37.8205   89.4814 H         5 CUB7        0.0000 
     95 CZ         63.8869   39.0500   88.7941 C.ar      3 PHE5        0.0000 
     96 O          63.8231   36.9683   88.3914 O.2       2 ALA2        0.0000 
     97 CA         63.3074   38.1978   87.7042 C.3       4 GLY6        0.0000 
     98 CA         62.7279   37.3456   86.6143 C.3       4 GLY6        0.0000 
     99 CZ         63.6344   36.4818   90.9366 C.ar      3 PHE5        0.0000 
    100 N          63.1187   37.7113   90.2493 N.2       2 ALA2        0.0000 
    101 CZ         62.5392   36.8591   89.1594 C.ar      3 PHE5        0.0000 
@<TRIPOS>BOND
@<TRIPOS>SUBSTRUCTURE
     1 SER1        8 GROUP   
     2 ALA2       62 GROUP   
     3 PHE5       11 GROUP   
     4 GLY6        1 GROUP   
     5 CUB7       18 GROUP   
@<TRIPOS>SET

