#    Name: 1ah3_TOL_1_INTS_M
#    Modification time : Mon Mar 24 18:23:51 2014

@<TRIPOS>MOLECULE
1ah3_TOL_1_INTS_M
   71     0     6     0     0
SMALL
NO_CHARGES


@<TRIPOS>ATOM
      1 CA         69.7420   40.2020   86.7720 C.3       2 GLC5        0.0000 
      2 CA         71.1310   40.2430   88.3400 C.3       6 GLL5        0.0000 
      3 CA         68.3530   40.1610   85.2040 C.3       4 GLP5        0.0000 
      4 CA         71.3290   38.2820   90.0685 C.3       2 GLC5        0.0000 
      5 CA         71.8760   39.2470   88.8820 C.3       6 GLL5        0.0000 
      6 CA         70.7820   37.3170   91.2550 C.3       4 GLP5        0.0000 
      7 CA         73.7505   39.6575   88.8270 C.3       2 GLC5        0.0000 
      8 CA         75.6250   40.0680   88.7720 C.3       4 GLP5        0.0000 
      9 CA         70.7765   43.0610   88.1460 C.3       2 GLC5        0.0000 
     10 CA         71.6670   41.4160   88.7700 C.3       6 GLL5        0.0000 
     11 CA         69.8860   44.7060   87.5220 C.3       4 GLP5        0.0000 
     12 CA         71.4850   40.4040   90.6835 C.3       2 GLC5        0.0000 
     13 CA         71.3030   39.3920   92.5970 C.3       4 GLP5        0.0000 
     14 CA         73.6460   40.7420   88.7710 C.3       2 GLC5        0.0000 
     15 CA         72.2775   42.4895   90.0870 C.3       2 GLC5        0.0000 
     16 CA         72.8880   43.5630   91.4040 C.3       4 GLP5        0.0000 
     17 CA         70.3110   40.5430   85.7670 C.3       2 GLC5        0.0000 
     18 CA         71.2870   40.1990   86.9900 C.3       6 GLL5        0.0000 
     19 CA         69.3350   40.8870   84.5440 C.3       4 GLP5        0.0000 
     20 CA         67.1810   44.3460   89.3275 C.3       2 GLC5        0.0000 
     21 CA         68.6330   43.1630   90.3820 C.3       6 GLL5        0.0000 
     22 CA         65.7290   45.5290   88.2730 C.3       4 GLP5        0.0000 
     23 CA         67.2925   42.8815   91.6500 C.3       2 GLC5        0.0000 
     24 CA         65.9520   42.6000   92.9180 C.3       4 GLP5        0.0000 
     25 CA         69.2595   43.9345   88.9520 C.3       2 GLC5        0.0000 
     26 CA         70.2730   44.1120   90.8170 C.3       2 GLC5        0.0000 
     27 CA         71.9130   45.0610   91.2520 C.3       4 GLP5        0.0000 
     28 CA         65.3365   35.2325   88.8425 C.3       2 GLC5        0.0000 
     29 CA         65.5520   37.1860   88.6440 C.3       6 GLL5        0.0000 
     30 CA         65.1210   33.2790   89.0410 C.3       4 GLP5        0.0000 
     31 CA         64.0970   35.4285   87.9960 C.3       2 GLC5        0.0000 
     32 CA         64.3750   37.4100   87.4190 C.3       6 GLL5        0.0000 
     33 CA         63.8190   33.4470   88.5730 C.3       4 GLP5        0.0000 
     34 CA         63.0970   38.5055   86.5960 C.3       2 GLC5        0.0000 
     35 CA         61.8190   39.6010   85.7730 C.3       4 GLP5        0.0000 
     36 CA         62.3060   37.1880   87.7230 C.3       2 GLC5        0.0000 
     37 CA         60.2370   36.9660   88.0270 C.3       4 GLP5        0.0000 
     38 CA         65.7840   34.6845   90.6010 C.3       2 GLC5        0.0000 
     39 CA         66.2400   36.4590   90.8440 C.3       6 GLL5        0.0000 
     40 CA         65.3280   32.9100   90.3580 C.3       4 GLP5        0.0000 
     41 CA         66.1450   38.3345   92.0760 C.3       2 GLC5        0.0000 
     42 CA         66.0500   40.2100   93.3080 C.3       4 GLP5        0.0000 
     43 CA         67.4670   35.1435   90.8115 C.3       2 GLC5        0.0000 
     44 CA         68.6940   33.8280   90.7790 C.3       4 GLP5        0.0000 
     45 CA         66.1940   35.6100   92.7355 C.3       2 GLC5        0.0000 
     46 CA         66.1480   34.7610   94.6270 C.3       4 GLP5        0.0000 
     47 CA         67.7085   37.3010   91.8780 C.3       2 GLC5        0.0000 
     48 CA         69.1770   38.1430   92.9120 C.3       4 GLP5        0.0000 
     49 CA         63.8155   34.9800   89.3945 C.3       2 GLC5        0.0000 
     50 CA         63.8120   36.5130   90.2160 C.3       6 GLL5        0.0000 
     51 CA         62.0245   36.7395   89.1215 C.3       2 GLC5        0.0000 
     52 CA         63.0490   36.5650   91.8080 C.3       2 GLC5        0.0000 
     53 CA         62.2860   36.6170   93.4000 C.3       4 GLP5        0.0000 
     54 N          60.5635   37.5265   90.3720 N.am      1 SEC2        0.0000 
     55 N          61.8590   37.8810   90.5370 N.am      5 SEL2        0.0000 
     56 N          59.2680   37.1720   90.2070 N.am      3 SEP2        0.0000 
     57 N          61.5625   39.1685   90.4835 N.am      1 SEC2        0.0000 
     58 N          61.2660   40.4560   90.4300 N.am      3 SEP2        0.0000 
     59 N          64.2770   40.1185   91.0205 N.am      1 SEC2        0.0000 
     60 N          63.8220   38.9310   90.4870 N.am      5 SEL2        0.0000 
     61 N          64.7320   41.3060   91.5540 N.am      3 SEP2        0.0000 
     62 CA         70.2950   39.3770   90.2157 C.3       2 GLC5        0.0000 
     63 CA         70.2040   38.5770   91.9000 C.3       4 GLP5        0.0000 
     64 CA         72.6220   41.8731   87.1342 C.3       2 GLC5        0.0000 
     65 CA         73.9010   43.2320   86.4960 C.3       4 GLP5        0.0000 
     66 CA         69.2145   39.7938   90.7240 C.3       2 GLC5        0.0000 
     67 CA         68.9050   41.1220   89.3940 C.3       6 GLL5        0.0000 
     68 CA         68.7435   38.8852   90.4605 C.3       2 GLC5        0.0000 
     69 CA         66.9190   39.6970   89.3530 C.3       6 GLL5        0.0000 
     70 CA         69.9901   37.6986   89.6050 C.3       2 GLC5        0.0000 
     71 CA         69.7090   37.8700   87.7090 C.3       6 GLL5        0.0000 
@<TRIPOS>BOND
@<TRIPOS>SUBSTRUCTURE
     1 SEC2       54 GROUP        1 X    SEC  0     ROOT SEC X 2
     2 GLC5        1 GROUP        1 X    GLC  0     **** GLC X 6
     3 SEP2       56 GROUP        1 Y    SEP  0     ROOT SEP Y 9
     4 GLP5        3 GROUP        1 Y    GLP  0     **** GLP Y 13
     5 SEL2       55 GROUP        1 Z    SEL  0     ROOT SEL Z 16
     6 GLL5        2 GROUP        1 Z    GLL  0     **** GLL Z 20
@<TRIPOS>SET

