#    Name: 1ah3_TOL_1_ligand
#    Modification time : Mon Mar 24 18:23:51 2014

@<TRIPOS>MOLECULE
1ah3_TOL_1_ligand
   37    38     1     0     0
SMALL
NO_CHARGES


@<TRIPOS>ATOM
      1 C1         71.1310   40.2430   88.3400 C.3       1 TOL320      0.0000 
      2 F1         71.8760   39.2470   88.8820 F         1 TOL320      0.0000 
      3 F2         71.6670   41.4160   88.7700 F         1 TOL320      0.0000 
      4 F3         71.2870   40.1990   86.9900 F         1 TOL320      0.0000 
      5 C2         69.6410   40.1110   88.7230 C.ar      1 TOL320      0.0000 
      6 C3         68.9050   41.1220   89.3940 C.ar      1 TOL320      0.0000 
      7 O1         69.5000   42.2540   89.7240 O.3       1 TOL320      0.0000 
      8 C4         68.6330   43.1630   90.3820 C.3       1 TOL320      0.0000 
      9 C5         67.5450   40.8990   89.7020 C.ar      1 TOL320      0.0000 
     10 C6         66.9190   39.6970   89.3530 C.ar      1 TOL320      0.0000 
     11 C7         67.6470   38.6900   88.6890 C.ar      1 TOL320      0.0000 
     12 C8         67.0030   37.4790   88.3430 C.ar      1 TOL320      0.0000 
     13 C9         67.7290   36.4760   87.6800 C.ar      1 TOL320      0.0000 
     14 C10        69.0760   36.6690   87.3650 C.ar      1 TOL320      0.0000 
     15 C11        69.7090   37.8700   87.7090 C.ar      1 TOL320      0.0000 
     16 C12        69.0040   38.8910   88.3730 C.ar      1 TOL320      0.0000 
     17 C13        65.5520   37.1860   88.6440 C.2       1 TOL320      0.0000 
     18 S1         64.3750   37.4100   87.4190 S.2       1 TOL320      0.0000 
     19 N1         65.2070   36.7430   89.8540 N.am      1 TOL320      0.0000 
     20 C14        66.2400   36.4590   90.8440 C.3       1 TOL320      0.0000 
     21 C15        63.8120   36.5130   90.2160 C.3       1 TOL320      0.0000 
     22 C16        63.0560   37.8360   90.4270 C.2       1 TOL320      0.0000 
     23 O2         61.8590   37.8810   90.5370 O.co2     1 TOL320      0.0000 
     24 O3         63.8220   38.9310   90.4870 O.co2     1 TOL320      0.0000 
     25 H          67.0127   41.6325   90.1890 H         1 TOL320      0.0000 
     26 H          65.9318   39.5453   89.5784 H         1 TOL320      0.0000 
     27 H          67.2630   35.5956   87.4265 H         1 TOL320      0.0000 
     28 H          69.6022   35.9334   86.8825 H         1 TOL320      0.0000 
     29 H          70.7014   38.0104   87.4747 H         1 TOL320      0.0000 
     30 H          63.7375   35.9311   91.1453 H         1 TOL320      0.0000 
     31 H          63.2897   35.9486   89.4309 H         1 TOL320      0.0000 
     32 H          69.1012   44.0122   90.6262 H         1 TOL320      0.0000 
     33 H          67.8526   43.4129   89.8089 H         1 TOL320      0.0000 
     34 H          68.2640   42.7781   91.2280 H         1 TOL320      0.0000 
     35 H          66.8732   35.7525   90.5279 H         1 TOL320      0.0000 
     36 H          66.7865   37.2698   91.0536 H         1 TOL320      0.0000 
     37 H          65.8494   36.1378   91.7067 H         1 TOL320      0.0000 
@<TRIPOS>BOND
     1    2    1 1    
     2    3    1 1    
     3    4    1 1    
     4    5    1 1    
     5    6    5 ar   
     6   16    5 ar   
     7    7    6 1    
     8    9    6 ar   
     9    8    7 1    
    10   32    8 1    
    11   33    8 1    
    12   34    8 1    
    13   10    9 ar   
    14   25    9 1    
    15   11   10 ar   
    16   26   10 1    
    17   12   11 ar   
    18   16   11 ar   
    19   13   12 ar   
    20   17   12 1    
    21   14   13 ar   
    22   27   13 1    
    23   15   14 ar   
    24   28   14 1    
    25   16   15 ar   
    26   29   15 1    
    27   18   17 2    
    28   19   17 am   
    29   20   19 1    
    30   21   19 1    
    31   35   20 1    
    32   36   20 1    
    33   37   20 1    
    34   22   21 1    
    35   30   21 1    
    36   31   21 1    
    37   23   22 ar   
    38   24   22 ar   
@<TRIPOS>SUBSTRUCTURE
     1 TOL320      1 GROUP   
@<TRIPOS>SET

