#    Name: 2qx9_ML2_2_INTS_M
#    Modification time : Mon Mar 24 22:57:03 2014

@<TRIPOS>MOLECULE
2qx9_ML2_2_INTS_M
   36     0     3     0     0
SMALL
NO_CHARGES


@<TRIPOS>ATOM
      1 CA         -3.0490    5.4365   13.8785 C.3       1 GLC5        0.0000 
      2 CA         -3.8080    5.3010   15.8150 C.3       3 GLL5        0.0000 
      3 CA         -2.2900    5.5720   11.9420 C.3       2 GLP5        0.0000 
      4 CA         -4.0930   11.7255   17.1300 C.3       1 GLC5        0.0000 
      5 CA         -3.7590   11.9150   15.2940 C.3       3 GLL5        0.0000 
      6 CA         -4.4270   11.5360   18.9660 C.3       2 GLP5        0.0000 
      7 CA         -1.7160   12.7850   15.4760 C.3       1 GLC5        0.0000 
      8 CA          0.3270   13.6550   15.6580 C.3       2 GLP5        0.0000 
      9 CA         -5.0665    7.2865   12.3570 C.3       1 GLC5        0.0000 
     10 CA         -5.4610    6.5660   14.1640 C.3       3 GLL5        0.0000 
     11 CA         -4.6720    8.0070   10.5500 C.3       2 GLP5        0.0000 
     12 CA         -3.8755    6.0690   13.0530 C.3       1 GLC5        0.0000 
     13 CA         -7.2720   10.4580   11.8895 C.3       1 GLC5        0.0000 
     14 CA         -8.8680    9.2820   12.6840 C.3       3 GLL5        0.0000 
     15 CA         -5.6760   11.6340   11.0950 C.3       2 GLP5        0.0000 
     16 CA         -9.0420   11.1080   12.4325 C.3       1 GLC5        0.0000 
     17 CA         -9.2160   12.9340   12.1810 C.3       2 GLP5        0.0000 
     18 CA         -9.9885    8.8790   11.1680 C.3       1 GLC5        0.0000 
     19 CA        -11.1090    8.4760    9.6520 C.3       2 GLP5        0.0000 
     20 CA         -3.8720    1.3555   14.8755 C.3       1 GLC5        0.0000 
     21 CA         -4.4130    3.3540   15.4240 C.3       3 GLL5        0.0000 
     22 CA         -3.3310   -0.6430   14.3270 C.3       2 GLP5        0.0000 
     23 CA         -4.4190    4.2200   17.4405 C.3       1 GLC5        0.0000 
     24 CA         -4.4250    5.0860   19.4570 C.3       2 GLP5        0.0000 
     25 CA         -2.6845    3.5340   14.6610 C.3       1 GLC5        0.0000 
     26 CA         -0.9560    3.7140   13.8980 C.3       2 GLP5        0.0000 
     27 CA         -8.0165    6.9680   16.3110 C.3       1 GLC5        0.0000 
     28 CA         -6.7760    7.0690   14.8350 C.3       3 GLL5        0.0000 
     29 CA         -9.2570    6.8670   17.7870 C.3       2 GLP5        0.0000 
     30 CA         -1.7448    7.4165   15.1467 C.3       1 GLC5        0.0000 
     31 CA         -2.6950    6.9780   16.6970 C.3       3 GLL5        0.0000 
     32 CA         -1.2360    7.4410   13.2250 C.3       2 GLP5        0.0000 
     33 CA         -2.6085    7.2200   14.3643 C.3       1 GLC5        0.0000 
     34 CA         -3.6250    7.5310   15.7870 C.3       3 GLL5        0.0000 
     35 CA         -2.1360    8.3301   14.7041 C.3       1 GLC5        0.0000 
     36 CA         -3.7100    8.9320   15.5850 C.3       3 GLL5        0.0000 
@<TRIPOS>BOND
@<TRIPOS>SUBSTRUCTURE
     1 GLC5        1 GROUP        1 X    GLC  0     ROOT GLC X 6
     2 GLP5        3 GROUP        1 Y    GLP  0     ROOT GLP Y 13
     3 GLL5        2 GROUP        1 Z    GLL  0     ROOT GLL Z 20
@<TRIPOS>SET

