#    Name: 2qx9_ML2_2_ligand
#    Modification time : Mon Mar 24 22:57:03 2014

@<TRIPOS>MOLECULE
2qx9_ML2_2_ligand
   33    34     1     0     0
SMALL
NO_CHARGES


@<TRIPOS>ATOM
      1 C2         -3.8080    5.3010   15.8150 C.2       1 ML2234      0.0000 
      2 C4         -2.6950    6.9780   16.6970 C.ar      1 ML2234      0.0000 
      3 C5         -1.8120    7.8060   17.4400 C.ar      1 ML2234      0.0000 
      4 C6         -1.8940    9.2190   17.2400 C.ar      1 ML2234      0.0000 
      5 C9         -3.7590   11.9150   15.2940 C.3       1 ML2234      0.0000 
      6 C12        -4.3370    6.4670   15.2200 C.2       1 ML2234      0.0000 
      7 C13        -5.4610    6.5660   14.1640 C.3       1 ML2234      0.0000 
      8 N15        -7.7540    7.5350   13.8470 N.am      1 ML2234      0.0000 
      9 C16        -7.8520    8.8240   13.7000 C.2       1 ML2234      0.0000 
     10 C18        -8.8680    9.2820   12.6840 C.3       1 ML2234      0.0000 
     11 I1         -4.4130    3.3540   15.4240 I         1 ML2234      0.0000 
     12 N3         -2.8300    5.6470   16.6880 N.pl3     1 ML2234      0.0000 
     13 C7         -2.8300    9.7940   16.3230 C.ar      1 ML2234      0.0000 
     14 O8         -2.8440   11.2100   16.1860 O.3       1 ML2234      0.0000 
     15 C10        -3.7100    8.9320   15.5850 C.ar      1 ML2234      0.0000 
     16 C11        -3.6250    7.5310   15.7870 C.ar      1 ML2234      0.0000 
     17 C14        -6.7760    7.0690   14.8350 C.3       1 ML2234      0.0000 
     18 O17        -7.1980    9.6830   14.3100 O.2       1 ML2234      0.0000 
     19 H          -1.1516    7.4165   18.0844 H         1 ML2234      0.0000 
     20 H          -1.2660    9.8373   17.7671 H         1 ML2234      0.0000 
     21 H          -5.6384    5.5913   13.7359 H         1 ML2234      0.0000 
     22 H          -5.1712    7.2664   13.3957 H         1 ML2234      0.0000 
     23 H          -8.2805    6.8336   13.3519 H         1 ML2234      0.0000 
     24 H          -2.3132    5.0179   17.2200 H         1 ML2234      0.0000 
     25 H          -4.3744    9.3243   14.9360 H         1 ML2234      0.0000 
     26 H          -6.5026    7.8733   15.5304 H         1 ML2234      0.0000 
     27 H          -7.1794    6.2388   15.4293 H         1 ML2234      0.0000 
     28 H          -3.6262   12.9054   15.3329 H         1 ML2234      0.0000 
     29 H          -3.6342   11.6397   14.3408 H         1 ML2234      0.0000 
     30 H          -4.7152   11.7381   15.5274 H         1 ML2234      0.0000 
     31 H          -8.9024   10.2791   12.6166 H         1 ML2234      0.0000 
     32 H          -8.6621    8.9334   11.7696 H         1 ML2234      0.0000 
     33 H          -9.7902    8.9719   12.9151 H         1 ML2234      0.0000 
@<TRIPOS>BOND
     1    6    1 2    
     2   11    1 1    
     3   12    1 1    
     4    3    2 ar   
     5   12    2 1    
     6   16    2 ar   
     7    4    3 ar   
     8   19    3 1    
     9   13    4 ar   
    10   20    4 1    
    11   14    5 1    
    12   28    5 1    
    13   29    5 1    
    14   30    5 1    
    15    7    6 1    
    16   16    6 1    
    17   17    7 1    
    18   21    7 1    
    19   22    7 1    
    20    9    8 am   
    21   17    8 1    
    22   23    8 1    
    23   10    9 1    
    24   18    9 2    
    25   31   10 1    
    26   32   10 1    
    27   33   10 1    
    28   24   12 1    
    29   14   13 1    
    30   15   13 ar   
    31   16   15 ar   
    32   25   15 1    
    33   26   17 1    
    34   27   17 1    
@<TRIPOS>SUBSTRUCTURE
     1 ML2234      1 GROUP   
@<TRIPOS>SET

