#    Name: 1NRJ_1_CAVITY_N1_ALL.mol2
#    Modification time : Mon Mar 10 20:10:16 2014

@<TRIPOS>MOLECULE
1NRJ_1_CAVITY_N1_ALL.mol2
  115     0     6     0     0
SMALL
NO_CHARGES


@<TRIPOS>ATOM
      1 NZ         27.0003   49.0021   23.3139 N.2       4 LYS4        0.0000 
      2 DU         25.3601   48.3930   26.1755 H         6 CUB7        0.0000 
      3 DU         25.8834   48.0131   24.8220 H         6 CUB7        0.0000 
      4 DU         26.4067   47.6332   23.4685 H         6 CUB7        0.0000 
      5 DU         26.9300   47.2534   22.1151 H         6 CUB7        0.0000 
      6 N          27.4533   46.8735   20.7616 N.2       2 ALA2        0.0000 
      7 N          24.7665   47.0241   26.3301 N.2       2 ALA2        0.0000 
      8 DU         25.2897   46.6443   24.9767 H         6 CUB7        0.0000 
      9 DU         25.8130   46.2644   23.6232 H         6 CUB7        0.0000 
     10 OG         26.3363   45.8846   22.2697 O.2       1 SER1        0.0000 
     11 N          26.8596   45.5047   20.9163 N.2       2 ALA2        0.0000 
     12 N          24.1728   45.6553   26.4848 N.2       2 ALA2        0.0000 
     13 DU         24.6961   45.2755   25.1313 H         6 CUB7        0.0000 
     14 OG         25.2194   44.8956   23.7778 O.2       1 SER1        0.0000 
     15 OG         25.7427   44.5157   22.4244 O.2       1 SER1        0.0000 
     16 OG         26.2660   44.1359   21.0709 O.2       1 SER1        0.0000 
     17 OD1        23.5792   44.2865   26.6394 O.3       3 ASP3        0.0000 
     18 CA         24.1025   43.9066   25.2860 C.3       5 GLY6        0.0000 
     19 OG         24.6257   43.5268   23.9325 O.2       1 SER1        0.0000 
     20 OG         25.1490   43.1469   22.5790 O.2       1 SER1        0.0000 
     21 CA         25.6723   42.7670   21.2256 C.3       5 GLY6        0.0000 
     22 CA         23.5088   42.5378   25.4406 C.3       5 GLY6        0.0000 
     23 O          24.0321   42.1580   24.0871 O.2       2 ALA2        0.0000 
     24 NZ         25.7261   49.4838   22.6860 N.2       4 LYS4        0.0000 
     25 O          23.0393   49.6344   28.2545 O.2       2 ALA2        0.0000 
     26 O          23.5625   49.2545   26.9011 O.2       2 ALA2        0.0000 
     27 DU         24.0858   48.8747   25.5476 H         6 CUB7        0.0000 
     28 N          24.6091   48.4948   24.1941 N.2       2 ALA2        0.0000 
     29 OG         25.1324   48.1149   22.8407 O.2       1 SER1        0.0000 
     30 O          25.6557   47.7351   21.4872 O.2       2 ALA2        0.0000 
     31 N          23.4922   47.5058   25.7023 N.2       2 ALA2        0.0000 
     32 OG         24.0155   47.1260   24.3488 O.2       1 SER1        0.0000 
     33 OG         24.5388   46.7461   22.9953 O.2       1 SER1        0.0000 
     34 OG         25.0621   46.3663   21.6419 O.2       1 SER1        0.0000 
     35 N          22.8985   46.1370   25.8569 N.2       2 ALA2        0.0000 
     36 OG         23.4218   45.7572   24.5034 O.2       1 SER1        0.0000 
     37 OG         23.9451   45.3773   23.1500 O.2       1 SER1        0.0000 
     38 N          22.3049   44.7682   26.0116 N.2       2 ALA2        0.0000 
     39 CA         22.8282   44.3883   24.6581 C.3       5 GLY6        0.0000 
     40 O          21.2417   50.4960   28.9801 O.2       2 ALA2        0.0000 
     41 N          22.8116   49.3564   24.9197 N.2       2 ALA2        0.0000 
     42 N          20.6481   49.1271   29.1348 N.2       2 ALA2        0.0000 
     43 N          21.6946   48.3674   26.4279 N.2       2 ALA2        0.0000 
     44 OG         22.2179   47.9875   25.0744 O.2       1 SER1        0.0000 
     45 CA         19.5311   48.1382   30.6429 C.3       5 GLY6        0.0000 
     46 N          21.6243   46.6187   25.2290 N.2       2 ALA2        0.0000 
     47 OG         22.1476   46.2389   23.8756 O.2       1 SER1        0.0000 
     48 CA         21.0306   45.2499   25.3837 C.3       5 GLY6        0.0000 
     49 CA         21.5539   44.8700   24.0302 C.3       5 GLY6        0.0000 
     50 CA         19.3738   49.6088   28.5069 C.3       5 GLY6        0.0000 
     51 O          19.8971   49.2290   27.1535 O.2       2 ALA2        0.0000 
     52 O          20.4204   48.8491   25.8000 O.2       2 ALA2        0.0000 
     53 OG         20.9437   48.4693   24.4465 O.2       1 SER1        0.0000 
     54 CA         18.2568   48.6199   30.0150 C.3       5 GLY6        0.0000 
     55 O          18.7801   48.2400   28.6616 O.2       2 ALA2        0.0000 
     56 O          19.3034   47.8602   27.3081 O.2       2 ALA2        0.0000 
     57 CA         19.8267   47.4803   25.9546 C.3       5 GLY6        0.0000 
     58 DU         20.3500   47.1004   24.6012 H         6 CUB7        0.0000 
     59 OG         20.8733   46.7206   23.2477 O.2       1 SER1        0.0000 
     60 CA         19.7564   45.7316   24.7558 C.3       5 GLY6        0.0000 
     61 CA         20.2797   45.3518   23.4024 C.3       5 GLY6        0.0000 
     62 OG         20.8030   44.9719   22.0489 O.2       1 SER1        0.0000 
     63 O          19.1627   44.3628   24.9105 O.2       2 ALA2        0.0000 
     64 CA         19.6860   43.9829   23.5570 C.3       5 GLY6        0.0000 
     65 O          19.1461   49.3308   25.1721 O.2       2 ALA2        0.0000 
     66 N          19.6694   48.9510   23.8187 N.2       2 ALA2        0.0000 
     67 O          17.5059   48.7217   28.0337 O.2       2 ALA2        0.0000 
     68 O          18.0292   48.3419   26.6802 O.2       2 ALA2        0.0000 
     69 CA         18.5525   47.9620   25.3268 C.3       5 GLY6        0.0000 
     70 OD1        19.0758   47.5821   23.9733 O.3       3 ASP3        0.0000 
     71 OG         19.5990   47.2023   22.6198 O.2       1 SER1        0.0000 
     72 O          17.9588   46.5932   25.4814 O.2       2 ALA2        0.0000 
     73 OD1        18.4821   46.2133   24.1280 O.3       3 ASP3        0.0000 
     74 OD1        19.0054   45.8335   22.7745 O.3       3 ASP3        0.0000 
     75 O          17.3652   45.2244   25.6361 O.2       2 ALA2        0.0000 
     76 OD1        17.8885   44.8445   24.2826 O.3       3 ASP3        0.0000 
     77 O          18.4117   44.4646   22.9291 O.2       2 ALA2        0.0000 
     78 CA         16.7549   48.8236   26.0524 C.3       5 GLY6        0.0000 
     79 CA         17.2782   48.4437   24.6989 C.3       5 GLY6        0.0000 
     80 OD1        17.8015   48.0638   23.3454 O.3       3 ASP3        0.0000 
     81 CA         16.1613   47.4548   26.2070 C.3       5 GLY6        0.0000 
     82 OD1        16.6846   47.0749   24.8536 O.3       3 ASP3        0.0000 
     83 CA         15.5676   46.0859   26.3617 C.3       5 GLY6        0.0000 
     84 OD1        16.0909   45.7061   25.0082 O.3       3 ASP3        0.0000 
     85 N          30.3164   42.9688   26.2893 N.2       2 ALA2        0.0000 
     86 CA         29.1995   41.9798   27.7974 C.3       5 GLY6        0.0000 
     87 N          29.0422   43.4505   25.6614 N.2       2 ALA2        0.0000 
     88 CA         27.4019   42.8414   28.5230 C.3       5 GLY6        0.0000 
     89 CA         27.9252   42.4615   27.1696 C.3       5 GLY6        0.0000 
     90 N          28.4485   42.0817   25.8161 N.2       2 ALA2        0.0000 
     91 CA         27.8549   40.7128   25.9707 C.3       5 GLY6        0.0000 
     92 DU         27.2446   44.3120   26.3870 H         6 CUB7        0.0000 
     93 N          27.7679   43.9322   25.0336 N.2       2 ALA2        0.0000 
     94 CA         26.6510   42.9432   26.5417 C.3       5 GLY6        0.0000 
     95 O          27.1743   42.5634   25.1882 O.2       2 ALA2        0.0000 
     96 CA         26.5806   41.1945   25.3429 C.3       5 GLY6        0.0000 
     97 O          27.1039   40.8147   23.9894 O.2       2 ALA2        0.0000 
     98 CA         29.2508   46.0119   20.0360 C.3       5 GLY6        0.0000 
     99 DU         26.0407   46.5424   26.9580 H         6 CUB7        0.0000 
    100 DU         27.0873   45.7827   24.2511 H         6 CUB7        0.0000 
    101 O          27.6106   45.4028   22.8976 O.2       2 ALA2        0.0000 
    102 O          28.1339   45.0230   21.5441 O.2       2 ALA2        0.0000 
    103 OD1        24.9238   45.5535   28.4661 O.3       3 ASP3        0.0000 
    104 OD1        25.4471   45.1736   27.1126 O.3       3 ASP3        0.0000 
    105 DU         25.9704   44.7938   25.7592 H         6 CUB7        0.0000 
    106 O          26.4937   44.4139   24.4057 O.2       2 ALA2        0.0000 
    107 O          27.0169   44.0340   23.0522 O.2       2 ALA2        0.0000 
    108 CA         25.3767   43.4249   25.9138 C.3       5 GLY6        0.0000 
    109 O          25.9000   43.0451   24.5604 O.2       2 ALA2        0.0000 
    110 O          26.4233   42.6652   23.2069 O.2       2 ALA2        0.0000 
    111 O          25.3064   41.6763   24.7150 O.2       2 ALA2        0.0000 
    112 O          25.8296   41.2964   23.3615 O.2       2 ALA2        0.0000 
    113 O          14.8870   47.9365   25.5792 O.2       2 ALA2        0.0000 
    114 OD1        15.4103   47.5566   24.2257 O.3       3 ASP3        0.0000 
    115 O          14.2933   46.5676   25.7338 O.2       2 ALA2        0.0000 
@<TRIPOS>BOND
@<TRIPOS>SUBSTRUCTURE
     1 SER1       10 GROUP   
     2 ALA2        6 GROUP   
     3 ASP3       17 GROUP   
     4 LYS4        1 GROUP   
     5 GLY6       18 GROUP   
     6 CUB7        2 GROUP   
@<TRIPOS>SET

