#    Name: 1nrj_GTP_1_INTS_M
#    Modification time : Mon Mar 24 18:45:49 2014

@<TRIPOS>MOLECULE
1nrj_GTP_1_INTS_M
   65     0    15     0     0
SMALL
NO_CHARGES


@<TRIPOS>ATOM
      1 N          15.3480   48.7780   27.1855 N.am      2 SEC2        0.0000 
      2 N          15.9560   47.9040   25.9810 N.am     12 SEL2        0.0000 
      3 N          14.7400   49.6520   28.3900 N.am      7 SEP2        0.0000 
      4 Zn         16.1255   46.9885   22.6700 Zn        4 ZIC7        0.0000 
      5 Zn         15.8340   47.4000   23.5740 Zn       14 ZIL7        0.0000 
      6 Zn         16.4170   46.5770   21.7660 Zn        9 ZIP7        0.0000 
      7 N          15.5695   48.8065   23.1145 N.am      2 SEC2        0.0000 
      8 N          15.8340   47.4000   23.5740 N.am     12 SEL2        0.0000 
      9 N          15.3050   50.2130   22.6550 N.am      7 SEP2        0.0000 
     10 NZ         14.7540   44.5360   25.3205 N.4       3 LYC4        0.0000 
     11 NZ         14.6400   45.9410   25.2460 N.4      13 LYL4        0.0000 
     12 NZ         14.8680   43.1310   25.3950 N.4       8 LYP4        0.0000 
     13 N          14.7540   44.5360   25.3205 N.am      2 SEC2        0.0000 
     14 N          14.6400   45.9410   25.2460 N.am     12 SEL2        0.0000 
     15 N          14.8680   43.1310   25.3950 N.am      7 SEP2        0.0000 
     16 N          13.2580   45.6620   25.3045 N.am      2 SEC2        0.0000 
     17 N          11.8760   45.3830   25.3630 N.am      7 SEP2        0.0000 
     18 N          17.7850   45.6395   26.6950 N.am      2 SEC2        0.0000 
     19 N          17.3650   45.9980   25.1630 N.am     12 SEL2        0.0000 
     20 N          18.2050   45.2810   28.2270 N.am      7 SEP2        0.0000 
     21 NZ         16.2480   43.3350   25.0960 N.4       3 LYC4        0.0000 
     22 NZ         17.6280   43.5390   24.7970 N.4      13 LYL4        0.0000 
     23 N          18.8995   42.6740   24.9800 N.am      2 SEC2        0.0000 
     24 N          17.6280   43.5390   24.7970 N.am     12 SEL2        0.0000 
     25 N          20.1710   41.8090   25.1630 N.am      7 SEP2        0.0000 
     26 N          18.1345   42.5690   23.7780 N.am      2 SEC2        0.0000 
     27 N          18.6410   41.5990   22.7590 N.am      7 SEP2        0.0000 
     28 N          16.2480   43.3350   25.0960 N.am      2 SEC2        0.0000 
     29 Zn         16.9435   45.8295   22.2660 Zn        4 ZIC7        0.0000 
     30 Zn         17.4700   45.0820   22.7660 Zn       14 ZIL7        0.0000 
     31 N          17.7830   44.1620   21.5825 N.am      2 SEC2        0.0000 
     32 N          17.4700   45.0820   22.7660 N.am     12 SEL2        0.0000 
     33 N          18.0960   43.2420   20.3990 N.am      7 SEP2        0.0000 
     34 N          20.6765   44.0445   20.8445 N.am      2 SEC2        0.0000 
     35 N          20.6310   44.6800   22.1940 N.am     12 SEL2        0.0000 
     36 N          20.7220   43.4090   19.4950 N.am      7 SEP2        0.0000 
     37 N          21.9090   44.3860   21.6310 N.am      2 SEC2        0.0000 
     38 N          23.1870   44.0920   21.0680 N.am      7 SEP2        0.0000 
     39 N          21.5425   47.3840   22.1230 N.am      2 SEC2        0.0000 
     40 N          20.5160   46.9960   22.9930 N.am     12 SEL2        0.0000 
     41 N          22.5690   47.7720   21.2530 N.am      7 SEP2        0.0000 
     42 CA         20.8710   45.4650   26.9050 C.3       5 GLC5        0.0000 
     43 CA         22.0970   45.8190   25.4180 C.3      15 GLL5        0.0000 
     44 CA         19.6450   45.1110   28.3920 C.3      10 GLP5        0.0000 
     45 CA         24.8410   43.2465   26.6200 C.3       5 GLC5        0.0000 
     46 CA         25.3740   44.6700   25.1120 C.3      15 GLL5        0.0000 
     47 CA         24.3080   41.8230   28.1280 C.3      10 GLP5        0.0000 
     48 N          24.5025   40.2435   24.1480 N.am      2 SEC2        0.0000 
     49 N          25.4410   41.3860   23.5410 N.am     12 SEL2        0.0000 
     50 N          23.5640   39.1010   24.7550 N.am      7 SEP2        0.0000 
     51 CA         26.0970   40.4425   26.1780 C.3       5 GLC5        0.0000 
     52 CA         26.5580   41.3070   24.4120 C.3      15 GLL5        0.0000 
     53 CA         25.6360   39.5780   27.9440 C.3      10 GLP5        0.0000 
     54 CA         26.1925   40.0980   22.5950 C.3       5 GLC5        0.0000 
     55 CA         25.8270   38.8890   20.7780 C.3      10 GLP5        0.0000 
     56 N          28.2960   39.2110   22.7745 N.am      2 SEC2        0.0000 
     57 N          27.6150   39.1930   24.1750 N.am     12 SEL2        0.0000 
     58 N          28.9770   39.2290   21.3740 N.am      7 SEP2        0.0000 
     59 O          29.7080   40.1010   25.9945 O.2       1 ALC1        0.0000 
     60 O          28.4290   40.5810   25.6810 O.2      11 ALL1        0.0000 
     61 O          30.9870   39.6210   26.3080 O.2       6 ALP1        0.0000 
     62 O          30.2290   40.7960   26.7960 O.2       1 ALC1        0.0000 
     63 O          29.4710   41.9710   27.2840 O.2      11 ALL1        0.0000 
     64 CA         25.4750   42.1550   26.6270 C.3       5 GLC5        0.0000 
     65 CA         26.6420   42.4870   25.1260 C.3      15 GLL5        0.0000 
@<TRIPOS>BOND
@<TRIPOS>SUBSTRUCTURE
     1 ALC1       59 GROUP        1 X    ALC  0     ROOT ALC X 1
     2 SEC2        1 GROUP        1 X    SEC  0     **** SEC X 2
     3 LYC4       10 GROUP        1 X    LYC  0     **** LYC X 4
     4 ZIC7        4 GROUP        1 X    ZIC  0     **** ZIC X 5
     5 GLC5       42 GROUP        1 X    GLC  0     **** GLC X 6
     6 ALP1       61 GROUP        1 Y    ALP  0     ROOT ALP Y 8
     7 SEP2        3 GROUP        1 Y    SEP  0     **** SEP Y 9
     8 LYP4       12 GROUP        1 Y    LYP  0     **** LYP Y 11
     9 ZIP7        6 GROUP        1 Y    ZIP  0     **** ZIP Y 12
    10 GLP5       44 GROUP        1 Y    GLP  0     **** GLP Y 13
    11 ALL1       60 GROUP        1 Z    ALL  0     ROOT ALL Z 15
    12 SEL2        2 GROUP        1 Z    SEL  0     **** SEL Z 16
    13 LYL4       11 GROUP        1 Z    LYL  0     **** LYL Z 18
    14 ZIL7        5 GROUP        1 Z    ZIL  0     **** ZIL Z 19
    15 GLL5       43 GROUP        1 Z    GLL  0     **** GLL Z 20
@<TRIPOS>SET

