#    Name: 1nrj_GTP_1_ligand
#    Modification time : Mon Mar 24 18:45:49 2014

@<TRIPOS>MOLECULE
1nrj_GTP_1_ligand
   44    46     1     0     0
SMALL
NO_CHARGES


@<TRIPOS>ATOM
      1 PG         15.8330   46.8650   24.9670 P.3       1 GTP1001     0.0000 
      2 O1G        15.9560   47.9040   25.9810 O.co2     1 GTP1001     0.0000 
      3 O2G        15.8340   47.4000   23.5740 O.co2     1 GTP1001     0.0000 
      4 O3G        14.6400   45.9410   25.2460 O.co2     1 GTP1001     0.0000 
      5 O3B        17.3650   45.9980   25.1630 O.3       1 GTP1001     0.0000 
      6 PB         17.9120   44.8820   24.2200 P.3       1 GTP1001     0.0000 
      7 O1B        17.6280   43.5390   24.7970 O.co2     1 GTP1001     0.0000 
      8 O2B        17.4700   45.0820   22.7660 O.co2     1 GTP1001     0.0000 
      9 O3A        19.5110   45.1730   24.4360 O.3       1 GTP1001     0.0000 
     10 PA         20.6250   45.5490   23.3330 P.3       1 GTP1001     0.0000 
     11 O1A        20.6310   44.6800   22.1940 O.co2     1 GTP1001     0.0000 
     12 O2A        20.5160   46.9960   22.9930 O.co2     1 GTP1001     0.0000 
     13 O5'        21.9700   45.2330   24.1550 O.3       1 GTP1001     0.0000 
     14 C5'        22.0970   45.8190   25.4180 C.3       1 GTP1001     0.0000 
     15 C4'        23.5430   46.0030   25.7560 C.3       1 GTP1001     0.0000 
     16 O4'        24.2090   44.7370   25.9230 O.3       1 GTP1001     0.0000 
     17 C3'        24.3480   46.7770   24.7020 C.3       1 GTP1001     0.0000 
     18 O3'        25.2910   47.6920   25.3320 O.3       1 GTP1001     0.0000 
     19 C2'        25.1040   45.6830   23.9970 C.3       1 GTP1001     0.0000 
     20 O2'        26.3270   46.1350   23.3380 O.3       1 GTP1001     0.0000 
     21 C1'        25.3740   44.6700   25.1120 C.3       1 GTP1001     0.0000 
     22 N9         25.6460   43.3070   24.6610 N.pl3     1 GTP1001     0.0000 
     23 C8         24.9250   42.6030   23.7030 C.2       1 GTP1001     0.0000 
     24 N7         25.4410   41.3860   23.5410 N.2       1 GTP1001     0.0000 
     25 C5         26.5580   41.3070   24.4120 C.2       1 GTP1001     0.0000 
     26 C6         27.4880   40.3110   24.6770 C.2       1 GTP1001     0.0000 
     27 O6         27.6150   39.1930   24.1750 O.2       1 GTP1001     0.0000 
     28 N1         28.4290   40.5810   25.6810 N.am      1 GTP1001     0.0000 
     29 C2         28.5110   41.7930   26.3180 C.2       1 GTP1001     0.0000 
     30 N2         29.4710   41.9710   27.2840 N.pl3     1 GTP1001     0.0000 
     31 N3         27.5920   42.7300   26.0780 N.2       1 GTP1001     0.0000 
     32 C4         26.6420   42.4870   25.1260 C.2       1 GTP1001     0.0000 
     33 H          21.6381   45.1994   26.2088 H         1 GTP1001     0.0000 
     34 H          21.6071   46.8077   25.4656 H         1 GTP1001     0.0000 
     35 H          23.6252   46.5698   26.6927 H         1 GTP1001     0.0000 
     36 H          23.6898   47.2365   24.0369 H         1 GTP1001     0.0000 
     37 H          24.4229   45.2059   23.3021 H         1 GTP1001     0.0000 
     38 H          26.2230   45.0622   25.6840 H         1 GTP1001     0.0000 
     39 H          24.1571   42.9757   23.2356 H         1 GTP1001     0.0000 
     40 H          29.0941   39.8138   25.9476 H         1 GTP1001     0.0000 
     41 H          30.0864   41.1985   27.4403 H         1 GTP1001     0.0000 
     42 H          29.4707   42.8576   27.7466 H         1 GTP1001     0.0000 
     43 H          26.1802   47.4586   24.9384 H         1 GTP1001     0.0000 
     44 H          26.0973   46.1747   22.3655 H         1 GTP1001     0.0000 
@<TRIPOS>BOND
     1    2    1 ar   
     2    3    1 ar   
     3    4    1 ar   
     4    5    1 1    
     5    6    5 1    
     6    7    6 ar   
     7    8    6 ar   
     8    9    6 1    
     9   10    9 1    
    10   11   10 ar   
    11   12   10 ar   
    12   13   10 1    
    13   14   13 1    
    14   15   14 1    
    15   33   14 1    
    16   34   14 1    
    17   16   15 1    
    18   17   15 1    
    19   35   15 1    
    20   21   16 1    
    21   18   17 1    
    22   19   17 1    
    23   36   17 1    
    24   43   18 1    
    25   20   19 1    
    26   21   19 1    
    27   37   19 1    
    28   44   20 1    
    29   22   21 1    
    30   38   21 1    
    31   23   22 1    
    32   32   22 1    
    33   24   23 2    
    34   39   23 1    
    35   25   24 1    
    36   26   25 1    
    37   32   25 2    
    38   27   26 2    
    39   28   26 am   
    40   29   28 1    
    41   40   28 1    
    42   30   29 1    
    43   31   29 2    
    44   41   30 1    
    45   42   30 1    
    46   32   31 1    
@<TRIPOS>SUBSTRUCTURE
     1 GTP1001     1 GROUP   
@<TRIPOS>SET

