#    Name: 3khj_IMP_2_INTS_M
#    Modification time : Mon Mar 24 19:30:02 2014

@<TRIPOS>MOLECULE
3khj_IMP_2_INTS_M
   52     0     9     0     0
SMALL
NO_CHARGES


@<TRIPOS>ATOM
      1 N          24.2975   10.2420   10.2825 N.am      2 SEC2        0.0000 
      2 N          25.8510   10.1040    9.5920 N.am      8 SEL2        0.0000 
      3 N          22.7440   10.3800   10.9730 N.am      5 SEP2        0.0000 
      4 N          25.5820   10.0965    8.1430 N.am      2 SEC2        0.0000 
      5 N          25.3130   10.0890    6.6940 N.am      5 SEP2        0.0000 
      6 N          29.3870   10.9980   10.8490 N.am      2 SEC2        0.0000 
      7 N          28.0450   10.7840   10.4890 N.am      8 SEL2        0.0000 
      8 N          30.7290   11.2120   11.2090 N.am      5 SEP2        0.0000 
      9 N          28.5440   10.4340   11.9135 N.am      2 SEC2        0.0000 
     10 N          29.0430   10.0840   13.3380 N.am      5 SEP2        0.0000 
     11 N          24.3775   10.6865   11.4335 N.am      2 SEC2        0.0000 
     12 N          26.0110   10.9930   11.8940 N.am      8 SEL2        0.0000 
     13 N          25.0000   10.3880   12.6785 N.am      2 SEC2        0.0000 
     14 N          23.9890    9.7830   13.4630 N.am      5 SEP2        0.0000 
     15 N          27.5270   10.5385   12.6160 N.am      2 SEC2        0.0000 
     16 N          26.5925   11.8410   12.9510 N.am      2 SEC2        0.0000 
     17 N          27.1740   12.6890   14.0080 N.am      5 SEP2        0.0000 
     18 CA         29.4605   15.6820   10.3965 C.3       3 GLC5        0.0000 
     19 CA         27.6380   16.0290    9.6720 C.3       9 GLL5        0.0000 
     20 CA         31.2830   15.3350   11.1210 C.3       6 GLP5        0.0000 
     21 N          29.8110   15.1670    9.5025 N.am      2 SEC2        0.0000 
     22 N          28.7780   15.9300    8.8550 N.am      8 SEL2        0.0000 
     23 N          30.8440   14.4040   10.1500 N.am      5 SEP2        0.0000 
     24 O          28.9445   15.5120    7.7490 O.2       1 ALC1        0.0000 
     25 O          28.7780   15.9300    8.8550 O.2       7 ALL1        0.0000 
     26 O          29.1110   15.0940    6.6430 O.2       4 ALP1        0.0000 
     27 O          27.7855   17.3810    7.0205 O.2       1 ALC1        0.0000 
     28 O          26.9650   17.6130    7.9680 O.2       7 ALL1        0.0000 
     29 O          28.6060   17.1490    6.0730 O.2       4 ALP1        0.0000 
     30 N          24.4970   18.9560   14.0120 N.am      2 SEC2        0.0000 
     31 N          24.5050   18.3030   12.6740 N.am      8 SEL2        0.0000 
     32 N          24.4890   19.6090   15.3500 N.am      5 SEP2        0.0000 
     33 CA         23.5210   17.8780   14.1150 C.3       3 GLC5        0.0000 
     34 CA         23.2930   18.3170   12.0780 C.3       9 GLL5        0.0000 
     35 CA         23.7490   17.4390   16.1520 C.3       6 GLP5        0.0000 
     36 N          22.1760   20.1815   14.2540 N.am      2 SEC2        0.0000 
     37 N          21.8530   18.9220   13.7100 N.am      8 SEL2        0.0000 
     38 N          22.4990   21.4410   14.7980 N.am      5 SEP2        0.0000 
     39 O          19.6410   18.5125   11.9995 O.2       1 ALC1        0.0000 
     40 O          20.9610   18.6570   11.6610 O.2       7 ALL1        0.0000 
     41 O          18.3210   18.3680   12.3380 O.2       4 ALP1        0.0000 
     42 CA         25.5395   14.0430   11.4525 C.3       3 GLC5        0.0000 
     43 CA         26.9980   13.6910   10.4040 C.3       9 GLL5        0.0000 
     44 CA         24.2240   13.8170   12.9730 C.3       6 GLP5        0.0000 
     45 CA         26.6530   13.2410    8.2030 C.3       3 GLC5        0.0000 
     46 CA         26.4510   12.2130    6.4740 C.3       6 GLP5        0.0000 
     47 CA         27.7967   15.5345   11.6075 C.3       3 GLC5        0.0000 
     48 CA         26.7120   14.8470    9.4600 C.3       9 GLL5        0.0000 
     49 CA         28.3470   15.9200   13.4130 C.3       6 GLP5        0.0000 
     50 CA         23.3517   16.3218   12.6932 C.3       3 GLC5        0.0000 
     51 CA         23.4280   17.7440   10.8170 C.3       9 GLL5        0.0000 
     52 CA         23.3430   14.6130   13.9390 C.3       6 GLP5        0.0000 
@<TRIPOS>BOND
@<TRIPOS>SUBSTRUCTURE
     1 ALC1       24 GROUP        1 X    ALC  0     ROOT ALC X 1
     2 SEC2        1 GROUP        1 X    SEC  0     **** SEC X 2
     3 GLC5       18 GROUP        1 X    GLC  0     **** GLC X 6
     4 ALP1       26 GROUP        1 Y    ALP  0     ROOT ALP Y 8
     5 SEP2        3 GROUP        1 Y    SEP  0     **** SEP Y 9
     6 GLP5       20 GROUP        1 Y    GLP  0     **** GLP Y 13
     7 ALL1       25 GROUP        1 Z    ALL  0     ROOT ALL Z 15
     8 SEL2        2 GROUP        1 Z    SEL  0     **** SEL Z 16
     9 GLL5       19 GROUP        1 Z    GLL  0     **** GLL Z 20
@<TRIPOS>SET

