#    Name: 3khj_IMP_2_ligand
#    Modification time : Mon Mar 24 19:30:02 2014

@<TRIPOS>MOLECULE
3khj_IMP_2_ligand
   34    36     1     0     0
SMALL
NO_CHARGES


@<TRIPOS>ATOM
      1 P          26.5650   11.0840   10.4910 P.3       1 IMP804      0.0000 
      2 O1P        25.8510   10.1040    9.5920 O.co2     1 IMP804      0.0000 
      3 O2P        28.0450   10.7840   10.4890 O.co2     1 IMP804      0.0000 
      4 O3P        26.0110   10.9930   11.8940 O.co2     1 IMP804      0.0000 
      5 O5'        26.3100   12.5640    9.9090 O.3       1 IMP804      0.0000 
      6 C5'        26.9980   13.6910   10.4040 C.3       1 IMP804      0.0000 
      7 C4'        26.7120   14.8470    9.4600 C.3       1 IMP804      0.0000 
      8 O4'        25.4030   15.3410    9.6680 O.3       1 IMP804      0.0000 
      9 C3'        27.6380   16.0290    9.6720 C.3       1 IMP804      0.0000 
     10 O3'        28.7780   15.9300    8.8550 O.3       1 IMP804      0.0000 
     11 C2'        26.7840   17.2290    9.3100 C.3       1 IMP804      0.0000 
     12 O2'        26.9650   17.6130    7.9680 O.3       1 IMP804      0.0000 
     13 C1'        25.3550   16.7460    9.4910 C.3       1 IMP804      0.0000 
     14 N9         24.7490   17.3890   10.6750 N.pl3     1 IMP804      0.0000 
     15 C8         25.3970   17.7410   11.8320 C.2       1 IMP804      0.0000 
     16 N7         24.5050   18.3030   12.6740 N.2       1 IMP804      0.0000 
     17 C5         23.2930   18.3170   12.0780 C.2       1 IMP804      0.0000 
     18 C6         22.0490   18.7750   12.5050 C.2       1 IMP804      0.0000 
     19 O6         21.8530   18.9220   13.7100 O.2       1 IMP804      0.0000 
     20 N1         20.9610   18.6570   11.6610 N.am      1 IMP804      0.0000 
     21 C2         21.1090   18.0860   10.4100 C.2       1 IMP804      0.0000 
     22 N3         22.3490   17.6320    9.9950 N.2       1 IMP804      0.0000 
     23 C4         23.4280   17.7440   10.8170 C.2       1 IMP804      0.0000 
     24 H          28.0766   13.5394   10.4304 H         1 IMP804      0.0000 
     25 H          26.6593   13.9794   11.3986 H         1 IMP804      0.0000 
     26 H          26.8310   14.5084    8.4401 H         1 IMP804      0.0000 
     27 H          27.8598   16.0856   10.7172 H         1 IMP804      0.0000 
     28 H          26.9620   18.0030   10.0093 H         1 IMP804      0.0000 
     29 H          24.8031   17.0086    8.6073 H         1 IMP804      0.0000 
     30 H          26.3351   17.6039   12.0024 H         1 IMP804      0.0000 
     31 H          20.0343   18.9961   11.9649 H         1 IMP804      0.0000 
     32 H          20.2934   17.9980    9.7842 H         1 IMP804      0.0000 
     33 H          28.6087   15.1371    8.2696 H         1 IMP804      0.0000 
     34 H          27.8785   17.2857    7.7262 H         1 IMP804      0.0000 
@<TRIPOS>BOND
     1    2    1 ar   
     2    3    1 ar   
     3    4    1 ar   
     4    5    1 1    
     5    6    5 1    
     6    7    6 1    
     7   24    6 1    
     8   25    6 1    
     9    8    7 1    
    10    9    7 1    
    11   26    7 1    
    12   13    8 1    
    13   10    9 1    
    14   11    9 1    
    15   27    9 1    
    16   33   10 1    
    17   12   11 1    
    18   13   11 1    
    19   28   11 1    
    20   34   12 1    
    21   14   13 1    
    22   29   13 1    
    23   15   14 1    
    24   23   14 1    
    25   16   15 2    
    26   30   15 1    
    27   17   16 1    
    28   18   17 1    
    29   23   17 2    
    30   19   18 2    
    31   20   18 am   
    32   21   20 1    
    33   31   20 1    
    34   22   21 2    
    35   32   21 1    
    36   23   22 1    
@<TRIPOS>SUBSTRUCTURE
     1 IMP804      1 GROUP   
@<TRIPOS>SET

