#    Name: 3s4q_NK0_1_INTS_M
#    Modification time : Tue Mar 25 12:08:59 2014

@<TRIPOS>MOLECULE
3s4q_NK0_1_INTS_M
   76     0     9     0     0
SMALL
NO_CHARGES


@<TRIPOS>ATOM
      1 N           1.9380  -10.0575   17.8075 N.am      2 SEC2        0.0000 
      2 N           1.6890   -8.8790   17.3370 N.am      8 SEL2        0.0000 
      3 N           2.1870  -11.2360   18.2780 N.am      5 SEP2        0.0000 
      4 N          -1.0225   -1.3630   24.1320 N.am      2 SEC2        0.0000 
      5 N           0.2400   -1.7610   24.4560 N.am      8 SEL2        0.0000 
      6 N          -2.2850   -0.9650   23.8080 N.am      5 SEP2        0.0000 
      7 O           2.6435    0.7185   25.1795 O.2       1 ALC1        0.0000 
      8 O           1.5970   -0.3150   25.5270 O.2       7 ALL1        0.0000 
      9 O           3.6900    1.7520   24.8320 O.2       4 ALP1        0.0000 
     10 CA          3.3745   -7.5640   16.7795 C.3       3 GLC5        0.0000 
     11 CA          1.6700   -6.4710   17.4820 C.3       9 GLL5        0.0000 
     12 CA          5.0790   -8.6570   16.0770 C.3       6 GLP5        0.0000 
     13 CA          4.0100   -3.8735   18.1495 C.3       3 GLC5        0.0000 
     14 CA          2.1630   -4.8030   18.9740 C.3       9 GLL5        0.0000 
     15 CA          5.8570   -2.9440   17.3250 C.3       6 GLP5        0.0000 
     16 CA          1.8830   -7.4270   21.7855 C.3       3 GLC5        0.0000 
     17 CA          2.2610   -7.1960   19.9070 C.3       9 GLL5        0.0000 
     18 CA          1.5050   -7.6580   23.6640 C.3       6 GLP5        0.0000 
     19 CA          3.3695   -8.8885   19.3835 C.3       3 GLC5        0.0000 
     20 CA          4.4780  -10.5810   18.8600 C.3       6 GLP5        0.0000 
     21 CA          1.0985   -9.1125   19.9575 C.3       3 GLC5        0.0000 
     22 CA         -0.0640  -11.0290   20.0080 C.3       6 GLP5        0.0000 
     23 CA          2.5300   -4.9130   23.4330 C.3       3 GLC5        0.0000 
     24 CA          3.3830   -3.3760   22.2260 C.3       9 GLL5        0.0000 
     25 CA          1.6770   -6.4500   24.6400 C.3       6 GLP5        0.0000 
     26 CA          6.7245   -1.4835   24.2745 C.3       3 GLC5        0.0000 
     27 CA          4.8970   -1.8960   23.3700 C.3       9 GLL5        0.0000 
     28 CA          8.5520   -1.0710   25.1790 C.3       6 GLP5        0.0000 
     29 CA          6.0100   -5.2440   20.6970 C.3       3 GLC5        0.0000 
     30 CA          5.8980   -3.5790   21.7830 C.3       9 GLL5        0.0000 
     31 CA          6.1220   -6.9090   19.6110 C.3       6 GLP5        0.0000 
     32 CA          6.7165   -2.0950   21.2200 C.3       3 GLC5        0.0000 
     33 CA          7.5350   -0.6110   20.6570 C.3       6 GLP5        0.0000 
     34 CA          0.2030    2.1105   29.1370 C.3       3 GLC5        0.0000 
     35 CA          0.7960    1.0190   27.5140 C.3       9 GLL5        0.0000 
     36 CA         -0.3900    3.2020   30.7600 C.3       6 GLP5        0.0000 
     37 CA         -1.0935   -1.0765   28.6300 C.3       3 GLC5        0.0000 
     38 CA         -0.0780   -0.1640   27.4240 C.3       9 GLL5        0.0000 
     39 CA         -2.1090   -1.9890   29.8360 C.3       6 GLP5        0.0000 
     40 CA         -0.6924   -8.9004   13.2104 C.3       3 GLC5        0.0000 
     41 CA          1.6630   -8.3880   13.0200 C.3       9 GLL5        0.0000 
     42 CA         -2.3120   -9.9490   13.4000 C.3       6 GLP5        0.0000 
     43 CA          2.9564   -6.9490   12.9404 C.3       3 GLC5        0.0000 
     44 CA          0.6020   -7.6320   12.5690 C.3       9 GLL5        0.0000 
     45 CA          4.3900   -5.6420   12.2940 C.3       6 GLP5        0.0000 
     46 CA          3.2935   -8.4153   15.4593 C.3       3 GLC5        0.0000 
     47 CA          1.9130   -8.5020   14.3790 C.3       9 GLL5        0.0000 
     48 CA         -0.8765   -8.7150   14.2348 C.3       3 GLC5        0.0000 
     49 CA          1.1030   -7.8450   15.3040 C.3       9 GLL5        0.0000 
     50 CA         -0.0245   -5.2395   18.4662 C.3       3 GLC5        0.0000 
     51 CA         -1.6290   -4.6350   19.7720 C.3       6 GLP5        0.0000 
     52 CA          4.1455   -6.8042   19.4917 C.3       3 GLC5        0.0000 
     53 CA          2.0770   -6.2030   18.8380 C.3       9 GLL5        0.0000 
     54 CA          0.9227   -5.7938   20.5763 C.3       3 GLC5        0.0000 
     55 CA         -0.3450   -5.2380   21.7460 C.3       6 GLP5        0.0000 
     56 CA          4.0563   -4.3372   23.7223 C.3       3 GLC5        0.0000 
     57 CA          5.2560   -5.5610   24.8440 C.3       6 GLP5        0.0000 
     58 CA          1.2558   -4.1758   22.1732 C.3       3 GLC5        0.0000 
     59 CA          1.4737   -3.4882   24.6928 C.3       3 GLC5        0.0000 
     60 CA          2.3300   -2.8510   22.9750 C.3       9 GLL5        0.0000 
     61 CA          0.5090   -4.6370   25.9510 C.3       6 GLP5        0.0000 
     62 CA          4.3671   -1.4564   25.6938 C.3       3 GLC5        0.0000 
     63 CA          4.6890   -1.1710   27.7100 C.3       6 GLP5        0.0000 
     64 CA          5.0289   -0.7459   22.1250 C.3       3 GLC5        0.0000 
     65 CA          4.7110   -2.9240   22.4450 C.3       9 GLL5        0.0000 
     66 CA          5.5180    0.7810   21.1660 C.3       6 GLP5        0.0000 
     67 CA          5.3035   -4.2778   23.5946 C.3       3 GLC5        0.0000 
     68 CA          2.3923    1.6890   26.9250 C.3       3 GLC5        0.0000 
     69 CA          0.5210    0.4050   26.2080 C.3       9 GLL5        0.0000 
     70 CA          4.1260    2.6660   26.9890 C.3       6 GLP5        0.0000 
     71 CA         -1.1458    0.3027   25.3325 C.3       3 GLC5        0.0000 
     72 CA         -2.5130    0.4850   23.8490 C.3       6 GLP5        0.0000 
     73 CA          0.5058    2.3170   25.9485 C.3       3 GLC5        0.0000 
     74 CA          0.3530    3.9220   25.0360 C.3       6 GLP5        0.0000 
     75 CA          2.0525   -0.6418   28.1040 C.3       3 GLC5        0.0000 
     76 CA          3.7460   -1.7110   28.7390 C.3       6 GLP5        0.0000 
@<TRIPOS>BOND
@<TRIPOS>SUBSTRUCTURE
     1 ALC1        7 GROUP        1 X    ALC  0     ROOT ALC X 1
     2 SEC2        1 GROUP        1 X    SEC  0     **** SEC X 2
     3 GLC5       10 GROUP        1 X    GLC  0     **** GLC X 6
     4 ALP1        9 GROUP        1 Y    ALP  0     ROOT ALP Y 8
     5 SEP2        3 GROUP        1 Y    SEP  0     **** SEP Y 9
     6 GLP5       12 GROUP        1 Y    GLP  0     **** GLP Y 13
     7 ALL1        8 GROUP        1 Z    ALL  0     ROOT ALL Z 15
     8 SEL2        2 GROUP        1 Z    SEL  0     **** SEL Z 16
     9 GLL5       11 GROUP        1 Z    GLL  0     **** GLL Z 20
@<TRIPOS>SET

