#    Name: 3s4q_NK0_1_ligand
#    Modification time : Tue Mar 25 12:08:59 2014

@<TRIPOS>MOLECULE
3s4q_NK0_1_ligand
   55    59     1     0     0
SMALL
NO_CHARGES


@<TRIPOS>ATOM
      1 C1         -0.2190   -6.9990   13.4740 C.ar      1 NK0361      0.0000 
      2 N1          1.7650   -4.2270   17.7170 N.pl3     1 NK0361      0.0000 
      3 O1          1.6890   -8.8790   17.3370 O.2       1 NK0361      0.0000 
      4 C2          0.6020   -7.6320   12.5690 C.ar      1 NK0361      0.0000 
      5 N2          2.2390   -2.4740   19.7900 N.2       1 NK0361      0.0000 
      6 O2          0.2400   -1.7610   24.4560 O.2       1 NK0361      0.0000 
      7 C3          1.6630   -8.3880   13.0200 C.ar      1 NK0361      0.0000 
      8 N3          1.6080   -2.8720   17.4770 N.2       1 NK0361      0.0000 
      9 C4          1.9130   -8.5020   14.3790 C.ar      1 NK0361      0.0000 
     10 N4          3.1060   -4.2310   21.1510 N.pl3     1 NK0361      0.0000 
     11 C5          1.1030   -7.8450   15.3040 C.ar      1 NK0361      0.0000 
     12 N5          1.5970   -0.3150   25.5270 N.am      1 NK0361      0.0000 
     13 C6          0.0150   -7.1170   14.8350 C.ar      1 NK0361      0.0000 
     14 C7          1.4790   -7.8180   16.7490 C.2       1 NK0361      0.0000 
     15 C8          1.6700   -6.4710   17.4820 C.2       1 NK0361      0.0000 
     16 C9          1.4900   -5.2170   16.8390 C.2       1 NK0361      0.0000 
     17 C10         2.1630   -4.8030   18.9740 C.2       1 NK0361      0.0000 
     18 C11         2.0770   -6.2030   18.8380 C.2       1 NK0361      0.0000 
     19 C12         2.2610   -7.1960   19.9070 C.3       1 NK0361      0.0000 
     20 C13         2.4540   -3.8250   20.0100 C.2       1 NK0361      0.0000 
     21 C14         1.8400   -2.0900   18.5740 C.2       1 NK0361      0.0000 
     22 C15         3.3830   -3.3760   22.2260 C.ar      1 NK0361      0.0000 
     23 C16         2.3300   -2.8510   22.9750 C.ar      1 NK0361      0.0000 
     24 C17         2.5470   -1.8280   23.8940 C.ar      1 NK0361      0.0000 
     25 C18         3.8400   -1.3470   24.0760 C.ar      1 NK0361      0.0000 
     26 C19         4.8970   -1.8960   23.3700 C.ar      1 NK0361      0.0000 
     27 C20         4.7110   -2.9240   22.4450 C.ar      1 NK0361      0.0000 
     28 C21         5.8980   -3.5790   21.7830 C.3       1 NK0361      0.0000 
     29 C22         1.3660   -1.3050   24.6490 C.2       1 NK0361      0.0000 
     30 C23         0.5210    0.4050   26.2080 C.3       1 NK0361      0.0000 
     31 C24         0.7960    1.0190   27.5140 C.3       1 NK0361      0.0000 
     32 C25        -0.0780   -0.1640   27.4240 C.3       1 NK0361      0.0000 
     33 H          -1.0164   -6.4309   13.1410 H         1 NK0361      0.0000 
     34 H           0.4253   -7.5419   11.5573 H         1 NK0361      0.0000 
     35 H           2.2766   -8.8731   12.3452 H         1 NK0361      0.0000 
     36 H           2.7030   -9.0761   14.7113 H         1 NK0361      0.0000 
     37 H           3.4172   -5.2336   21.2310 H         1 NK0361      0.0000 
     38 H           2.5670   -0.0098   25.7670 H         1 NK0361      0.0000 
     39 H          -0.6225   -6.6614   15.5077 H         1 NK0361      0.0000 
     40 H           1.2164   -5.1289   15.9270 H         1 NK0361      0.0000 
     41 H           1.6749   -1.0153   18.4260 H         1 NK0361      0.0000 
     42 H           1.3762   -3.2273   22.8452 H         1 NK0361      0.0000 
     43 H           4.0088   -0.5769   24.7415 H         1 NK0361      0.0000 
     44 H           5.8607   -1.5343   23.5308 H         1 NK0361      0.0000 
     45 H          -0.1765    0.9560   25.7794 H         1 NK0361      0.0000 
     46 H           0.2531    1.8005   27.6144 H         1 NK0361      0.0000 
     47 H           1.6620    0.7444   27.8143 H         1 NK0361      0.0000 
     48 H           0.4186   -0.9387   27.6852 H         1 NK0361      0.0000 
     49 H          -0.9902    0.1174   27.4854 H         1 NK0361      0.0000 
     50 H           2.9553   -7.8748   19.6679 H         1 NK0361      0.0000 
     51 H           2.5507   -6.7698   20.7640 H         1 NK0361      0.0000 
     52 H           1.4164   -7.6958   20.0990 H         1 NK0361      0.0000 
     53 H           6.7576   -3.1389   22.0425 H         1 NK0361      0.0000 
     54 H           5.9761   -4.5444   22.0318 H         1 NK0361      0.0000 
     55 H           5.8368   -3.5374   20.7857 H         1 NK0361      0.0000 
@<TRIPOS>BOND
     1    4    1 ar   
     2   13    1 ar   
     3   33    1 1    
     4    8    2 1    
     5   16    2 1    
     6   17    2 1    
     7   14    3 2    
     8    7    4 ar   
     9   34    4 1    
    10   20    5 2    
    11   21    5 1    
    12   29    6 2    
    13    9    7 ar   
    14   35    7 1    
    15   21    8 2    
    16   11    9 ar   
    17   36    9 1    
    18   20   10 1    
    19   22   10 1    
    20   37   10 1    
    21   13   11 ar   
    22   14   11 1    
    23   29   12 am   
    24   30   12 1    
    25   38   12 1    
    26   39   13 1    
    27   15   14 1    
    28   16   15 2    
    29   18   15 1    
    30   40   16 1    
    31   18   17 2    
    32   20   17 1    
    33   19   18 1    
    34   50   19 1    
    35   51   19 1    
    36   52   19 1    
    37   41   21 1    
    38   23   22 ar   
    39   27   22 ar   
    40   24   23 ar   
    41   42   23 1    
    42   25   24 ar   
    43   29   24 1    
    44   26   25 ar   
    45   43   25 1    
    46   27   26 ar   
    47   44   26 1    
    48   28   27 1    
    49   53   28 1    
    50   54   28 1    
    51   55   28 1    
    52   31   30 1    
    53   32   30 1    
    54   45   30 1    
    55   32   31 1    
    56   46   31 1    
    57   47   31 1    
    58   48   32 1    
    59   49   32 1    
@<TRIPOS>SUBSTRUCTURE
     1 NK0361      1 GROUP   
@<TRIPOS>SET

