#    Name: 2q55_MU0_1_INTS_M
#    Modification time : Mon Mar 24 20:45:18 2014

@<TRIPOS>MOLECULE
2q55_MU0_1_INTS_M
  101     0     9     0     0
SMALL
NO_CHARGES


@<TRIPOS>ATOM
      1 CA         16.0360   32.5665   13.7115 C.3       3 GLC5        0.0000 
      2 CA         17.0020   32.9580   15.4550 C.3       9 GLL5        0.0000 
      3 CA         15.0700   32.1750   11.9680 C.3       6 GLP5        0.0000 
      4 CA         16.5935   31.8760   17.3815 C.3       3 GLC5        0.0000 
      5 CA         16.1850   30.7940   19.3080 C.3       6 GLP5        0.0000 
      6 CA         15.9245   31.3365   14.9415 C.3       3 GLC5        0.0000 
      7 CA         14.8470   29.7150   14.4280 C.3       6 GLP5        0.0000 
      8 N          14.6825   33.8910   19.7605 N.am      2 SEC2        0.0000 
      9 N          15.3650   33.7590   18.4220 N.am      8 SEL2        0.0000 
     10 N          14.0000   34.0230   21.0990 N.am      5 SEP2        0.0000 
     11 CA         18.3020   35.0315   13.7445 C.3       3 GLC5        0.0000 
     12 CA         17.0210   34.4920   15.4250 C.3       9 GLL5        0.0000 
     13 CA         19.5830   35.5710   12.0640 C.3       6 GLP5        0.0000 
     14 CA         13.3190   34.8570   16.6310 C.3       3 GLC5        0.0000 
     15 CA         14.6340   36.4350   17.4360 C.3       9 GLL5        0.0000 
     16 CA         12.0040   33.2790   15.8260 C.3       6 GLP5        0.0000 
     17 N          18.5980   28.6470   17.1385 N.am      2 SEC2        0.0000 
     18 N          19.9170   29.1300   16.9890 N.am      8 SEL2        0.0000 
     19 N          17.2790   28.1640   17.2880 N.am      5 SEP2        0.0000 
     20 O          20.7010   28.3470   17.8735 O.2       1 ALC1        0.0000 
     21 O          19.9170   29.1300   16.9890 O.2       7 ALL1        0.0000 
     22 O          21.4850   27.5640   18.7580 O.2       4 ALP1        0.0000 
     23 O          21.3735   28.9670   17.2495 O.2       1 ALC1        0.0000 
     24 O          22.8300   28.8040   17.5100 O.2       4 ALP1        0.0000 
     25 CA         19.3675   26.9475   15.9660 C.3       3 GLC5        0.0000 
     26 CA         18.9610   28.8070   14.8480 C.3       9 GLL5        0.0000 
     27 CA         19.7740   25.0880   17.0840 C.3       6 GLP5        0.0000 
     28 CA         16.9040   29.2610   14.6380 C.3       3 GLC5        0.0000 
     29 O          20.4145   26.8820   13.9475 O.2       1 ALC1        0.0000 
     30 O          20.4560   28.0440   13.0440 O.2       7 ALL1        0.0000 
     31 O          20.3730   25.7200   14.8510 O.2       4 ALP1        0.0000 
     32 CA         22.7905   26.4130   13.5470 C.3       3 GLC5        0.0000 
     33 CA         22.5040   27.6150   11.8970 C.3       9 GLL5        0.0000 
     34 CA         23.0770   25.2110   15.1970 C.3       6 GLP5        0.0000 
     35 CA         24.6385   30.4215   14.4860 C.3       3 GLC5        0.0000 
     36 CA         23.8640   29.2340   13.2210 C.3       9 GLL5        0.0000 
     37 CA         25.4130   31.6090   15.7510 C.3       6 GLP5        0.0000 
     38 CA         26.5125   26.0555   11.6015 C.3       3 GLC5        0.0000 
     39 CA         24.9990   27.5290   11.7340 C.3       9 GLL5        0.0000 
     40 CA         28.0260   24.5820   11.4690 C.3       6 GLP5        0.0000 
     41 CA         26.7755   28.1640   11.9190 C.3       3 GLC5        0.0000 
     42 CA         28.5520   28.7990   12.1040 C.3       6 GLP5        0.0000 
     43 CA         26.0495   28.4605   10.1180 C.3       3 GLC5        0.0000 
     44 CA         27.1000   29.3920    8.5020 C.3       6 GLP5        0.0000 
     45 CA         21.0220   28.9540    8.6045 C.3       3 GLC5        0.0000 
     46 CA         22.3410   27.5590    9.3990 C.3       9 GLL5        0.0000 
     47 CA         19.7030   30.3490    7.8100 C.3       6 GLP5        0.0000 
     48 CA         24.6040   27.4505    7.3925 C.3       3 GLC5        0.0000 
     49 CA         23.0260   26.6630    8.3790 C.3       9 GLL5        0.0000 
     50 CA         26.1820   28.2380    6.4060 C.3       6 GLP5        0.0000 
     51 N          22.9370   24.1945   12.7520 N.am      2 SEC2        0.0000 
     52 N          22.1330   24.9370   11.8530 N.am      8 SEL2        0.0000 
     53 N          23.7410   23.4520   13.6510 N.am      5 SEP2        0.0000 
     54 O          22.2390   23.2390    9.9285 O.2       1 ALC1        0.0000 
     55 O          22.1630   24.7630    9.6380 O.2       7 ALL1        0.0000 
     56 O          22.3150   21.7150   10.2190 O.2       4 ALP1        0.0000 
     57 CA         17.3490   26.0385   13.8745 C.3       3 GLC5        0.0000 
     58 CA         18.0310   27.7420   12.8820 C.3       9 GLL5        0.0000 
     59 CA         16.6670   24.3350   14.8670 C.3       6 GLP5        0.0000 
     60 CA         16.4390   28.7285   13.6550 C.3       3 GLC5        0.0000 
     61 CA         16.5040   30.3075   10.5520 C.3       3 GLC5        0.0000 
     62 CA         17.4660   28.4270   10.5620 C.3       9 GLL5        0.0000 
     63 CA         15.5420   32.1880   10.5420 C.3       6 GLP5        0.0000 
     64 CA         14.5860   37.4225   15.8383 C.3       3 GLC5        0.0000 
     65 CA         15.9240   36.1130   17.0290 C.3       9 GLL5        0.0000 
     66 CA         13.8930   38.5710   14.4440 C.3       6 GLP5        0.0000 
     67 CA         13.3112   36.1778   18.8940 C.3       3 GLC5        0.0000 
     68 CA         12.1350   35.2740   20.1420 C.3       6 GLP5        0.0000 
     69 CA         12.4622   36.9463   17.5450 C.3       3 GLC5        0.0000 
     70 CA         10.4370   36.8110   17.4440 C.3       6 GLP5        0.0000 
     71 CA         13.8335   38.6502   16.6335 C.3       3 GLC5        0.0000 
     72 CA         14.3410   37.7280   17.8560 C.3       9 GLL5        0.0000 
     73 CA         12.8310   39.0870   15.3980 C.3       6 GLP5        0.0000 
     74 CA         15.3295   38.1508   15.8578 C.3       3 GLC5        0.0000 
     75 CA         16.6190   38.3750   17.4850 C.3       9 GLL5        0.0000 
     76 CA         23.5240   31.8885   15.8790 C.3       3 GLC5        0.0000 
     77 CA         21.7520   32.8990   15.8760 C.3       9 GLL5        0.0000 
     78 CA         23.8595   32.7960   15.1288 C.3       3 GLC5        0.0000 
     79 CA         22.1980   33.3110   14.6260 C.3       9 GLL5        0.0000 
     80 CA         22.5015   34.0885   12.4942 C.3       3 GLC5        0.0000 
     81 CA         22.4140   34.6550   14.3870 C.3       9 GLL5        0.0000 
     82 CA         22.6970   34.1940   10.4820 C.3       6 GLP5        0.0000 
     83 CA         23.3362   36.3272   13.9157 C.3       3 GLC5        0.0000 
     84 CA         24.3740   37.5250   12.9450 C.3       6 GLP5        0.0000 
     85 CA         20.9138   35.1822   13.5051 C.3       3 GLC5        0.0000 
     86 CA         22.1830   35.6040   15.3860 C.3       9 GLL5        0.0000 
     87 CA         24.5380   30.6678   11.9503 C.3       3 GLC5        0.0000 
     88 CA         25.2460   32.4990   11.3300 C.3       6 GLP5        0.0000 
     89 CA         24.2658   27.2174   13.8916 C.3       3 GLC5        0.0000 
     90 CA         24.1170   26.2520   15.6310 C.3       6 GLP5        0.0000 
     91 CA         16.7270   26.3672   10.7728 C.3       3 GLC5        0.0000 
     92 CA         18.6210   26.3450   10.8760 C.3       9 GLL5        0.0000 
     93 CA         14.8350   26.4940   11.3560 C.3       6 GLP5        0.0000 
     94 CA         16.2130   28.2210    7.7495 C.3       3 GLC5        0.0000 
     95 CA         17.4520   28.2100    9.1920 C.3       9 GLL5        0.0000 
     96 CA         14.6830   28.8020    6.5730 C.3       6 GLP5        0.0000 
     97 CA         16.2890   27.0670   10.1410 C.3       3 GLC5        0.0000 
     98 CA         18.6537   29.1912    8.7770 C.3       3 GLC5        0.0000 
     99 CA         16.2941   27.2590   11.3535 C.3       3 GLC5        0.0000 
    100 CA         23.7033   34.8173   16.6124 C.3       3 GLC5        0.0000 
    101 CA         25.4140   34.9270   17.5270 C.3       6 GLP5        0.0000 
@<TRIPOS>BOND
@<TRIPOS>SUBSTRUCTURE
     1 ALC1       20 GROUP        1 X    ALC  0     ROOT ALC X 1
     2 SEC2        8 GROUP        1 X    SEC  0     **** SEC X 2
     3 GLC5        1 GROUP        1 X    GLC  0     **** GLC X 6
     4 ALP1       22 GROUP        1 Y    ALP  0     ROOT ALP Y 8
     5 SEP2       10 GROUP        1 Y    SEP  0     **** SEP Y 9
     6 GLP5        3 GROUP        1 Y    GLP  0     **** GLP Y 13
     7 ALL1       21 GROUP        1 Z    ALL  0     ROOT ALL Z 15
     8 SEL2        9 GROUP        1 Z    SEL  0     **** SEL Z 16
     9 GLL5        2 GROUP        1 Z    GLL  0     **** GLL Z 20
@<TRIPOS>SET

