#    Name: 2q55_MU0_1_ligand
#    Modification time : Mon Mar 24 20:45:18 2014

@<TRIPOS>MOLECULE
2q55_MU0_1_ligand
   93    97     1     0     0
SMALL
NO_CHARGES


@<TRIPOS>ATOM
      1 O5         18.6510   32.5180   13.8040 O.2       1 MU0200      0.0000 
      2 C26        18.3230   32.3600   14.9860 C.2       1 MU0200      0.0000 
      3 C27        17.0020   32.9580   15.4550 C.3       1 MU0200      0.0000 
      4 O28        16.5830   32.5760   16.7840 O.3       1 MU0200      0.0000 
      5 C30        15.9920   33.7530   17.3750 C.2       1 MU0200      0.0000 
      6 O30        15.3650   33.7590   18.4220 O.2       1 MU0200      0.0000 
      7 N31        16.2380   34.8040   16.6120 N.am      1 MU0200      0.0000 
      8 C32        17.0210   34.4920   15.4250 C.3       1 MU0200      0.0000 
      9 C33        15.9240   36.1130   17.0290 C.ar      1 MU0200      0.0000 
     10 C38        14.6340   36.4350   17.4360 C.ar      1 MU0200      0.0000 
     11 C37        14.3410   37.7280   17.8560 C.ar      1 MU0200      0.0000 
     12 C36        15.3310   38.6990   17.8820 C.ar      1 MU0200      0.0000 
     13 C35        16.6190   38.3750   17.4850 C.ar      1 MU0200      0.0000 
     14 C34        16.9130   37.0860   17.0580 C.ar      1 MU0200      0.0000 
     15 N4         19.0720   31.6510   15.8420 N.am      1 MU0200      0.0000 
     16 C25        20.2740   30.9420   15.4000 C.3       1 MU0200      0.0000 
     17 C29        21.5180   31.4370   16.1380 C.3       1 MU0200      0.0000 
     18 C4         21.7520   32.8990   15.8760 C.ar      1 MU0200      0.0000 
     19 C9         22.1980   33.3110   14.6260 C.ar      1 MU0200      0.0000 
     20 C8         22.4140   34.6550   14.3870 C.ar      1 MU0200      0.0000 
     21 C5         21.5200   33.8440   16.8840 C.ar      1 MU0200      0.0000 
     22 C6         21.7370   35.2000   16.6380 C.ar      1 MU0200      0.0000 
     23 C7         22.1830   35.6040   15.3860 C.ar      1 MU0200      0.0000 
     24 C24        20.1340   29.4300   15.6030 C.3       1 MU0200      0.0000 
     25 O4         19.9170   29.1300   16.9890 O.3       1 MU0200      0.0000 
     26 C23        18.9610   28.8070   14.8480 C.3       1 MU0200      0.0000 
     27 C12        19.1670   28.6470   13.3470 C.3       1 MU0200      0.0000 
     28 N3         20.4560   28.0440   13.0440 N.am      1 MU0200      0.0000 
     29 C11        21.3020   28.5020   12.1140 C.2       1 MU0200      0.0000 
     30 O2         21.1400   29.5080   11.4360 O.2       1 MU0200      0.0000 
     31 C10        22.5040   27.6150   11.8970 C.3       1 MU0200      0.0000 
     32 C13        23.7960   28.4390   11.9200 C.3       1 MU0200      0.0000 
     33 C14        23.8640   29.2340   13.2210 C.3       1 MU0200      0.0000 
     34 C15        24.9990   27.5290   11.7340 C.3       1 MU0200      0.0000 
     35 N1         22.3800   26.8110   10.6580 N.am      1 MU0200      0.0000 
     36 C2         22.3410   27.5590    9.3990 C.3       1 MU0200      0.0000 
     37 C39        23.0260   26.6630    8.3790 C.3       1 MU0200      0.0000 
     38 C3         22.2320   25.4820   10.7600 C.2       1 MU0200      0.0000 
     39 O1         22.1330   24.9370   11.8530 O.2       1 MU0200      0.0000 
     40 N2         22.1630   24.7630    9.6380 N.am      1 MU0200      0.0000 
     41 C1         22.2630   25.3450    8.3120 C.3       1 MU0200      0.0000 
     42 C22        18.0310   27.7420   12.8820 C.3       1 MU0200      0.0000 
     43 C20        18.0500   27.5000   11.3980 C.ar      1 MU0200      0.0000 
     44 C19        18.6210   26.3450   10.8760 C.ar      1 MU0200      0.0000 
     45 C18        18.6170   26.1360    9.5030 C.ar      1 MU0200      0.0000 
     46 C17        18.0340   27.0700    8.6600 C.ar      1 MU0200      0.0000 
     47 C16        17.4520   28.2100    9.1920 C.ar      1 MU0200      0.0000 
     48 C21        17.4660   28.4270   10.5620 C.ar      1 MU0200      0.0000 
     49 H          16.2156   32.6592   14.7313 H         1 MU0200      0.0000 
     50 H          16.5435   34.8195   14.5395 H         1 MU0200      0.0000 
     51 H          18.0228   34.8202   15.5151 H         1 MU0200      0.0000 
     52 H          13.8975   35.7181   17.4265 H         1 MU0200      0.0000 
     53 H          13.3807   37.9647   18.1497 H         1 MU0200      0.0000 
     54 H          15.1108   39.6524   18.1936 H         1 MU0200      0.0000 
     55 H          17.3601   39.0898   17.5061 H         1 MU0200      0.0000 
     56 H          17.8728   36.8515   16.7608 H         1 MU0200      0.0000 
     57 H          18.8400   31.5702   16.8489 H         1 MU0200      0.0000 
     58 H          20.4372   31.1125   14.3331 H         1 MU0200      0.0000 
     59 H          22.3806   30.8577   15.8029 H         1 MU0200      0.0000 
     60 H          21.3831   31.2692   17.2084 H         1 MU0200      0.0000 
     61 H          22.3651   32.6182   13.8864 H         1 MU0200      0.0000 
     62 H          22.7502   34.9683   13.4610 H         1 MU0200      0.0000 
     63 H          21.1892   33.5349   17.8060 H         1 MU0200      0.0000 
     64 H          21.5682   35.8895   17.3758 H         1 MU0200      0.0000 
     65 H          22.3441   36.5998   15.1911 H         1 MU0200      0.0000 
     66 H          21.0430   28.9453   15.2620 H         1 MU0200      0.0000 
     67 H          18.0578   29.4256   15.0218 H         1 MU0200      0.0000 
     68 H          18.7430   27.8132   15.2877 H         1 MU0200      0.0000 
     69 H          19.0450   29.5996   12.8843 H         1 MU0200      0.0000 
     70 H          20.6967   27.1910   13.6215 H         1 MU0200      0.0000 
     71 H          22.5577   26.9198   12.7600 H         1 MU0200      0.0000 
     72 H          23.7540   29.1399   11.0906 H         1 MU0200      0.0000 
     73 H          22.8888   28.4798    9.4772 H         1 MU0200      0.0000 
     74 H          21.3294   27.7359    9.0835 H         1 MU0200      0.0000 
     75 H          24.0430   26.4746    8.6872 H         1 MU0200      0.0000 
     76 H          23.0091   27.1380    7.4101 H         1 MU0200      0.0000 
     77 H          22.0302   23.7199    9.6644 H         1 MU0200      0.0000 
     78 H          22.7940   24.6770    7.6270 H         1 MU0200      0.0000 
     79 H          21.2720   25.5446    7.8930 H         1 MU0200      0.0000 
     80 H          17.0734   28.2016   13.1683 H         1 MU0200      0.0000 
     81 H          18.1046   26.7814   13.4131 H         1 MU0200      0.0000 
     82 H          19.0433   25.6505   11.5027 H         1 MU0200      0.0000 
     83 H          19.0475   25.2865    9.1116 H         1 MU0200      0.0000 
     84 H          18.0336   26.9171    7.6431 H         1 MU0200      0.0000 
     85 H          17.0069   28.8995    8.5676 H         1 MU0200      0.0000 
     86 H          17.0396   29.2807   10.9498 H         1 MU0200      0.0000 
     87 H          24.6949   29.7878   13.2748 H         1 MU0200      0.0000 
     88 H          23.0888   29.8586   13.3155 H         1 MU0200      0.0000 
     89 H          23.8579   28.6360   14.0224 H         1 MU0200      0.0000 
     90 H          25.8575   28.0417   11.7434 H         1 MU0200      0.0000 
     91 H          25.0601   26.8416   12.4577 H         1 MU0200      0.0000 
     92 H          24.9613   27.0365   10.8645 H         1 MU0200      0.0000 
     93 H          20.8063   28.8251   17.3300 H         1 MU0200      0.0000 
@<TRIPOS>BOND
     1    2    1 2    
     2    3    2 1    
     3   15    2 am   
     4    4    3 1    
     5    8    3 1    
     6   49    3 1    
     7    5    4 1    
     8    6    5 2    
     9    7    5 am   
    10    8    7 1    
    11    9    7 1    
    12   50    8 1    
    13   51    8 1    
    14   10    9 ar   
    15   14    9 ar   
    16   11   10 ar   
    17   52   10 1    
    18   12   11 ar   
    19   53   11 1    
    20   13   12 ar   
    21   54   12 1    
    22   14   13 ar   
    23   55   13 1    
    24   56   14 1    
    25   16   15 1    
    26   57   15 1    
    27   17   16 1    
    28   24   16 1    
    29   58   16 1    
    30   18   17 1    
    31   59   17 1    
    32   60   17 1    
    33   19   18 ar   
    34   21   18 ar   
    35   20   19 ar   
    36   61   19 1    
    37   23   20 ar   
    38   62   20 1    
    39   22   21 ar   
    40   63   21 1    
    41   23   22 ar   
    42   64   22 1    
    43   65   23 1    
    44   25   24 1    
    45   26   24 1    
    46   66   24 1    
    47   93   25 1    
    48   27   26 1    
    49   67   26 1    
    50   68   26 1    
    51   28   27 1    
    52   42   27 1    
    53   69   27 1    
    54   29   28 am   
    55   70   28 1    
    56   30   29 2    
    57   31   29 1    
    58   32   31 1    
    59   35   31 1    
    60   71   31 1    
    61   33   32 1    
    62   34   32 1    
    63   72   32 1    
    64   87   33 1    
    65   88   33 1    
    66   89   33 1    
    67   90   34 1    
    68   91   34 1    
    69   92   34 1    
    70   36   35 1    
    71   38   35 am   
    72   37   36 1    
    73   73   36 1    
    74   74   36 1    
    75   41   37 1    
    76   75   37 1    
    77   76   37 1    
    78   39   38 2    
    79   40   38 am   
    80   41   40 1    
    81   77   40 1    
    82   78   41 1    
    83   79   41 1    
    84   43   42 1    
    85   80   42 1    
    86   81   42 1    
    87   44   43 ar   
    88   48   43 ar   
    89   45   44 ar   
    90   82   44 1    
    91   46   45 ar   
    92   83   45 1    
    93   47   46 ar   
    94   84   46 1    
    95   48   47 ar   
    96   85   47 1    
    97   86   48 1    
@<TRIPOS>SUBSTRUCTURE
     1 MU0200      1 GROUP   
@<TRIPOS>SET

