#    Name: 1p2a_5BN_1_INTS_M
#    Modification time : Mon Mar 24 21:03:05 2014

@<TRIPOS>MOLECULE
1p2a_5BN_1_INTS_M
   59     0    12     0     0
SMALL
NO_CHARGES


@<TRIPOS>ATOM
      1 OD1        15.6490   -4.2975    9.3120 O.co2     3 ASC3        0.0000 
      2 OD1        14.2480   -4.1650    8.4140 O.co2    11 ASL3        0.0000 
      3 OD1        17.0500   -4.4300   10.2100 O.co2     7 ASP3        0.0000 
      4 O          15.6490   -4.2975    9.3120 O.2       1 ALC1        0.0000 
      5 O          14.2480   -4.1650    8.4140 O.2       9 ALL1        0.0000 
      6 O          17.0500   -4.4300   10.2100 O.2       5 ALP1        0.0000 
      7 CA         14.4925   -8.0485    6.8520 C.3       4 GLC5        0.0000 
      8 CA         14.2350   -6.6630    8.1460 C.3      12 GLL5        0.0000 
      9 CA         14.7500   -9.4340    5.5580 C.3       8 GLP5        0.0000 
     10 CA         15.9810   -7.9215    8.5810 C.3       4 GLC5        0.0000 
     11 CA         17.7270   -9.1800    9.0160 C.3       8 GLP5        0.0000 
     12 O          15.8520   -5.6355    9.8945 O.2       1 ALC1        0.0000 
     13 O          14.6540   -6.8410    9.5790 O.2       9 ALL1        0.0000 
     14 CA         11.3130  -11.2680    8.4835 C.3       4 GLC5        0.0000 
     15 CA         10.1780   -9.5910    9.2850 C.3      12 GLL5        0.0000 
     16 CA         12.4480  -12.9450    7.6820 C.3       8 GLP5        0.0000 
     17 CA          7.3890  -11.9385   11.7430 C.3       4 GLC5        0.0000 
     18 CA          8.8440  -10.9860   10.4120 C.3      12 GLL5        0.0000 
     19 CA          5.9340  -12.8910   13.0740 C.3       8 GLP5        0.0000 
     20 CA          6.9000  -10.3645   10.8115 C.3       4 GLC5        0.0000 
     21 CA          4.9560   -9.7430   11.2110 C.3       8 GLP5        0.0000 
     22 O           9.2400  -11.3670   12.3255 O.2       1 ALC1        0.0000 
     23 O           9.9430  -10.6700   11.1860 O.2       9 ALL1        0.0000 
     24 O           8.5370  -12.0640   13.4650 O.2       5 ALP1        0.0000 
     25 CA         12.9135  -11.0835   11.2525 C.3       4 GLC5        0.0000 
     26 CA         12.6380   -9.5240   12.3740 C.3      12 GLL5        0.0000 
     27 CA         13.1890  -12.6430   10.1310 C.3       8 GLP5        0.0000 
     28 N          10.4650  -11.4805   14.7485 N.am      2 SEC2        0.0000 
     29 N          11.2490  -11.0870   13.6800 N.am     10 SEL2        0.0000 
     30 N           9.6810  -11.8740   15.8170 N.am      6 SEP2        0.0000 
     31 O          13.3700  -10.7355   15.8795 O.2       1 ALC1        0.0000 
     32 O          13.2200  -10.1960   14.5470 O.2       9 ALL1        0.0000 
     33 O          13.5200  -11.2750   17.2120 O.2       5 ALP1        0.0000 
     34 CA         16.1840   -9.2690   11.3520 C.3       4 GLC5        0.0000 
     35 CA         15.8260   -7.4800   12.5230 C.3      12 GLL5        0.0000 
     36 CA         16.5420  -11.0580   10.1810 C.3       8 GLP5        0.0000 
     37 CA         17.1905   -7.9025   10.4540 C.3       4 GLC5        0.0000 
     38 CA         16.6540   -6.6250   11.8920 C.3      12 GLL5        0.0000 
     39 CA         10.8950   -7.8280   11.5968 C.3       4 GLC5        0.0000 
     40 CA         12.0310   -9.2810   11.0660 C.3      12 GLL5        0.0000 
     41 CA          9.3660   -6.8400   12.5570 C.3       8 GLP5        0.0000 
     42 CA         12.3975  -10.9820   10.3636 C.3       4 GLC5        0.0000 
     43 CA         10.7880   -9.8260   10.5560 C.3      12 GLL5        0.0000 
     44 CA          9.9245   -8.2742   11.2387 C.3       4 GLC5        0.0000 
     45 CA         14.2802  -10.9010   13.1552 C.3       4 GLC5        0.0000 
     46 CA         15.3260  -12.5890   13.7670 C.3       8 GLP5        0.0000 
     47 CA         15.0482  -10.8188   14.0462 C.3       4 GLC5        0.0000 
     48 CA         14.1860   -9.3060   14.0450 C.3      12 GLL5        0.0000 
     49 CA         14.3053   -8.5592   16.1857 C.3       4 GLC5        0.0000 
     50 CA         13.8400   -8.0700   18.0460 C.3       8 GLP5        0.0000 
     51 CA         12.2466   -8.3622   13.9171 C.3       4 GLC5        0.0000 
     52 CA         10.7830   -7.4650   14.5400 C.3       8 GLP5        0.0000 
     53 CA         16.2244   -9.4454   15.5341 C.3       4 GLC5        0.0000 
     54 CA         15.3550   -8.7910   14.6060 C.3      12 GLL5        0.0000 
     55 CA         16.9840  -10.4240   16.9870 C.3       8 GLP5        0.0000 
     56 CA         16.3370   -5.2258   12.2168 C.3       4 GLC5        0.0000 
     57 CA         16.4340   -3.3990   12.2260 C.3       8 GLP5        0.0000 
     58 CA         15.3119   -9.7188   11.0781 C.3       4 GLC5        0.0000 
     59 CA         14.6070   -7.9950   11.9020 C.3      12 GLL5        0.0000 
@<TRIPOS>BOND
@<TRIPOS>SUBSTRUCTURE
     1 ALC1        4 GROUP        1 X    ALC  0     ROOT ALC X 1
     2 SEC2       28 GROUP        1 X    SEC  0     **** SEC X 2
     3 ASC3        1 GROUP        1 X    ASC  0     **** ASC X 3
     4 GLC5        7 GROUP        1 X    GLC  0     **** GLC X 6
     5 ALP1        6 GROUP        1 Y    ALP  0     ROOT ALP Y 8
     6 SEP2       30 GROUP        1 Y    SEP  0     **** SEP Y 9
     7 ASP3        3 GROUP        1 Y    ASP  0     **** ASP Y 10
     8 GLP5        9 GROUP        1 Y    GLP  0     **** GLP Y 13
     9 ALL1        5 GROUP        1 Z    ALL  0     ROOT ALL Z 15
    10 SEL2       29 GROUP        1 Z    SEL  0     **** SEL Z 16
    11 ASL3        2 GROUP        1 Z    ASL  0     **** ASL Z 17
    12 GLL5        8 GROUP        1 Z    GLL  0     **** GLL Z 20
@<TRIPOS>SET

