#    Name: 1p2a_5BN_1_ligand
#    Modification time : Mon Mar 24 21:03:05 2014

@<TRIPOS>MOLECULE
1p2a_5BN_1_ligand
   39    42     1     0     0
SMALL
NO_CHARGES


@<TRIPOS>ATOM
      1 N22        14.2480   -4.1650    8.4140 N.4       1 5BN301      0.0000 
      2 C21        14.5350   -5.2790    7.5030 C.3       1 5BN301      0.0000 
      3 C20        14.2350   -6.6630    8.1460 C.3       1 5BN301      0.0000 
      4 N19        14.6540   -6.8410    9.5790 N.pl3     1 5BN301      0.0000 
      5 C7         14.0580   -7.7190   10.5730 C.ar      1 5BN301      0.0000 
      6 C8         12.8170   -8.3510   10.2070 C.ar      1 5BN301      0.0000 
      7 C9         12.0310   -9.2810   11.0660 C.ar      1 5BN301      0.0000 
      8 C14        10.7880   -9.8260   10.5560 C.2       1 5BN301      0.0000 
      9 C15        10.1780   -9.5910    9.2850 C.2       1 5BN301      0.0000 
     10 C16         8.9770  -10.3170    9.2160 C.2       1 5BN301      0.0000 
     11 C17         8.8440  -10.9860   10.4120 C.2       1 5BN301      0.0000 
     12 N18         9.9430  -10.6700   11.1860 N.pl3     1 5BN301      0.0000 
     13 C10        12.6380   -9.5240   12.3740 C.ar      1 5BN301      0.0000 
     14 C11        12.2270  -10.3760   13.5550 C.2       1 5BN301      0.0000 
     15 O13        11.2490  -11.0870   13.6800 O.2       1 5BN301      0.0000 
     16 N12        13.2200  -10.1960   14.5470 N.am      1 5BN301      0.0000 
     17 C6         14.1860   -9.3060   14.0450 C.ar      1 5BN301      0.0000 
     18 C1         15.3550   -8.7910   14.6060 C.ar      1 5BN301      0.0000 
     19 C2         16.1590   -7.8850   13.8370 C.ar      1 5BN301      0.0000 
     20 C3         15.8260   -7.4800   12.5230 C.ar      1 5BN301      0.0000 
     21 F          16.6540   -6.6250   11.8920 F         1 5BN301      0.0000 
     22 C4         14.6070   -7.9950   11.9020 C.ar      1 5BN301      0.0000 
     23 C5         13.8310   -8.9020   12.7130 C.ar      1 5BN301      0.0000 
     24 H          15.5924   -5.2777    7.2007 H         1 5BN301      0.0000 
     25 H          13.9319   -5.2031    6.5865 H         1 5BN301      0.0000 
     26 H          14.7230   -7.4399    7.5150 H         1 5BN301      0.0000 
     27 H          13.1411   -6.8480    8.0510 H         1 5BN301      0.0000 
     28 H          15.4775   -6.2528    9.8808 H         1 5BN301      0.0000 
     29 H          12.4173   -8.1527    9.2615 H         1 5BN301      0.0000 
     30 H          10.5345   -9.0365    8.6115 H         1 5BN301      0.0000 
     31 H           8.3875  -10.3321    8.4842 H         1 5BN301      0.0000 
     32 H           8.1308  -11.5582   10.6604 H         1 5BN301      0.0000 
     33 H          10.0800  -11.0282   12.0931 H         1 5BN301      0.0000 
     34 H          13.2279  -10.6037   15.3944 H         1 5BN301      0.0000 
     35 H          15.6481   -9.0427   15.5438 H         1 5BN301      0.0000 
     36 H          17.0261   -7.5129   14.2735 H         1 5BN301      0.0000 
     37 H          14.7960   -4.2173    9.2488 H         1 5BN301      0.0000 
     38 H          14.4420   -3.2799    7.9910 H         1 5BN301      0.0000 
     39 H          13.2881   -4.1520    8.6939 H         1 5BN301      0.0000 
@<TRIPOS>BOND
     1    2    1 1    
     2   37    1 1    
     3   38    1 1    
     4   39    1 1    
     5    3    2 1    
     6   24    2 1    
     7   25    2 1    
     8    4    3 1    
     9   26    3 1    
    10   27    3 1    
    11    5    4 1    
    12   28    4 1    
    13    6    5 ar   
    14   22    5 ar   
    15    7    6 ar   
    16   29    6 1    
    17    8    7 1    
    18   13    7 ar   
    19    9    8 2    
    20   12    8 1    
    21   10    9 1    
    22   30    9 1    
    23   11   10 2    
    24   31   10 1    
    25   12   11 1    
    26   32   11 1    
    27   33   12 1    
    28   14   13 1    
    29   23   13 ar   
    30   15   14 2    
    31   16   14 am   
    32   17   16 1    
    33   34   16 1    
    34   18   17 ar   
    35   23   17 ar   
    36   19   18 ar   
    37   35   18 1    
    38   20   19 ar   
    39   36   19 1    
    40   21   20 1    
    41   22   20 ar   
    42   23   22 ar   
@<TRIPOS>SUBSTRUCTURE
     1 5BN301      1 GROUP   
@<TRIPOS>SET

