#    Name: 1wxj_IPL_1_INTS_M
#    Modification time : Tue Mar 25 09:27:40 2014

@<TRIPOS>MOLECULE
1wxj_IPL_1_INTS_M
   43     0     6     0     0
SMALL
NO_CHARGES


@<TRIPOS>ATOM
      1 CA         -5.8720    5.0415   10.0010 C.3       2 GLC5        0.0000 
      2 CA         -6.1280    4.8360   11.9260 C.3       6 GLL5        0.0000 
      3 CA         -5.6160    5.2470    8.0760 C.3       4 GLP5        0.0000 
      4 CA         -7.5935    3.6800   11.7640 C.3       2 GLC5        0.0000 
      5 CA         -9.0590    2.5240   11.6020 C.3       4 GLP5        0.0000 
      6 CA        -10.6110    6.6420   14.6510 C.3       2 GLC5        0.0000 
      7 CA         -9.0980    7.8740   13.6950 C.3       6 GLL5        0.0000 
      8 CA        -12.1240    5.4100   15.6070 C.3       4 GLP5        0.0000 
      9 CA         -8.4175    4.3790   12.0495 C.3       2 GLC5        0.0000 
     10 CA         -7.7760    6.2340   12.4970 C.3       6 GLL5        0.0000 
     11 CA         -2.9535    3.5835   12.6165 C.3       2 GLC5        0.0000 
     12 CA         -3.2310    5.3970   12.9200 C.3       6 GLL5        0.0000 
     13 CA         -2.6760    1.7700   12.3130 C.3       4 GLP5        0.0000 
     14 CA         -3.0070    5.5980   10.9175 C.3       2 GLC5        0.0000 
     15 CA         -2.7830    5.7990    8.9150 C.3       4 GLP5        0.0000 
     16 CA         -4.1460    3.2375   13.3675 C.3       2 GLC5        0.0000 
     17 CA         -4.4200    5.1710   13.8780 C.3       6 GLL5        0.0000 
     18 CA         -3.8720    1.3040   12.8570 C.3       4 GLP5        0.0000 
     19 CA         -4.5810    5.8240   15.9500 C.3       2 GLC5        0.0000 
     20 CA         -4.7420    6.4770   18.0220 C.3       4 GLP5        0.0000 
     21 N           0.0835    8.0110   10.9435 N.am      1 SEC2        0.0000 
     22 N          -0.5120    9.3770   11.8390 N.am      5 SEL2        0.0000 
     23 N           0.6790    6.6450   10.0480 N.am      3 SEP2        0.0000 
     24 N          -0.6345    9.1890   10.5150 N.am      1 SEC2        0.0000 
     25 N          -0.7570    9.0010    9.1910 N.am      3 SEP2        0.0000 
     26 N           0.9170    6.3965   12.9595 N.am      1 SEC2        0.0000 
     27 N           0.5480    7.6870   13.3060 N.am      5 SEL2        0.0000 
     28 N           1.2860    5.1060   12.6130 N.am      3 SEP2        0.0000 
     29 N           0.6135    7.1660   11.6770 N.am      1 SEC2        0.0000 
     30 N          -0.3030   10.2990   14.3480 N.am      1 SEC2        0.0000 
     31 N          -1.2520    9.1150   14.2220 N.am      5 SEL2        0.0000 
     32 N           0.6460   11.4830   14.4740 N.am      3 SEP2        0.0000 
     33 CA         -7.0155    8.5525   16.4295 C.3       2 GLC5        0.0000 
     34 CA         -8.0860    7.9650   14.6900 C.3       6 GLL5        0.0000 
     35 CA         -6.5350    9.5260   18.2110 C.3       4 GLP5        0.0000 
     36 CA         -9.1325    7.6152   16.0123 C.3       2 GLC5        0.0000 
     37 CA         -6.9060    7.1930   14.6060 C.3       6 GLL5        0.0000 
     38 CA         -9.9680    7.5040   17.8530 C.3       4 GLP5        0.0000 
     39 CA         -1.0892    5.2645   12.3310 C.3       2 GLC5        0.0000 
     40 CA         -2.1800    6.3090   13.4980 C.3       6 GLL5        0.0000 
     41 CA          0.5270    4.6760   11.4530 C.3       4 GLP5        0.0000 
     42 CA         -2.3029    4.6885   14.9202 C.3       2 GLC5        0.0000 
     43 CA         -1.0430    3.8650   16.2970 C.3       4 GLP5        0.0000 
@<TRIPOS>BOND
@<TRIPOS>SUBSTRUCTURE
     1 SEC2       21 GROUP        1 X    SEC  0     ROOT SEC X 2
     2 GLC5        1 GROUP        1 X    GLC  0     **** GLC X 6
     3 SEP2       23 GROUP        1 Y    SEP  0     ROOT SEP Y 9
     4 GLP5        3 GROUP        1 Y    GLP  0     **** GLP Y 13
     5 SEL2       22 GROUP        1 Z    SEL  0     ROOT SEL Z 16
     6 GLL5        2 GROUP        1 Z    GLL  0     **** GLL Z 20
@<TRIPOS>SET

