#    Name: 1wxj_IPL_1_ligand
#    Modification time : Tue Mar 25 09:27:40 2014

@<TRIPOS>MOLECULE
1wxj_IPL_1_ligand
   29    30     1     0     0
SMALL
NO_CHARGES


@<TRIPOS>ATOM
      1 N1         -7.3660    5.3200   11.5500 N.pl3     1 IPL1001     0.0000 
      2 C2         -6.1280    4.8360   11.9260 C.2       1 IPL1001     0.0000 
      3 C3         -5.6990    5.4020   13.0990 C.2       1 IPL1001     0.0000 
      4 C4         -6.9060    7.1930   14.6060 C.ar      1 IPL1001     0.0000 
      5 C5         -8.0860    7.9650   14.6900 C.ar      1 IPL1001     0.0000 
      6 C6         -9.0980    7.8740   13.6950 C.ar      1 IPL1001     0.0000 
      7 C7         -8.9670    7.0170   12.5890 C.ar      1 IPL1001     0.0000 
      8 C8         -7.7760    6.2340   12.4970 C.ar      1 IPL1001     0.0000 
      9 C9         -6.7450    6.3080   13.4870 C.ar      1 IPL1001     0.0000 
     10 C1'        -2.1800    6.3090   13.4980 C.3       1 IPL1001     0.0000 
     11 C2'        -3.2310    5.3970   12.9200 C.3       1 IPL1001     0.0000 
     12 C3'        -4.4200    5.1710   13.8780 C.3       1 IPL1001     0.0000 
     13 P          -0.7070    8.4510   12.9830 P.3       1 IPL1001     0.0000 
     14 O1P        -0.5120    9.3770   11.8390 O.co2     1 IPL1001     0.0000 
     15 O2P         0.5480    7.6870   13.3060 O.co2     1 IPL1001     0.0000 
     16 O3P        -1.2520    9.1150   14.2220 O.co2     1 IPL1001     0.0000 
     17 O4P        -1.8330    7.3500   12.5720 O.3       1 IPL1001     0.0000 
     18 H          -7.8509    5.0653   10.7711 H         1 IPL1001     0.0000 
     19 H          -5.6250    4.1728   11.4158 H         1 IPL1001     0.0000 
     20 H          -6.1885    7.2543   15.3089 H         1 IPL1001     0.0000 
     21 H          -8.2195    8.6053   15.4829 H         1 IPL1001     0.0000 
     22 H          -9.9456    8.4538   13.7940 H         1 IPL1001     0.0000 
     23 H          -9.6771    6.9499   11.8848 H         1 IPL1001     0.0000 
     24 H          -1.2987    5.6991   13.7580 H         1 IPL1001     0.0000 
     25 H          -2.5683    6.7296   14.4407 H         1 IPL1001     0.0000 
     26 H          -2.7872    4.4208   12.6838 H         1 IPL1001     0.0000 
     27 H          -3.6174    5.8211   11.9838 H         1 IPL1001     0.0000 
     28 H          -4.3872    4.1586   14.2428 H         1 IPL1001     0.0000 
     29 H          -4.3511    5.8724   14.6919 H         1 IPL1001     0.0000 
@<TRIPOS>BOND
     1    2    1 1    
     2    8    1 1    
     3   18    1 1    
     4    3    2 2    
     5   19    2 1    
     6    9    3 1    
     7   12    3 1    
     8    5    4 ar   
     9    9    4 ar   
    10   20    4 1    
    11    6    5 ar   
    12   21    5 1    
    13    7    6 ar   
    14   22    6 1    
    15    8    7 ar   
    16   23    7 1    
    17    9    8 ar   
    18   11   10 1    
    19   17   10 1    
    20   24   10 1    
    21   25   10 1    
    22   12   11 1    
    23   26   11 1    
    24   27   11 1    
    25   28   12 1    
    26   29   12 1    
    27   14   13 ar   
    28   15   13 ar   
    29   16   13 ar   
    30   17   13 1    
@<TRIPOS>SUBSTRUCTURE
     1 IPL1001     1 GROUP   
@<TRIPOS>SET

