#    Name: 3RAP_2_CAVITY_N1_6.mol2
#    Modification time : Mon Mar 10 19:50:32 2014

@<TRIPOS>MOLECULE
3RAP_2_CAVITY_N1_6.mol2
   55     0     6     0     0
SMALL
NO_CHARGES


@<TRIPOS>ATOM
      1 CA         41.6194   11.8598   65.2123 C.3       5 GLY6        0.0000 
      2 CZ         39.4101   14.1417   66.2903 C.ar      4 PHE5        0.0000 
      3 OD1        39.5069   12.0647   66.7107 O.3       3 ASP3        0.0000 
      4 CA         39.8073   12.9201   65.5157 C.3       5 GLY6        0.0000 
      5 OD1        39.6037    9.9877   67.1312 O.3       3 ASP3        0.0000 
      6 DU         39.9041   10.8431   65.9362 H         6 CUB7        0.0000 
      7 CA         40.2044   11.6985   64.7411 C.3       5 GLY6        0.0000 
      8 CZ         40.0009    8.7661   66.3566 C.ar      4 PHE5        0.0000 
      9 N          40.3013    9.6215   65.1616 N.2       2 ALA2        0.0000 
     10 N          40.6016   10.4769   63.9666 N.2       2 ALA2        0.0000 
     11 CA         42.2972   10.5998   58.8324 C.3       5 GLY6        0.0000 
     12 CA         37.9951   13.9803   65.8191 C.3       5 GLY6        0.0000 
     13 N          38.0919   11.9034   66.2396 N.2       2 ALA2        0.0000 
     14 CZ         38.3923   12.7587   65.0446 C.ar      4 PHE5        0.0000 
     15 OD1        38.1888    9.8264   66.6601 O.3       3 ASP3        0.0000 
     16 DU         38.4891   10.6818   65.4650 H         6 CUB7        0.0000 
     17 CZ         38.7895   11.5371   64.2700 C.ar      4 PHE5        0.0000 
     18 CZ         38.5859    8.6048   65.8855 C.ar      4 PHE5        0.0000 
     19 N          38.8863    9.4602   64.6905 N.2       2 ALA2        0.0000 
     20 N          39.1867   10.3155   63.4955 N.2       2 ALA2        0.0000 
     21 N          39.4871   11.1709   62.3004 N.2       2 ALA2        0.0000 
     22 O          39.7875   12.0263   61.1054 O.2       2 ALA2        0.0000 
     23 CZ         38.9831    7.3832   65.1110 C.ar      4 PHE5        0.0000 
     24 N          39.5839    9.0940   62.7209 N.2       2 ALA2        0.0000 
     25 N          39.8843    9.9493   61.5259 N.2       2 ALA2        0.0000 
     26 N          40.1847   10.8047   60.3308 N.2       2 ALA2        0.0000 
     27 O          40.4851   11.6601   59.1358 O.2       2 ALA2        0.0000 
     28 CA         40.8823   10.4385   58.3613 C.3       5 GLY6        0.0000 
     29 CA         41.1826   11.2939   57.1662 C.3       5 GLY6        0.0000 
     30 N          36.9774   12.5974   64.5734 N.2       2 ALA2        0.0000 
     31 CZ         37.2778   13.4528   63.3784 C.ar      4 PHE5        0.0000 
     32 CA         36.7738    9.6651   66.1889 C.3       5 GLY6        0.0000 
     33 CA         37.0742   10.5204   64.9939 C.3       5 GLY6        0.0000 
     34 CA         37.3746   11.3758   63.7989 C.3       5 GLY6        0.0000 
     35 CZ         37.6750   12.2312   62.6038 C.ar      4 PHE5        0.0000 
     36 CZ         37.9754   13.0866   61.4088 C.ar      4 PHE5        0.0000 
     37 CA         37.1710    8.4435   65.4144 C.3       5 GLY6        0.0000 
     38 CA         37.4714    9.2988   64.2193 C.3       5 GLY6        0.0000 
     39 CA         37.7718   10.1542   63.0243 C.3       5 GLY6        0.0000 
     40 CA         38.0722   11.0096   61.8293 C.3       5 GLY6        0.0000 
     41 CA         38.3726   11.8650   60.6343 C.3       5 GLY6        0.0000 
     42 CA         38.1690    8.9326   62.2498 C.3       5 GLY6        0.0000 
     43 CA         38.4694    9.7880   61.0547 C.3       5 GLY6        0.0000 
     44 CA         38.7698   10.6434   59.8597 C.3       5 GLY6        0.0000 
     45 N          39.0701   11.4988   58.6647 N.2       2 ALA2        0.0000 
     46 N          39.3705   12.3541   57.4696 N.2       2 ALA2        0.0000 
     47 N          39.6709   13.2095   56.2746 N.2       2 ALA2        0.0000 
     48 CA         39.7677   11.1325   56.6951 C.3       5 GLY6        0.0000 
     49 CA         35.9597   11.2145   63.3277 C.3       5 GLY6        0.0000 
     50 OD1        36.2601   12.0699   62.1327 O.3       3 ASP3        0.0000 
     51 O          36.3569    9.9929   62.5532 O.2       2 ALA2        0.0000 
     52 CA         36.6573   10.8483   61.3582 C.3       5 GLY6        0.0000 
     53 OG         37.9556   12.1928   56.9985 O.2       1 SER1        0.0000 
     54 OG         38.2560   13.0482   55.8035 O.2       1 SER1        0.0000 
     55 CA         38.3528   10.9712   56.2240 C.3       5 GLY6        0.0000 
@<TRIPOS>BOND
@<TRIPOS>SUBSTRUCTURE
     1 SER1       53 GROUP   
     2 ALA2        9 GROUP   
     3 ASP3        3 GROUP   
     4 PHE5        2 GROUP   
     5 GLY6        1 GROUP   
     6 CUB7        6 GROUP   
@<TRIPOS>SET

