#    Name: 3rap_GTP_2_INTS_M
#    Modification time : Tue Mar 25 11:19:54 2014

@<TRIPOS>MOLECULE
3rap_GTP_2_INTS_M
   82     0    15     0     0
SMALL
NO_CHARGES


@<TRIPOS>ATOM
      1 N          36.8720   17.4385   62.2875 N.am      2 SEC2        0.0000 
      2 N          36.1380   17.1930   61.2320 N.am     12 SEL2        0.0000 
      3 N          37.6060   17.6840   63.3430 N.am      7 SEP2        0.0000 
      4 NZ         32.5555   15.9390   61.4045 N.4       3 LYC4        0.0000 
      5 NZ         33.7570   16.6700   61.0900 N.4      13 LYL4        0.0000 
      6 NZ         31.3540   15.2080   61.7190 N.4       8 LYP4        0.0000 
      7 N          32.5555   15.9390   61.4045 N.am      2 SEC2        0.0000 
      8 N          33.7570   16.6700   61.0900 N.am     12 SEL2        0.0000 
      9 N          31.3540   15.2080   61.7190 N.am      7 SEP2        0.0000 
     10 N          33.0030   17.5940   60.4855 N.am      2 SEC2        0.0000 
     11 N          32.2490   18.5180   59.8810 N.am      7 SEP2        0.0000 
     12 Zn         35.4600   14.5880   59.2715 Zn        4 ZIC7        0.0000 
     13 Zn         35.3970   15.4650   59.6610 Zn       14 ZIL7        0.0000 
     14 Zn         35.5230   13.7110   58.8820 Zn        9 ZIP7        0.0000 
     15 N          36.3130   16.1465   58.5975 N.am      2 SEC2        0.0000 
     16 N          35.3970   15.4650   59.6610 N.am     12 SEL2        0.0000 
     17 N          37.2290   16.8280   57.5340 N.am      7 SEP2        0.0000 
     18 N          35.1350   15.5780   63.3740 N.am      2 SEC2        0.0000 
     19 N          35.3140   15.0380   62.0830 N.am     12 SEL2        0.0000 
     20 N          34.9560   16.1180   64.6650 N.am      7 SEP2        0.0000 
     21 Zn         35.1940   13.3305   59.8235 Zn        4 ZIC7        0.0000 
     22 Zn         34.8650   12.9500   60.7650 Zn       14 ZIL7        0.0000 
     23 N          34.3395   11.6345   60.3225 N.am      2 SEC2        0.0000 
     24 N          34.8650   12.9500   60.7650 N.am     12 SEL2        0.0000 
     25 N          33.8140   10.3190   59.8800 N.am      7 SEP2        0.0000 
     26 NZ         32.4115   14.3675   62.2725 N.4       3 LYC4        0.0000 
     27 NZ         33.4690   13.5270   62.8260 N.4      13 LYL4        0.0000 
     28 N          33.5335   12.4575   63.8920 N.am      2 SEC2        0.0000 
     29 N          33.4690   13.5270   62.8260 N.am     12 SEL2        0.0000 
     30 N          33.5980   11.3880   64.9580 N.am      7 SEP2        0.0000 
     31 N          32.9295   12.0975   62.6810 N.am      2 SEC2        0.0000 
     32 N          32.3900   10.6680   62.5360 N.am      7 SEP2        0.0000 
     33 N          32.4115   14.3675   62.2725 N.am      2 SEC2        0.0000 
     34 N          34.7200   12.0870   64.0030 N.am      2 SEC2        0.0000 
     35 N          35.8420   12.7860   63.0480 N.am     12 SEL2        0.0000 
     36 N          35.7955    9.3070   61.4605 N.am      2 SEC2        0.0000 
     37 N          36.0800   10.4510   62.1840 N.am     12 SEL2        0.0000 
     38 N          35.5110    8.1630   60.7370 N.am      7 SEP2        0.0000 
     39 CA         36.8645   13.6480   65.1885 C.3       5 GLC5        0.0000 
     40 CA         38.0990   12.1800   64.9200 C.3      15 GLL5        0.0000 
     41 CA         35.6300   15.1160   65.4570 C.3      10 GLP5        0.0000 
     42 N          37.4040   11.0605   67.9160 N.am      2 SEC2        0.0000 
     43 N          38.4210   10.7600   66.8550 N.am     12 SEL2        0.0000 
     44 N          36.3870   11.3610   68.9770 N.am      7 SEP2        0.0000 
     45 CA         41.0545   12.4325   64.5735 C.3       5 GLC5        0.0000 
     46 CA         40.1310   10.6970   65.1800 C.3      15 GLL5        0.0000 
     47 CA         41.9780   14.1680   63.9670 C.3      10 GLP5        0.0000 
     48 O          42.5765    9.9685   65.4980 O.2       1 ALC1        0.0000 
     49 O          41.3770   10.8310   65.8400 O.2      11 ALL1        0.0000 
     50 O          43.7760    9.1060   65.1560 O.2       6 ALP1        0.0000 
     51 O          40.7535    7.4375   64.3615 O.2       1 ALC1        0.0000 
     52 O          40.5610    8.3120   65.4280 O.2      11 ALL1        0.0000 
     53 O          40.9460    6.5630   63.2950 O.2       6 ALP1        0.0000 
     54 CA         37.0670    9.9410   67.8295 C.3       5 GLC5        0.0000 
     55 CA         38.8710    9.4240   66.7300 C.3      15 GLL5        0.0000 
     56 CA         35.2630   10.4580   68.9290 C.3      10 GLP5        0.0000 
     57 N          34.1970    7.5375   66.5715 N.am      2 SEC2        0.0000 
     58 N          35.7980    7.4500   66.3200 N.am     12 SEL2        0.0000 
     59 N          32.5960    7.6250   66.8230 N.am      7 SEP2        0.0000 
     60 CA         35.3020    7.6860   68.6800 C.3       5 GLC5        0.0000 
     61 CA         36.4150    6.8710   67.4290 C.3      15 GLL5        0.0000 
     62 CA         34.1890    8.5010   69.9310 C.3      10 GLP5        0.0000 
     63 CA         35.6460    5.6465   65.9940 C.3       5 GLC5        0.0000 
     64 CA         34.8770    4.4220   64.5590 C.3      10 GLP5        0.0000 
     65 N          34.3510    4.2100   67.2940 N.am      2 SEC2        0.0000 
     66 N          34.9140    5.2220   68.2250 N.am     12 SEL2        0.0000 
     67 N          33.7880    3.1980   66.3630 N.am      7 SEP2        0.0000 
     68 O          36.3510    4.5610   70.1705 O.2       1 ALC1        0.0000 
     69 O          36.9550    5.4760   69.2020 O.2      11 ALL1        0.0000 
     70 O          35.7470    3.6460   71.1390 O.2       6 ALP1        0.0000 
     71 O          37.3700    4.4330   70.5030 O.2       1 ALC1        0.0000 
     72 O          37.7850    3.3900   71.8040 O.2       6 ALP1        0.0000 
     73 O          38.2985    4.6695   71.1780 O.2       1 ALC1        0.0000 
     74 O          38.8120    5.9490   70.5520 O.2      11 ALL1        0.0000 
     75 CA         36.4095    9.0055   68.3445 C.3       5 GLC5        0.0000 
     76 CA         37.5560    7.5530   67.7600 C.3      15 GLL5        0.0000 
     77 CA         39.1472   13.3100   64.2300 C.3       5 GLC5        0.0000 
     78 CA         39.1140   11.5820   65.8800 C.3      15 GLL5        0.0000 
     79 CA         39.6880   14.7390   63.0600 C.3      10 GLP5        0.0000 
     80 CA         39.5473    7.2382   66.0715 C.3       5 GLC5        0.0000 
     81 CA         39.5580    9.3170   65.3920 C.3      15 GLL5        0.0000 
     82 CA         39.8800    5.1060   66.0820 C.3      10 GLP5        0.0000 
@<TRIPOS>BOND
@<TRIPOS>SUBSTRUCTURE
     1 ALC1       48 GROUP        1 X    ALC  0     ROOT ALC X 1
     2 SEC2        1 GROUP        1 X    SEC  0     **** SEC X 2
     3 LYC4        4 GROUP        1 X    LYC  0     **** LYC X 4
     4 ZIC7       12 GROUP        1 X    ZIC  0     **** ZIC X 5
     5 GLC5       39 GROUP        1 X    GLC  0     **** GLC X 6
     6 ALP1       50 GROUP        1 Y    ALP  0     ROOT ALP Y 8
     7 SEP2        3 GROUP        1 Y    SEP  0     **** SEP Y 9
     8 LYP4        6 GROUP        1 Y    LYP  0     **** LYP Y 11
     9 ZIP7       14 GROUP        1 Y    ZIP  0     **** ZIP Y 12
    10 GLP5       41 GROUP        1 Y    GLP  0     **** GLP Y 13
    11 ALL1       49 GROUP        1 Z    ALL  0     ROOT ALL Z 15
    12 SEL2        2 GROUP        1 Z    SEL  0     **** SEL Z 16
    13 LYL4        5 GROUP        1 Z    LYL  0     **** LYL Z 18
    14 ZIL7       13 GROUP        1 Z    ZIL  0     **** ZIL Z 19
    15 GLL5       40 GROUP        1 Z    GLL  0     **** GLL Z 20
@<TRIPOS>SET

