#    Name: 3rap_GTP_2_ligand
#    Modification time : Tue Mar 25 11:19:54 2014

@<TRIPOS>MOLECULE
3rap_GTP_2_ligand
   44    46     1     0     0
SMALL
NO_CHARGES


@<TRIPOS>ATOM
      1 PG         35.1310   16.1600   60.9410 P.3       1 GTP181      0.0000 
      2 O1G        36.1380   17.1930   61.2320 O.co2     1 GTP181      0.0000 
      3 O2G        33.7570   16.6700   61.0900 O.co2     1 GTP181      0.0000 
      4 O3G        35.3970   15.4650   59.6610 O.co2     1 GTP181      0.0000 
      5 O3B        35.3140   15.0380   62.0830 O.3       1 GTP181      0.0000 
      6 PB         34.7720   13.5350   62.1220 P.3       1 GTP181      0.0000 
      7 O1B        34.8650   12.9500   60.7650 O.co2     1 GTP181      0.0000 
      8 O2B        33.4690   13.5270   62.8260 O.co2     1 GTP181      0.0000 
      9 O3A        35.8420   12.7860   63.0480 O.3       1 GTP181      0.0000 
     10 PA         36.8580   11.5840   62.6980 P.3       1 GTP181      0.0000 
     11 O1A        37.9850   12.1490   61.9230 O.co2     1 GTP181      0.0000 
     12 O2A        36.0800   10.4510   62.1840 O.co2     1 GTP181      0.0000 
     13 O5'        37.4060   11.1930   64.1560 O.3       1 GTP181      0.0000 
     14 C5'        38.0990   12.1800   64.9200 C.3       1 GTP181      0.0000 
     15 C4'        39.1140   11.5820   65.8800 C.3       1 GTP181      0.0000 
     16 O4'        38.4210   10.7600   66.8550 O.3       1 GTP181      0.0000 
     17 C3'        40.1310   10.6970   65.1800 C.3       1 GTP181      0.0000 
     18 O3'        41.3770   10.8310   65.8400 O.3       1 GTP181      0.0000 
     19 C2'        39.5580    9.3170   65.3920 C.3       1 GTP181      0.0000 
     20 O2'        40.5610    8.3120   65.4280 O.3       1 GTP181      0.0000 
     21 C1'        38.8710    9.4240   66.7300 C.3       1 GTP181      0.0000 
     22 N9         37.7140    8.5240   66.8170 N.pl3     1 GTP181      0.0000 
     23 C8         36.5800    8.4580   66.0460 C.2       1 GTP181      0.0000 
     24 N7         35.7980    7.4500   66.3200 N.2       1 GTP181      0.0000 
     25 C5         36.4150    6.8710   67.4290 C.2       1 GTP181      0.0000 
     26 C6         35.9940    5.8020   68.2450 C.2       1 GTP181      0.0000 
     27 O6         34.9140    5.2220   68.2250 O.2       1 GTP181      0.0000 
     28 N1         36.9550    5.4760   69.2020 N.am      1 GTP181      0.0000 
     29 C2         38.0700    6.2430   69.4860 C.2       1 GTP181      0.0000 
     30 N2         38.8120    5.9490   70.5520 N.pl3     1 GTP181      0.0000 
     31 N3         38.4210    7.3020   68.7690 N.2       1 GTP181      0.0000 
     32 C4         37.5560    7.5530   67.7600 C.2       1 GTP181      0.0000 
     33 H          37.3934   12.7949   65.5178 H         1 GTP181      0.0000 
     34 H          38.6392   12.8926   64.2615 H         1 GTP181      0.0000 
     35 H          39.6380   12.3794   66.3808 H         1 GTP181      0.0000 
     36 H          40.1391   10.9260   64.1654 H         1 GTP181      0.0000 
     37 H          38.8096    9.1450   64.6508 H         1 GTP181      0.0000 
     38 H          39.5840    9.1894   67.4984 H         1 GTP181      0.0000 
     39 H          36.3977    9.1498   65.3341 H         1 GTP181      0.0000 
     40 H          36.8166    4.5764   69.7471 H         1 GTP181      0.0000 
     41 H          38.5311    5.1445   71.0754 H         1 GTP181      0.0000 
     42 H          39.5833    6.5592   70.7331 H         1 GTP181      0.0000 
     43 H          41.7734    9.9130   65.8332 H         1 GTP181      0.0000 
     44 H          40.4880    7.8420   64.5484 H         1 GTP181      0.0000 
@<TRIPOS>BOND
     1    2    1 ar   
     2    3    1 ar   
     3    4    1 ar   
     4    5    1 1    
     5    6    5 1    
     6    7    6 ar   
     7    8    6 ar   
     8    9    6 1    
     9   10    9 1    
    10   11   10 ar   
    11   12   10 ar   
    12   13   10 1    
    13   14   13 1    
    14   15   14 1    
    15   33   14 1    
    16   34   14 1    
    17   16   15 1    
    18   17   15 1    
    19   35   15 1    
    20   21   16 1    
    21   18   17 1    
    22   19   17 1    
    23   36   17 1    
    24   43   18 1    
    25   20   19 1    
    26   21   19 1    
    27   37   19 1    
    28   44   20 1    
    29   22   21 1    
    30   38   21 1    
    31   23   22 1    
    32   32   22 1    
    33   24   23 2    
    34   39   23 1    
    35   25   24 1    
    36   26   25 1    
    37   32   25 2    
    38   27   26 2    
    39   28   26 am   
    40   29   28 1    
    41   40   28 1    
    42   30   29 1    
    43   31   29 2    
    44   41   30 1    
    45   42   30 1    
    46   32   31 1    
@<TRIPOS>SUBSTRUCTURE
     1 GTP181      1 GROUP   
@<TRIPOS>SET

