#    Name: 3i9v_FMN_1_INTS_M
#    Modification time : Tue Mar 25 16:01:18 2014

@<TRIPOS>MOLECULE
3i9v_FMN_1_INTS_M
   58     0    12     0     0
SMALL
NO_CHARGES


@<TRIPOS>ATOM
      1 N         -26.5265    9.5570   32.9700 N.am      2 SEC2        0.0000 
      2 N         -24.9950    9.3660   33.6550 N.am     10 SEL2        0.0000 
      3 N         -28.0580    9.7480   32.2850 N.am      6 SEP2        0.0000 
      4 CA        -21.7175    9.5325   34.0045 C.3       4 GLC5        0.0000 
      5 CA        -21.2620    7.7790   33.2320 C.3      12 GLL5        0.0000 
      6 CA        -22.1730   11.2860   34.7770 C.3       8 GLP5        0.0000 
      7 CA        -18.3760    8.8620   33.1270 C.3       4 GLC5        0.0000 
      8 CA        -19.2290    7.4090   32.0700 C.3      12 GLL5        0.0000 
      9 CA        -17.5230   10.3150   34.1840 C.3       8 GLP5        0.0000 
     10 CA        -20.0925    7.8155   29.6605 C.3       4 GLC5        0.0000 
     11 CA        -18.3740    7.6270   30.8670 C.3      12 GLL5        0.0000 
     12 CA        -21.8110    8.0040   28.4540 C.3       8 GLP5        0.0000 
     13 CA        -17.3770    8.4640   32.5365 C.3       4 GLC5        0.0000 
     14 CA        -16.3800    9.3010   34.2060 C.3       8 GLP5        0.0000 
     15 CA        -17.4310    7.7615   29.3260 C.3       4 GLC5        0.0000 
     16 CA        -16.4880    7.8960   27.7850 C.3       8 GLP5        0.0000 
     17 CA        -23.1050    5.0710   38.8955 C.3       4 GLC5        0.0000 
     18 CA        -21.5920    6.4250   38.8280 C.3      12 GLL5        0.0000 
     19 CA        -24.6180    3.7170   38.9630 C.3       8 GLP5        0.0000 
     20 O         -23.2875    8.1355   38.6875 O.2       1 ALC1        0.0000 
     21 O         -22.8280    7.0710   38.6000 O.2       9 ALL1        0.0000 
     22 O         -23.7470    9.2000   38.7750 O.2       5 ALP1        0.0000 
     23 CA        -19.3270    8.1540   40.1125 C.3       4 GLC5        0.0000 
     24 CA        -20.9610    6.7640   40.1980 C.3      12 GLL5        0.0000 
     25 CA        -17.6930    9.5440   40.0270 C.3       8 GLP5        0.0000 
     26 CA        -23.0235    8.6255   41.0830 C.3       4 GLC5        0.0000 
     27 CA        -21.9120    6.7350   41.4070 C.3      12 GLL5        0.0000 
     28 CA        -24.1350   10.5160   40.7590 C.3       8 GLP5        0.0000 
     29 CA        -22.4460    7.1800   43.1380 C.3       4 GLC5        0.0000 
     30 CA        -22.9800    7.6250   44.8690 C.3       8 GLP5        0.0000 
     31 CA        -23.8850    6.8185   41.9680 C.3       4 GLC5        0.0000 
     32 CA        -25.8580    6.9020   42.5290 C.3       8 GLP5        0.0000 
     33 N         -23.5320    3.1120   40.8140 N.am      2 SEC2        0.0000 
     34 N         -22.0940    3.4150   41.5890 N.am     10 SEL2        0.0000 
     35 N         -24.9700    2.8090   40.0390 N.am      6 SEP2        0.0000 
     36 NZ        -20.1560    4.3495   44.0160 N.4       3 LYC4        0.0000 
     37 NZ        -21.5020    3.7580   43.9610 N.4      11 LYL4        0.0000 
     38 NZ        -18.8100    4.9410   44.0710 N.4       7 LYP4        0.0000 
     39 N         -20.1560    4.3495   44.0160 N.am      2 SEC2        0.0000 
     40 N         -21.5020    3.7580   43.9610 N.am     10 SEL2        0.0000 
     41 N         -18.8100    4.9410   44.0710 N.am      6 SEP2        0.0000 
     42 N         -21.7460    4.4360   45.0510 N.am      2 SEC2        0.0000 
     43 N         -21.9900    5.1140   46.1410 N.am      6 SEP2        0.0000 
     44 N         -22.8035    4.8535   44.6340 N.am      2 SEC2        0.0000 
     45 N         -23.6170    4.5930   43.1270 N.am     10 SEL2        0.0000 
     46 N         -24.1750    5.6960   43.2765 N.am      2 SEC2        0.0000 
     47 N         -24.7330    6.7990   43.4260 N.am      6 SEP2        0.0000 
     48 N         -24.6575    3.9585   43.5865 N.am      2 SEC2        0.0000 
     49 N         -25.6980    3.3240   44.0460 N.am      6 SEP2        0.0000 
     50 CA        -19.7525    9.0010   33.9535 C.3       4 GLC5        0.0000 
     51 CA        -18.6320   10.1180   35.2350 C.3       8 GLP5        0.0000 
     52 CA        -17.2350    7.8078   33.6628 C.3       4 GLC5        0.0000 
     53 CA        -18.7630    6.6350   33.1270 C.3      12 GLL5        0.0000 
     54 CA        -16.6375    5.3093   32.4438 C.3       4 GLC5        0.0000 
     55 CA        -17.4170    5.9940   33.1120 C.3      12 GLL5        0.0000 
     56 CA        -15.1850    4.3040   31.7680 C.3       8 GLP5        0.0000 
     57 CA        -19.4005    8.4207   34.7480 C.3       4 GLC5        0.0000 
     58 CA        -19.5470    6.4310   34.2420 C.3      12 GLL5        0.0000 
@<TRIPOS>BOND
@<TRIPOS>SUBSTRUCTURE
     1 ALC1       20 GROUP        1 X    ALC  0     ROOT ALC X 1
     2 SEC2        1 GROUP        1 X    SEC  0     **** SEC X 2
     3 LYC4       36 GROUP        1 X    LYC  0     **** LYC X 4
     4 GLC5        4 GROUP        1 X    GLC  0     **** GLC X 6
     5 ALP1       22 GROUP        1 Y    ALP  0     ROOT ALP Y 8
     6 SEP2        3 GROUP        1 Y    SEP  0     **** SEP Y 9
     7 LYP4       38 GROUP        1 Y    LYP  0     **** LYP Y 11
     8 GLP5        6 GROUP        1 Y    GLP  0     **** GLP Y 13
     9 ALL1       21 GROUP        1 Z    ALL  0     ROOT ALL Z 15
    10 SEL2        2 GROUP        1 Z    SEL  0     **** SEL Z 16
    11 LYL4       37 GROUP        1 Z    LYL  0     **** LYL Z 18
    12 GLL5        5 GROUP        1 Z    GLL  0     **** GLL Z 20
@<TRIPOS>SET

