#    Name: 3i9v_FMN_1_ligand
#    Modification time : Tue Mar 25 16:01:18 2014

@<TRIPOS>MOLECULE
3i9v_FMN_1_ligand
   50    52     1     0     0
SMALL
NO_CHARGES


@<TRIPOS>ATOM
      1 N1        -23.5330    7.1400   36.5860 N.2       1 FMN440      0.0000 
      2 C2        -24.7650    7.6760   36.6960 C.2       1 FMN440      0.0000 
      3 O2        -25.3930    7.4530   37.7110 O.2       1 FMN440      0.0000 
      4 N3        -25.2790    8.4330   35.6830 N.am      1 FMN440      0.0000 
      5 C4        -24.5400    8.6730   34.5550 C.2       1 FMN440      0.0000 
      6 O4        -24.9950    9.3660   33.6550 O.2       1 FMN440      0.0000 
      7 C4A       -23.2850    8.1270   34.4320 C.2       1 FMN440      0.0000 
      8 N5        -22.5130    8.3410   33.3080 N.2       1 FMN440      0.0000 
      9 C5A       -21.2620    7.7790   33.2320 C.ar      1 FMN440      0.0000 
     10 C6        -20.4840    7.9890   32.1120 C.ar      1 FMN440      0.0000 
     11 C7        -19.2290    7.4090   32.0700 C.ar      1 FMN440      0.0000 
     12 C7M       -18.3740    7.6270   30.8670 C.3       1 FMN440      0.0000 
     13 C8        -18.7630    6.6350   33.1270 C.ar      1 FMN440      0.0000 
     14 C8M       -17.4170    5.9940   33.1120 C.3       1 FMN440      0.0000 
     15 C9        -19.5470    6.4310   34.2420 C.ar      1 FMN440      0.0000 
     16 C9A       -20.7910    7.0160   34.2800 C.ar      1 FMN440      0.0000 
     17 N10       -21.5570    6.8200   35.3770 N.pl3     1 FMN440      0.0000 
     18 C10       -22.7970    7.3590   35.4610 C.2       1 FMN440      0.0000 
     19 C1'       -21.0540    5.9740   36.4690 C.3       1 FMN440      0.0000 
     20 C2'       -20.7140    6.8380   37.6470 C.3       1 FMN440      0.0000 
     21 O2'       -19.3170    6.7680   37.8700 O.3       1 FMN440      0.0000 
     22 C3'       -21.5920    6.4250   38.8280 C.3       1 FMN440      0.0000 
     23 O3'       -22.8280    7.0710   38.6000 O.3       1 FMN440      0.0000 
     24 C4'       -20.9610    6.7640   40.1980 C.3       1 FMN440      0.0000 
     25 O4'       -20.1030    5.6640   40.4120 O.3       1 FMN440      0.0000 
     26 C5'       -21.9120    6.7350   41.4070 C.3       1 FMN440      0.0000 
     27 O5'       -21.4660    5.7850   42.3770 O.3       1 FMN440      0.0000 
     28 P         -22.1800    4.3740   42.7660 P.3       1 FMN440      0.0000 
     29 O1P       -22.0940    3.4150   41.5890 O.co2     1 FMN440      0.0000 
     30 O2P       -21.5020    3.7580   43.9610 O.co2     1 FMN440      0.0000 
     31 O3P       -23.6170    4.5930   43.1270 O.co2     1 FMN440      0.0000 
     32 H         -26.2349    8.8299   35.7660 H         1 FMN440      0.0000 
     33 H         -20.8232    8.5556   31.3362 H         1 FMN440      0.0000 
     34 H         -19.2115    5.8599   35.0192 H         1 FMN440      0.0000 
     35 H         -20.1602    5.4341   36.1506 H         1 FMN440      0.0000 
     36 H         -21.8114    5.2458   36.7654 H         1 FMN440      0.0000 
     37 H         -21.0099    7.8665   37.3687 H         1 FMN440      0.0000 
     38 H         -21.7136    5.3417   38.7636 H         1 FMN440      0.0000 
     39 H         -20.4361    7.6579   40.1488 H         1 FMN440      0.0000 
     40 H         -22.9156    6.4935   41.0304 H         1 FMN440      0.0000 
     41 H         -21.9505    7.7526   41.8198 H         1 FMN440      0.0000 
     42 H         -17.4931    7.1606   30.9480 H         1 FMN440      0.0000 
     43 H         -18.8106    7.2863   30.0344 H         1 FMN440      0.0000 
     44 H         -18.1797    8.5969   30.7203 H         1 FMN440      0.0000 
     45 H         -16.6849    6.6696   33.0251 H         1 FMN440      0.0000 
     46 H         -17.2419    5.4782   33.9506 H         1 FMN440      0.0000 
     47 H         -17.3184    5.3551   32.3490 H         1 FMN440      0.0000 
     48 H         -19.2206    6.3903   38.7909 H         1 FMN440      0.0000 
     49 H         -22.7262    7.9769   39.0111 H         1 FMN440      0.0000 
     50 H         -20.6955    4.9378   40.7607 H         1 FMN440      0.0000 
@<TRIPOS>BOND
     1    2    1 1    
     2   18    1 2    
     3    3    2 2    
     4    4    2 am   
     5    5    4 am   
     6   32    4 1    
     7    6    5 2    
     8    7    5 1    
     9    8    7 2    
    10   18    7 1    
    11    9    8 1    
    12   10    9 ar   
    13   16    9 ar   
    14   11   10 ar   
    15   33   10 1    
    16   12   11 1    
    17   13   11 ar   
    18   42   12 1    
    19   43   12 1    
    20   44   12 1    
    21   14   13 1    
    22   15   13 ar   
    23   45   14 1    
    24   46   14 1    
    25   47   14 1    
    26   16   15 ar   
    27   34   15 1    
    28   17   16 1    
    29   18   17 1    
    30   19   17 1    
    31   20   19 1    
    32   35   19 1    
    33   36   19 1    
    34   21   20 1    
    35   22   20 1    
    36   37   20 1    
    37   48   21 1    
    38   23   22 1    
    39   24   22 1    
    40   38   22 1    
    41   49   23 1    
    42   25   24 1    
    43   26   24 1    
    44   39   24 1    
    45   50   25 1    
    46   27   26 1    
    47   40   26 1    
    48   41   26 1    
    49   28   27 1    
    50   29   28 ar   
    51   30   28 ar   
    52   31   28 ar   
@<TRIPOS>SUBSTRUCTURE
     1 FMN440      1 GROUP   
@<TRIPOS>SET

