#    Name: 1FFY_1_CAVITY_N1_6.mol2
#    Modification time : Mon Mar 10 23:09:27 2014

@<TRIPOS>MOLECULE
1FFY_1_CAVITY_N1_6.mol2
  116     0     6     0     0
SMALL
NO_CHARGES


@<TRIPOS>ATOM
      1 DU         27.6794   75.8538   80.1073 H         6 CUB7        0.0000 
      2 DU         26.4844   75.1571   79.5272 H         6 CUB7        0.0000 
      3 CA         25.2893   74.4604   78.9471 C.3       5 GLY6        0.0000 
      4 CA         25.8647   74.6192   77.5710 C.3       5 GLY6        0.0000 
      5 CA         24.6697   73.9225   76.9909 C.3       5 GLY6        0.0000 
      6 DU         25.2451   74.0813   75.6148 H         6 CUB7        0.0000 
      7 CZ         23.4746   73.2259   76.4108 C.ar      4 PHE5        0.0000 
      8 NZ         24.0500   73.3846   75.0347 N.2       3 LYS4        0.0000 
      9 DU         26.9789   77.1726   79.9666 H         6 CUB7        0.0000 
     10 N          25.2084   76.3172   80.7626 N.2       2 ALA2        0.0000 
     11 DU         25.7838   76.4760   79.3865 H         6 CUB7        0.0000 
     12 DU         26.3592   76.6348   78.0104 H         6 CUB7        0.0000 
     13 O          24.0134   75.6205   80.1825 O.2       2 ALA2        0.0000 
     14 CA         24.5888   75.7793   78.8064 C.3       5 GLY6        0.0000 
     15 DU         25.1642   75.9381   77.4303 H         6 CUB7        0.0000 
     16 DU         25.7396   76.0969   76.0542 H         6 CUB7        0.0000 
     17 CA         23.3937   75.0826   78.2263 C.3       5 GLY6        0.0000 
     18 CA         23.9691   75.2414   76.8502 C.3       5 GLY6        0.0000 
     19 CZ         24.5445   75.4002   75.4741 C.ar      4 PHE5        0.0000 
     20 CZ         25.1200   75.5590   74.0980 C.ar      4 PHE5        0.0000 
     21 NZ         22.7741   74.5447   76.2701 N.2       3 LYS4        0.0000 
     22 NZ         23.3495   74.7035   74.8940 N.2       3 LYS4        0.0000 
     23 CZ         23.9249   74.8623   73.5179 C.ar      4 PHE5        0.0000 
     24 CZ         30.4389   80.7403   80.1900 C.ar      4 PHE5        0.0000 
     25 CZ         29.2438   80.0437   79.6099 C.ar      4 PHE5        0.0000 
     26 N          27.4734   79.1882   80.4059 N.2       2 ALA2        0.0000 
     27 N          25.7029   78.3327   81.2019 N.2       2 ALA2        0.0000 
     28 DU         26.2783   78.4915   79.8258 H         6 CUB7        0.0000 
     29 NZ         26.8537   78.6503   78.4497 N.2       3 LYS4        0.0000 
     30 N          24.5079   77.6360   80.6218 N.2       2 ALA2        0.0000 
     31 DU         25.0833   77.7948   79.2457 H         6 CUB7        0.0000 
     32 O          25.6587   77.9536   77.8696 O.2       2 ALA2        0.0000 
     33 CA         23.3128   76.9394   80.0418 C.3       5 GLY6        0.0000 
     34 O          23.8882   77.0982   78.6656 O.2       2 ALA2        0.0000 
     35 DU         24.4636   77.2569   77.2895 H         6 CUB7        0.0000 
     36 O          25.0390   77.4157   75.9134 O.2       2 ALA2        0.0000 
     37 CZ         25.6145   77.5745   74.5373 C.ar      4 PHE5        0.0000 
     38 N          22.6932   76.4015   78.0856 N.2       2 ALA2        0.0000 
     39 DU         23.2686   76.5603   76.7094 H         6 CUB7        0.0000 
     40 CZ         23.8440   76.7191   75.3333 C.ar      4 PHE5        0.0000 
     41 NZ         22.0735   75.8636   76.1294 N.2       3 LYS4        0.0000 
     42 CZ         22.6490   76.0224   74.7532 C.ar      4 PHE5        0.0000 
     43 NZ         21.4539   75.3257   74.1732 N.2       3 LYS4        0.0000 
     44 CZ         30.3580   82.5971   82.0054 C.ar      4 PHE5        0.0000 
     45 N          29.1629   81.9004   81.4254 N.2       2 ALA2        0.0000 
     46 CZ         29.7383   82.0592   80.0492 C.ar      4 PHE5        0.0000 
     47 N          27.9679   81.2037   80.8453 N.2       2 ALA2        0.0000 
     48 CZ         28.5433   81.3625   79.4691 C.ar      4 PHE5        0.0000 
     49 CA         25.6220   80.1895   83.0174 C.3       5 GLY6        0.0000 
     50 N          26.1974   80.3483   81.6413 N.2       2 ALA2        0.0000 
     51 N          26.7728   80.5071   80.2652 N.2       2 ALA2        0.0000 
     52 NZ         27.3482   80.6658   78.8891 N.2       3 LYS4        0.0000 
     53 N          25.0024   79.6516   81.0612 N.2       2 ALA2        0.0000 
     54 DU         25.5778   79.8104   79.6851 H         6 CUB7        0.0000 
     55 NZ         26.1532   79.9692   78.3090 N.2       3 LYS4        0.0000 
     56 CA         23.2319   78.7961   81.8572 C.3       5 GLY6        0.0000 
     57 N          23.8073   78.9549   80.4811 N.2       2 ALA2        0.0000 
     58 DU         24.3827   79.1137   79.1050 H         6 CUB7        0.0000 
     59 O          24.9581   79.2725   77.7289 O.2       2 ALA2        0.0000 
     60 CA         22.6123   78.2582   79.9010 C.3       5 GLY6        0.0000 
     61 DU         23.1877   78.4170   78.5249 H         6 CUB7        0.0000 
     62 O          23.7631   78.5758   77.1488 O.2       2 ALA2        0.0000 
     63 N          21.9926   77.7204   77.9448 N.2       2 ALA2        0.0000 
     64 O          22.5680   77.8791   76.5687 O.2       2 ALA2        0.0000 
     65 N          23.1435   78.0379   75.1926 N.2       2 ALA2        0.0000 
     66 N          21.3730   77.1825   75.9886 N.2       2 ALA2        0.0000 
     67 CZ         21.9484   77.3413   74.6125 C.ar      4 PHE5        0.0000 
     68 CA         20.1780   76.4858   75.4085 C.3       5 GLY6        0.0000 
     69 OG         20.7534   76.6446   74.0324 O.2       1 SER1        0.0000 
     70 CA         29.6574   83.9160   81.8647 C.3       5 GLY6        0.0000 
     71 CA         28.4624   83.2193   81.2846 C.3       5 GLY6        0.0000 
     72 CZ         29.0378   83.3781   79.9085 C.ar      4 PHE5        0.0000 
     73 N          26.6919   82.3638   82.0806 N.2       2 ALA2        0.0000 
     74 N          27.2673   82.5226   80.7045 N.2       2 ALA2        0.0000 
     75 NZ         27.8427   82.6814   79.3284 N.2       3 LYS4        0.0000 
     76 CA         24.9215   81.5083   82.8767 C.3       5 GLY6        0.0000 
     77 N          25.4969   81.6671   81.5006 N.2       2 ALA2        0.0000 
     78 DU         26.0723   81.8259   80.1244 H         6 CUB7        0.0000 
     79 NZ         26.6477   81.9847   78.7483 N.2       3 LYS4        0.0000 
     80 CA         23.7264   80.8117   82.2966 C.3       5 GLY6        0.0000 
     81 DU         24.3018   80.9705   80.9205 H         6 CUB7        0.0000 
     82 DU         24.8772   81.1293   79.5444 H         6 CUB7        0.0000 
     83 O          25.4526   81.2880   78.1682 O.2       2 ALA2        0.0000 
     84 CA         22.5314   80.1150   81.7165 C.3       5 GLY6        0.0000 
     85 NZ         23.1068   80.2738   80.3404 N.2       3 LYS4        0.0000 
     86 O          23.6822   80.4326   78.9643 O.2       2 ALA2        0.0000 
     87 CA         21.9117   79.5771   79.7603 C.3       5 GLY6        0.0000 
     88 O          22.4871   79.7359   78.3842 O.2       2 ALA2        0.0000 
     89 O          23.0625   79.8947   77.0081 O.2       2 ALA2        0.0000 
     90 N          20.7167   78.8804   79.1802 N.2       2 ALA2        0.0000 
     91 N          21.2921   79.0392   77.8041 N.2       2 ALA2        0.0000 
     92 N          21.8675   79.1980   76.4280 N.2       2 ALA2        0.0000 
     93 N          20.0970   78.3426   77.2240 N.2       2 ALA2        0.0000 
     94 CA         20.6725   78.5013   75.8479 C.3       5 GLY6        0.0000 
     95 CA         21.2479   78.6601   74.4718 C.3       5 GLY6        0.0000 
     96 CA         19.4774   77.8047   75.2678 C.3       5 GLY6        0.0000 
     97 N          27.7618   84.5382   81.1439 N.2       2 ALA2        0.0000 
     98 CZ         28.3372   84.6969   79.7678 C.ar      4 PHE5        0.0000 
     99 N          25.9914   83.6827   81.9399 N.2       2 ALA2        0.0000 
    100 N          26.5668   83.8415   80.5638 N.2       2 ALA2        0.0000 
    101 CA         27.1422   84.0003   79.1877 C.3       5 GLY6        0.0000 
    102 CA         24.7963   82.9860   81.3598 C.3       5 GLY6        0.0000 
    103 O          25.3717   83.1448   79.9837 O.2       2 ALA2        0.0000 
    104 CA         25.9471   83.3036   78.6076 C.3       5 GLY6        0.0000 
    105 N          23.0259   82.1305   82.1558 N.2       2 ALA2        0.0000 
    106 NZ         23.6013   82.2893   80.7797 N.2       3 LYS4        0.0000 
    107 NZ         24.1767   82.4481   79.4036 N.2       3 LYS4        0.0000 
    108 O          24.7521   82.6069   78.0275 O.2       2 ALA2        0.0000 
    109 NZ         22.9816   81.7515   78.8235 N.2       3 LYS4        0.0000 
    110 CA         23.5571   81.9102   77.4474 C.3       5 GLY6        0.0000 
    111 NZ         21.7866   81.0548   78.2434 N.2       3 LYS4        0.0000 
    112 CA         22.3620   81.2136   76.8673 C.3       5 GLY6        0.0000 
    113 CA         20.5915   80.3581   77.6633 C.3       5 GLY6        0.0000 
    114 N          21.1670   80.5169   76.2872 N.2       2 ALA2        0.0000 
    115 CA         19.3965   79.6614   77.0833 C.3       5 GLY6        0.0000 
    116 CA         19.9719   79.8202   75.7071 C.3       5 GLY6        0.0000 
@<TRIPOS>BOND
@<TRIPOS>SUBSTRUCTURE
     1 SER1       69 GROUP   
     2 ALA2       10 GROUP   
     3 LYS4        8 GROUP   
     4 PHE5        7 GROUP   
     5 GLY6        3 GROUP   
     6 CUB7        1 GROUP   
@<TRIPOS>SET

