#    Name: 1ffy_MRC_1_INTS_M
#    Modification time : Tue Mar 25 01:22:01 2014

@<TRIPOS>MOLECULE
1ffy_MRC_1_INTS_M
   90     0     9     0     0
SMALL
NO_CHARGES


@<TRIPOS>ATOM
      1 CA         29.4250   81.1470   82.8940 C.3       3 GLC5        0.0000 
      2 CA         29.9490   82.3820   81.2800 C.3       9 GLL5        0.0000 
      3 CA         28.9010   79.9120   84.5080 C.3       6 GLP5        0.0000 
      4 CA         31.1720   82.8885   80.2540 C.3       3 GLC5        0.0000 
      5 CA         32.3950   83.3950   79.2280 C.3       6 GLP5        0.0000 
      6 CA         25.5465   83.8510   78.3310 C.3       3 GLC5        0.0000 
      7 CA         25.2560   81.8320   78.9110 C.3       9 GLL5        0.0000 
      8 CA         25.8370   85.8700   77.7510 C.3       6 GLP5        0.0000 
      9 CA         24.3920   82.3095   76.9760 C.3       3 GLC5        0.0000 
     10 CA         23.5280   82.7870   75.0410 C.3       6 GLP5        0.0000 
     11 CA         22.7950   83.3580   78.3765 C.3       3 GLC5        0.0000 
     12 CA         23.8320   81.8670   79.5560 C.3       9 GLL5        0.0000 
     13 CA         21.7580   84.8490   77.1970 C.3       6 GLP5        0.0000 
     14 CA         18.6200   77.1495   76.2535 C.3       3 GLC5        0.0000 
     15 CA         20.3230   77.6620   75.5370 C.3       9 GLL5        0.0000 
     16 CA         16.9170   76.6370   76.9700 C.3       6 GLP5        0.0000 
     17 CA         18.9970   76.8585   74.5080 C.3       3 GLC5        0.0000 
     18 CA         17.6710   76.0550   73.4790 C.3       6 GLP5        0.0000 
     19 CA         28.2715   83.8100   83.0535 C.3       3 GLC5        0.0000 
     20 CA         28.4560   84.5230   81.3480 C.3       9 GLL5        0.0000 
     21 CA         28.0870   83.0970   84.7590 C.3       6 GLP5        0.0000 
     22 CA         27.3780   86.1100   81.2375 C.3       3 GLC5        0.0000 
     23 CA         26.3000   87.6970   81.1270 C.3       6 GLP5        0.0000 
     24 CA         29.6510   84.8030   79.9320 C.3       3 GLC5        0.0000 
     25 CA         30.8460   85.0830   78.5160 C.3       6 GLP5        0.0000 
     26 CA         24.8580   81.5245   83.7755 C.3       3 GLC5        0.0000 
     27 CA         24.8990   81.6340   81.8140 C.3       9 GLL5        0.0000 
     28 CA         24.8170   81.4150   85.7370 C.3       6 GLP5        0.0000 
     29 CA         23.9335   83.2645   82.6320 C.3       3 GLC5        0.0000 
     30 CA         22.9680   84.8950   83.4500 C.3       6 GLP5        0.0000 
     31 CA         37.8350   74.5565   86.4725 C.3       3 GLC5        0.0000 
     32 CA         36.9150   75.9970   85.0710 C.3       9 GLL5        0.0000 
     33 CA         38.7550   73.1160   87.8740 C.3       6 GLP5        0.0000 
     34 CA         36.6590   79.7605   85.4970 C.3       3 GLC5        0.0000 
     35 CA         35.4430   78.0680   84.8970 C.3       9 GLL5        0.0000 
     36 CA         37.8750   81.4530   86.0970 C.3       6 GLP5        0.0000 
     37 CA         30.4915   80.7155   84.1555 C.3       3 GLC5        0.0000 
     38 CA         32.0820   81.5190   83.8030 C.3       9 GLL5        0.0000 
     39 CA         30.0845   82.3080   84.2810 C.3       3 GLC5        0.0000 
     40 N          31.7380   85.0370   82.9480 N.am      2 SEC2        0.0000 
     41 N          31.0440   83.8850   82.6670 N.am      8 SEL2        0.0000 
     42 N          32.4320   86.1890   83.2290 N.am      5 SEP2        0.0000 
     43 N          23.9685   84.4010   78.8640 N.am      2 SEC2        0.0000 
     44 N          23.5030   83.2240   79.7350 N.am      8 SEL2        0.0000 
     45 N          24.4340   85.5780   77.9930 N.am      5 SEP2        0.0000 
     46 O          22.2200   83.2675   79.5570 O.2       1 ALC1        0.0000 
     47 O          23.5030   83.2240   79.7350 O.2       7 ALL1        0.0000 
     48 O          20.9370   83.3110   79.3790 O.2       4 ALP1        0.0000 
     49 N          24.9165   84.1825   77.9070 N.am      2 SEC2        0.0000 
     50 N          25.3990   82.7870   77.8210 N.am      8 SEL2        0.0000 
     51 N          25.1350   81.7960   76.6020 N.am      2 SEC2        0.0000 
     52 N          24.8710   80.8050   75.3830 N.am      5 SEP2        0.0000 
     53 O          26.4570   82.9355   76.9810 O.2       1 ALC1        0.0000 
     54 O          25.3990   82.7870   77.8210 O.2       7 ALL1        0.0000 
     55 O          27.5150   83.0840   76.1410 O.2       4 ALP1        0.0000 
     56 CA         19.3295   80.6635   77.5710 C.3       3 GLC5        0.0000 
     57 CA         21.3950   80.4050   77.0270 C.3       9 GLL5        0.0000 
     58 CA         17.2640   80.9220   78.1150 C.3       6 GLP5        0.0000 
     59 CA         20.8735   82.3170   77.1465 C.3       3 GLC5        0.0000 
     60 CA         20.3520   84.2290   77.2660 C.3       6 GLP5        0.0000 
     61 CA         22.4615   81.5960   76.0340 C.3       3 GLC5        0.0000 
     62 CA         20.6920   80.6000   75.0690 C.3       3 GLC5        0.0000 
     63 CA         19.9890   80.7950   73.1110 C.3       6 GLP5        0.0000 
     64 O          22.0405   75.8970   76.7490 O.2       1 ALC1        0.0000 
     65 O          22.5240   76.8680   75.9870 O.2       7 ALL1        0.0000 
     66 O          21.5570   74.9260   77.5110 O.2       4 ALP1        0.0000 
     67 CA         28.7330   82.9165   82.9183 C.3       3 GLC5        0.0000 
     68 CA         28.8090   83.0900   80.8750 C.3       9 GLL5        0.0000 
     69 CA         29.2633   83.4813   79.0203 C.3       3 GLC5        0.0000 
     70 CA         30.2250   84.1620   77.6600 C.3       6 GLP5        0.0000 
     71 CA         26.4340   84.1527   78.8383 C.3       3 GLC5        0.0000 
     72 CA         27.7940   82.5110   79.8860 C.3       9 GLL5        0.0000 
     73 CA         23.9760   79.3438   82.4590 C.3       3 GLC5        0.0000 
     74 CA         23.7580   81.0560   80.9270 C.3       9 GLL5        0.0000 
     75 CA         24.1630   78.4260   84.2450 C.3       6 GLP5        0.0000 
     76 CA         21.9289   77.5614   80.0324 C.3       3 GLC5        0.0000 
     77 CA         23.8200   79.4670   80.4190 C.3       9 GLL5        0.0000 
     78 CA         20.6950   76.3070   80.9760 C.3       6 GLP5        0.0000 
     79 CA         22.0230   77.6480   73.9010 C.3       3 GLC5        0.0000 
     80 CA         21.7790   78.0520   75.8210 C.3       9 GLL5        0.0000 
     81 CA         22.9950   77.4390   72.1230 C.3       6 GLP5        0.0000 
     82 CA         20.5200   79.3260   74.3950 C.3       3 GLC5        0.0000 
     83 CA         31.9943   78.7312   85.3785 C.3       3 GLC5        0.0000 
     84 CA         33.4900   79.3560   83.9290 C.3       9 GLL5        0.0000 
     85 CA         30.2270   78.4690   86.2090 C.3       6 GLP5        0.0000 
     86 CA         34.3337   80.4772   85.8640 C.3       3 GLC5        0.0000 
     87 CA         34.0330   78.6310   85.1670 C.3       9 GLL5        0.0000 
     88 CA         34.9060   81.9610   87.1800 C.3       6 GLP5        0.0000 
     89 CA         33.8370   81.5817   85.5785 C.3       3 GLC5        0.0000 
     90 CA         33.4540   80.8860   84.1510 C.3       9 GLL5        0.0000 
@<TRIPOS>BOND
@<TRIPOS>SUBSTRUCTURE
     1 ALC1       46 GROUP        1 X    ALC  0     ROOT ALC X 1
     2 SEC2       40 GROUP        1 X    SEC  0     **** SEC X 2
     3 GLC5        1 GROUP        1 X    GLC  0     **** GLC X 6
     4 ALP1       48 GROUP        1 Y    ALP  0     ROOT ALP Y 8
     5 SEP2       42 GROUP        1 Y    SEP  0     **** SEP Y 9
     6 GLP5        3 GROUP        1 Y    GLP  0     **** GLP Y 13
     7 ALL1       47 GROUP        1 Z    ALL  0     ROOT ALL Z 15
     8 SEL2       41 GROUP        1 Z    SEL  0     **** SEL Z 16
     9 GLL5        2 GROUP        1 Z    GLL  0     **** GLL Z 20
@<TRIPOS>SET

