#    Name: 1ffy_MRC_1_ligand
#    Modification time : Tue Mar 25 01:22:01 2014

@<TRIPOS>MOLECULE
1ffy_MRC_1_ligand
   78    79     1     0     0
SMALL
NO_CHARGES


@<TRIPOS>ATOM
      1 C1         30.9940   82.7690   82.1390 C.2       1 MRC1993     0.0000 
      2 C2         29.9490   82.3820   81.2800 C.2       1 MRC1993     0.0000 
      3 C3         28.8090   83.0900   80.8750 C.2       1 MRC1993     0.0000 
      4 C4         27.7940   82.5110   79.8860 C.3       1 MRC1993     0.0000 
      5 C5         26.2680   82.3600   79.9650 C.3       1 MRC1993     0.0000 
      6 C6         25.2560   81.8320   78.9110 C.3       1 MRC1993     0.0000 
      7 C7         23.8320   81.8670   79.5560 C.3       1 MRC1993     0.0000 
      8 C8         23.7580   81.0560   80.9270 C.3       1 MRC1993     0.0000 
      9 C9         23.8200   79.4670   80.4190 C.3       1 MRC1993     0.0000 
     10 C10        22.8330   78.6100   79.5500 C.3       1 MRC1993     0.0000 
     11 C11        22.9990   78.5930   78.1930 C.3       1 MRC1993     0.0000 
     12 C12        21.7330   78.8390   77.3050 C.3       1 MRC1993     0.0000 
     13 C13        21.7790   78.0520   75.8210 C.3       1 MRC1993     0.0000 
     14 C14        20.3230   77.6620   75.5370 C.3       1 MRC1993     0.0000 
     15 C15        28.4560   84.5230   81.3480 C.3       1 MRC1993     0.0000 
     16 C16        24.8990   81.6340   81.8140 C.3       1 MRC1993     0.0000 
     17 C1'        38.5610   75.4010   83.1880 C.2       1 MRC1993     0.0000 
     18 O1P        39.3670   74.7050   83.8410 O.co2     1 MRC1993     0.0000 
     19 O1Q        38.9630   76.0340   82.1850 O.co2     1 MRC1993     0.0000 
     20 C2'        37.0740   75.4800   83.6150 C.3       1 MRC1993     0.0000 
     21 C3'        36.9150   75.9970   85.0710 C.3       1 MRC1993     0.0000 
     22 C4'        35.5130   76.5880   85.3230 C.3       1 MRC1993     0.0000 
     23 C5'        35.4430   78.0680   84.8970 C.3       1 MRC1993     0.0000 
     24 C6'        34.0330   78.6310   85.1670 C.3       1 MRC1993     0.0000 
     25 C7'        33.4900   79.3560   83.9290 C.3       1 MRC1993     0.0000 
     26 C8'        33.4540   80.8860   84.1510 C.3       1 MRC1993     0.0000 
     27 C9'        32.0820   81.5190   83.8030 C.3       1 MRC1993     0.0000 
     28 O1A        32.0560   81.8800   82.4130 O.3       1 MRC1993     0.0000 
     29 O1B        31.0440   83.8850   82.6670 O.2       1 MRC1993     0.0000 
     30 O5         26.2090   81.6250   81.1830 O.3       1 MRC1993     0.0000 
     31 O7         23.5030   83.2240   79.7350 O.3       1 MRC1993     0.0000 
     32 O6         25.3990   82.7870   77.8210 O.3       1 MRC1993     0.0000 
     33 O10        22.8680   77.3840   78.9810 O.3       1 MRC1993     0.0000 
     34 C17        21.3950   80.4050   77.0270 C.3       1 MRC1993     0.0000 
     35 O13        22.5240   76.8680   75.9870 O.3       1 MRC1993     0.0000 
     36 H          30.0422   81.3725   80.8651 H         1 MRC1993     0.0000 
     37 H          28.2093   81.4407   79.5809 H         1 MRC1993     0.0000 
     38 H          28.0129   83.0410   78.8457 H         1 MRC1993     0.0000 
     39 H          25.9015   83.4123   80.2892 H         1 MRC1993     0.0000 
     40 H          25.5233   80.8666   78.6494 H         1 MRC1993     0.0000 
     41 H          23.1574   81.3832   78.8585 H         1 MRC1993     0.0000 
     42 H          22.8027   81.2351   81.3233 H         1 MRC1993     0.0000 
     43 H          24.0298   78.8657   81.4050 H         1 MRC1993     0.0000 
     44 H          24.8857   79.3684   79.9371 H         1 MRC1993     0.0000 
     45 H          21.7861   78.8750   79.6798 H         1 MRC1993     0.0000 
     46 H          23.8745   78.7023   77.8997 H         1 MRC1993     0.0000 
     47 H          20.8470   78.4234   77.8043 H         1 MRC1993     0.0000 
     48 H          22.1243   78.7304   75.1425 H         1 MRC1993     0.0000 
     49 H          24.9064   81.0481   82.7560 H         1 MRC1993     0.0000 
     50 H          24.6000   82.6642   82.0969 H         1 MRC1993     0.0000 
     51 H          36.6305   74.4887   83.5427 H         1 MRC1993     0.0000 
     52 H          36.5465   76.1537   82.9423 H         1 MRC1993     0.0000 
     53 H          37.6658   76.7645   85.2545 H         1 MRC1993     0.0000 
     54 H          37.0834   75.1684   85.7576 H         1 MRC1993     0.0000 
     55 H          35.2797   76.5110   86.3828 H         1 MRC1993     0.0000 
     56 H          34.7798   76.0190   84.7555 H         1 MRC1993     0.0000 
     57 H          35.6609   78.1453   83.8394 H         1 MRC1993     0.0000 
     58 H          36.1684   78.6370   85.4644 H         1 MRC1993     0.0000 
     59 H          34.0832   79.3278   85.9989 H         1 MRC1993     0.0000 
     60 H          33.3679   77.8116   85.4248 H         1 MRC1993     0.0000 
     61 H          32.4819   79.0069   83.7196 H         1 MRC1993     0.0000 
     62 H          34.1273   79.1391   83.0753 H         1 MRC1993     0.0000 
     63 H          34.2250   81.3532   83.5311 H         1 MRC1993     0.0000 
     64 H          33.6843   81.0984   85.1992 H         1 MRC1993     0.0000 
     65 H          31.9494   82.3870   84.4529 H         1 MRC1993     0.0000 
     66 H          31.3123   80.7837   84.0484 H         1 MRC1993     0.0000 
     67 H          20.2010   77.3405   74.5980 H         1 MRC1993     0.0000 
     68 H          20.0104   76.9287   76.1408 H         1 MRC1993     0.0000 
     69 H          19.7000   78.4335   75.6660 H         1 MRC1993     0.0000 
     70 H          29.1651   85.1820   81.0975 H         1 MRC1993     0.0000 
     71 H          27.5997   84.8466   80.9454 H         1 MRC1993     0.0000 
     72 H          28.3494   84.5706   82.3412 H         1 MRC1993     0.0000 
     73 H          22.1474   80.8702   76.5606 H         1 MRC1993     0.0000 
     74 H          20.5829   80.5136   76.4537 H         1 MRC1993     0.0000 
     75 H          21.2232   80.9043   77.8762 H         1 MRC1993     0.0000 
     76 H          22.6870   83.3683   79.1754 H         1 MRC1993     0.0000 
     77 H          26.3814   82.9629   77.7584 H         1 MRC1993     0.0000 
     78 H          21.9391   76.2689   76.5339 H         1 MRC1993     0.0000 
@<TRIPOS>BOND
     1    2    1 1    
     2   28    1 1    
     3   29    1 2    
     4    3    2 2    
     5   36    2 1    
     6    4    3 1    
     7   15    3 1    
     8    5    4 1    
     9   37    4 1    
    10   38    4 1    
    11    6    5 1    
    12   30    5 1    
    13   39    5 1    
    14    7    6 1    
    15   32    6 1    
    16   40    6 1    
    17    8    7 1    
    18   31    7 1    
    19   41    7 1    
    20    9    8 1    
    21   16    8 1    
    22   42    8 1    
    23   10    9 1    
    24   43    9 1    
    25   44    9 1    
    26   11   10 1    
    27   33   10 1    
    28   45   10 1    
    29   12   11 1    
    30   33   11 1    
    31   46   11 1    
    32   13   12 1    
    33   34   12 1    
    34   47   12 1    
    35   14   13 1    
    36   35   13 1    
    37   48   13 1    
    38   67   14 1    
    39   68   14 1    
    40   69   14 1    
    41   70   15 1    
    42   71   15 1    
    43   72   15 1    
    44   30   16 1    
    45   49   16 1    
    46   50   16 1    
    47   18   17 ar   
    48   19   17 ar   
    49   20   17 1    
    50   21   20 1    
    51   51   20 1    
    52   52   20 1    
    53   22   21 1    
    54   53   21 1    
    55   54   21 1    
    56   23   22 1    
    57   55   22 1    
    58   56   22 1    
    59   24   23 1    
    60   57   23 1    
    61   58   23 1    
    62   25   24 1    
    63   59   24 1    
    64   60   24 1    
    65   26   25 1    
    66   61   25 1    
    67   62   25 1    
    68   27   26 1    
    69   63   26 1    
    70   64   26 1    
    71   28   27 1    
    72   65   27 1    
    73   66   27 1    
    74   76   31 1    
    75   77   32 1    
    76   73   34 1    
    77   74   34 1    
    78   75   34 1    
    79   78   35 1    
@<TRIPOS>SUBSTRUCTURE
     1 MRC1993     1 GROUP   
@<TRIPOS>SET

