#    Name: 4ftq_4HK_1_INTS_M
#    Modification time : Mon Mar 24 20:45:46 2014

@<TRIPOS>MOLECULE
4ftq_4HK_1_INTS_M
   60     0     9     0     0
SMALL
NO_CHARGES


@<TRIPOS>ATOM
      1 N           9.4915   -6.7770   13.7840 N.am      2 SEC2        0.0000 
      2 N          10.1890   -5.4370   13.4160 N.am      8 SEL2        0.0000 
      3 N           8.7940   -8.1170   14.1520 N.am      5 SEP2        0.0000 
      4 CA          9.8795   -6.5505   12.2535 C.3       3 GLC5        0.0000 
      5 CA         11.0960   -5.0780   12.8280 C.3       9 GLL5        0.0000 
      6 CA          8.6630   -8.0230   11.6790 C.3       6 GLP5        0.0000 
      7 CA         10.7000   -4.7755   14.7160 C.3       3 GLC5        0.0000 
      8 CA         10.3040   -4.4730   16.6040 C.3       6 GLP5        0.0000 
      9 CA         12.3805   -1.3965   11.0560 C.3       3 GLC5        0.0000 
     10 CA         13.2670   -3.1710   10.6780 C.3       9 GLL5        0.0000 
     11 CA         11.4940    0.3780   11.4340 C.3       6 GLP5        0.0000 
     12 CA         11.4465   -2.5965    9.7575 C.3       3 GLC5        0.0000 
     13 CA          9.6260   -2.0220    8.8370 C.3       6 GLP5        0.0000 
     14 CA         13.2180   -7.2765   11.0275 C.3       3 GLC5        0.0000 
     15 CA         13.3380   -5.5170   12.0740 C.3       9 GLL5        0.0000 
     16 CA         13.0980   -9.0360    9.9810 C.3       6 GLP5        0.0000 
     17 CA         17.9185   -3.9825   12.0665 C.3       3 GLC5        0.0000 
     18 CA         17.7090   -5.1840   10.3150 C.3       9 GLL5        0.0000 
     19 CA         18.1280   -2.7810   13.8180 C.3       6 GLP5        0.0000 
     20 N          17.0230   -0.8815    8.0960 N.am      2 SEC2        0.0000 
     21 N          16.8750   -2.2430    8.4650 N.am      8 SEL2        0.0000 
     22 N          17.1710    0.4800    7.7270 N.am      5 SEP2        0.0000 
     23 O          14.6455   -1.2870    8.7035 O.2       1 ALC1        0.0000 
     24 O          15.6580   -2.4180    9.0670 O.2       7 ALL1        0.0000 
     25 O          13.6330   -0.1560    8.3400 O.2       4 ALP1        0.0000 
     26 CA         20.7435   -3.1725    5.4185 C.3       3 GLC5        0.0000 
     27 CA         22.5630   -4.0820    6.0960 C.3       9 GLL5        0.0000 
     28 CA         18.9240   -2.2630    4.7410 C.3       6 GLP5        0.0000 
     29 CA         20.2720   -5.5405    7.4825 C.3       3 GLC5        0.0000 
     30 CA         21.3930   -5.1500    9.2060 C.3       9 GLL5        0.0000 
     31 CA         19.1510   -5.9310    5.7590 C.3       6 GLP5        0.0000 
     32 CA         20.4295   -8.4105    8.2540 C.3       3 GLC5        0.0000 
     33 CA         22.3710   -8.1550    9.2740 C.3       9 GLL5        0.0000 
     34 CA         18.4880   -8.6660    7.2340 C.3       6 GLP5        0.0000 
     35 CA         10.3517   -4.5183   11.2327 C.3       3 GLC5        0.0000 
     36 CA         12.2410   -4.6630   12.0990 C.3       9 GLL5        0.0000 
     37 CA          9.0350   -4.1660   10.0020 C.3       6 GLP5        0.0000 
     38 CA         14.1750   -5.9930    9.5933 C.3       3 GLC5        0.0000 
     39 CA         14.4250   -3.9400   10.6090 C.3       9 GLL5        0.0000 
     40 CA         13.9230   -7.4470    8.2230 C.3       6 GLP5        0.0000 
     41 CA         15.1163   -3.1004   11.8284 C.3       3 GLC5        0.0000 
     42 CA         14.4290   -5.1380   11.3180 C.3       9 GLL5        0.0000 
     43 CA         16.0950   -1.8540   12.6760 C.3       6 GLP5        0.0000 
     44 CA         16.4888   -4.5925    7.8985 C.3       3 GLC5        0.0000 
     45 CA         15.6190   -3.5100    9.8600 C.3       9 GLL5        0.0000 
     46 CA         16.7340   -5.3790    5.9710 C.3       6 GLP5        0.0000 
     47 CA         14.0482   -3.5849    8.4419 C.3       3 GLC5        0.0000 
     48 CA         13.3640   -3.6370    6.6320 C.3       6 GLP5        0.0000 
     49 CA         16.1692   -2.8300   11.2510 C.3       3 GLC5        0.0000 
     50 CA         19.3517   -4.7670    7.1422 C.3       3 GLC5        0.0000 
     51 CA         18.9870   -3.7990    8.8830 C.3       9 GLL5        0.0000 
     52 CA         22.0739   -2.7523    9.4716 C.3       3 GLC5        0.0000 
     53 CA         20.1180   -3.4070    8.1680 C.3       9 GLL5        0.0000 
     54 CA         22.5260   -1.8540   11.0650 C.3       6 GLP5        0.0000 
     55 CA         20.6979   -4.9399    6.3825 C.3       3 GLC5        0.0000 
     56 CA         21.3370   -4.0670    8.3190 C.3       9 GLL5        0.0000 
     57 CA         21.6797   -3.6005   10.3148 C.3       3 GLC5        0.0000 
     58 CA         18.4756   -6.3404    8.5725 C.3       3 GLC5        0.0000 
     59 CA         20.2740   -5.5440    9.9230 C.3       9 GLL5        0.0000 
     60 CA         17.6210   -7.3920    7.1680 C.3       6 GLP5        0.0000 
@<TRIPOS>BOND
@<TRIPOS>SUBSTRUCTURE
     1 ALC1       23 GROUP        1 X    ALC  0     ROOT ALC X 1
     2 SEC2        1 GROUP        1 X    SEC  0     **** SEC X 2
     3 GLC5        4 GROUP        1 X    GLC  0     **** GLC X 6
     4 ALP1       25 GROUP        1 Y    ALP  0     ROOT ALP Y 8
     5 SEP2        3 GROUP        1 Y    SEP  0     **** SEP Y 9
     6 GLP5        6 GROUP        1 Y    GLP  0     **** GLP Y 13
     7 ALL1       24 GROUP        1 Z    ALL  0     ROOT ALL Z 15
     8 SEL2        2 GROUP        1 Z    SEL  0     **** SEL Z 16
     9 GLL5        5 GROUP        1 Z    GLL  0     **** GLL Z 20
@<TRIPOS>SET

