#    Name: 4ftq_4HK_1_ligand
#    Modification time : Mon Mar 24 20:45:46 2014

@<TRIPOS>MOLECULE
4ftq_4HK_1_ligand
   48    52     1     0     0
SMALL
NO_CHARGES


@<TRIPOS>ATOM
      1 N1         10.1890   -5.4370   13.4160 N.1       1 4HK301      0.0000 
      2 C1         11.0960   -5.0780   12.8280 C.1       1 4HK301      0.0000 
      3 C2         12.2410   -4.6630   12.0990 C.ar      1 4HK301      0.0000 
      4 N2         12.2020   -3.4990   11.4210 N.ar      1 4HK301      0.0000 
      5 C6         13.2670   -3.1710   10.6780 C.ar      1 4HK301      0.0000 
      6 C5         14.4250   -3.9400   10.6090 C.ar      1 4HK301      0.0000 
      7 C4         14.4290   -5.1380   11.3180 C.ar      1 4HK301      0.0000 
      8 C3         13.3380   -5.5170   12.0740 C.ar      1 4HK301      0.0000 
      9 C7         15.6190   -3.5100    9.8600 C.2       1 4HK301      0.0000 
     10 C9         16.8680   -4.1020    9.7920 C.2       1 4HK301      0.0000 
     11 C10        17.7090   -5.1840   10.3150 C.3       1 4HK301      0.0000 
     12 C11        19.0640   -4.8830    9.7470 C.ar      1 4HK301      0.0000 
     13 C22        18.9870   -3.7990    8.8830 C.ar      1 4HK301      0.0000 
     14 C8         17.6270   -3.2590    8.9050 C.2       1 4HK301      0.0000 
     15 N4         16.8750   -2.2430    8.4650 N.2       1 4HK301      0.0000 
     16 N3         15.6580   -2.4180    9.0670 N.pl3     1 4HK301      0.0000 
     17 C21        20.1180   -3.4070    8.1680 C.ar      1 4HK301      0.0000 
     18 C18        21.3370   -4.0670    8.3190 C.ar      1 4HK301      0.0000 
     19 C19        22.5160   -3.5640    7.5130 C.3       1 4HK301      0.0000 
     20 C20        22.5630   -4.0820    6.0960 C.3       1 4HK301      0.0000 
     21 C13        21.3930   -5.1500    9.2060 C.ar      1 4HK301      0.0000 
     22 C12        20.2740   -5.5440    9.9230 C.ar      1 4HK301      0.0000 
     23 O1         22.5920   -5.8180    9.2750 O.3       1 4HK301      0.0000 
     24 C14        22.7490   -6.9540    8.4270 C.3       1 4HK301      0.0000 
     25 C17        22.3710   -8.1550    9.2740 C.3       1 4HK301      0.0000 
     26 O2         23.5820   -8.8190    9.6200 O.3       1 4HK301      0.0000 
     27 C16        24.5460   -8.5280    8.6210 C.3       1 4HK301      0.0000 
     28 C15        24.2070   -7.1730    8.0500 C.3       1 4HK301      0.0000 
     29 H          13.2480   -2.2790   10.1019 H         1 4HK301      0.0000 
     30 H          15.2639   -5.7494   11.2744 H         1 4HK301      0.0000 
     31 H          13.3321   -6.3871   12.5947 H         1 4HK301      0.0000 
     32 H          17.3739   -6.1354    9.9586 H         1 4HK301      0.0000 
     33 H          17.7527   -5.1522   11.3834 H         1 4HK301      0.0000 
     34 H          14.8939   -1.8034    8.9291 H         1 4HK301      0.0000 
     35 H          20.0513   -2.6083    7.5105 H         1 4HK301      0.0000 
     36 H          23.4520   -3.8454    8.0326 H         1 4HK301      0.0000 
     37 H          22.4912   -2.4576    7.4934 H         1 4HK301      0.0000 
     38 H          20.3376   -6.3281   10.5880 H         1 4HK301      0.0000 
     39 H          22.1501   -6.9356    7.5751 H         1 4HK301      0.0000 
     40 H          21.7117   -8.7896    8.6879 H         1 4HK301      0.0000 
     41 H          21.8376   -7.7975   10.1507 H         1 4HK301      0.0000 
     42 H          24.5255   -9.2555    7.8103 H         1 4HK301      0.0000 
     43 H          25.5554   -8.4844    9.0287 H         1 4HK301      0.0000 
     44 H          24.8111   -6.4214    8.5042 H         1 4HK301      0.0000 
     45 H          24.3043   -7.1869    6.9886 H         1 4HK301      0.0000 
     46 H          23.3555   -3.7299    5.5980 H         1 4HK301      0.0000 
     47 H          22.6183   -5.0800    6.0671 H         1 4HK301      0.0000 
     48 H          21.7499   -3.8184    5.5770 H         1 4HK301      0.0000 
@<TRIPOS>BOND
     1    2    1 3    
     2    3    2 1    
     3    4    3 ar   
     4    8    3 ar   
     5    5    4 ar   
     6    6    5 ar   
     7   29    5 1    
     8    7    6 ar   
     9    9    6 1    
    10    8    7 ar   
    11   30    7 1    
    12   31    8 1    
    13   10    9 2    
    14   16    9 1    
    15   11   10 1    
    16   14   10 1    
    17   12   11 1    
    18   32   11 1    
    19   33   11 1    
    20   13   12 ar   
    21   22   12 ar   
    22   14   13 1    
    23   17   13 ar   
    24   15   14 2    
    25   16   15 1    
    26   34   16 1    
    27   18   17 ar   
    28   35   17 1    
    29   19   18 1    
    30   21   18 ar   
    31   20   19 1    
    32   36   19 1    
    33   37   19 1    
    34   46   20 1    
    35   47   20 1    
    36   48   20 1    
    37   22   21 ar   
    38   23   21 1    
    39   38   22 1    
    40   24   23 1    
    41   25   24 1    
    42   28   24 1    
    43   39   24 1    
    44   26   25 1    
    45   40   25 1    
    46   41   25 1    
    47   27   26 1    
    48   28   27 1    
    49   42   27 1    
    50   43   27 1    
    51   44   28 1    
    52   45   28 1    
@<TRIPOS>SUBSTRUCTURE
     1 4HK301      1 GROUP   
@<TRIPOS>SET

