#    Name: 1ypm_RA4_1_INTS_M
#    Modification time : Tue Mar 25 11:14:08 2014

@<TRIPOS>MOLECULE
1ypm_RA4_1_INTS_M
   77     0    12     0     0
SMALL
NO_CHARGES


@<TRIPOS>ATOM
      1 CA         16.2235  -17.0360   26.5675 C.3       4 GLC5        0.0000 
      2 CA         17.0020  -18.0440   25.1790 C.3      12 GLL5        0.0000 
      3 CA         15.4450  -16.0280   27.9560 C.3       8 GLP5        0.0000 
      4 CA         15.0255  -17.7690   26.2540 C.3       4 GLC5        0.0000 
      5 CA         15.8510  -18.8250   25.0810 C.3      12 GLL5        0.0000 
      6 CA         14.2000  -16.7130   27.4270 C.3       8 GLP5        0.0000 
      7 N          12.1360  -20.5510   24.7015 N.am      2 SEC2        0.0000 
      8 N          13.5920  -20.3760   24.9460 N.am     10 SEL2        0.0000 
      9 N          10.6800  -20.7260   24.4570 N.am      6 SEP2        0.0000 
     10 CA         22.9295  -11.9075   26.8055 C.3       4 GLC5        0.0000 
     11 CA         21.3350  -12.5700   26.0560 C.3      12 GLL5        0.0000 
     12 CA         24.5240  -11.2450   27.5550 C.3       8 GLP5        0.0000 
     13 CA         21.8305  -11.1600   24.7195 C.3       4 GLC5        0.0000 
     14 CA         22.3260   -9.7500   23.3830 C.3       8 GLP5        0.0000 
     15 CA         21.4490  -12.7860   28.0735 C.3       4 GLC5        0.0000 
     16 CA         21.5630  -13.0020   30.0910 C.3       8 GLP5        0.0000 
     17 CA         19.7435  -11.6700   26.5845 C.3       4 GLC5        0.0000 
     18 CA         18.1520  -10.7700   27.1130 C.3       8 GLP5        0.0000 
     19 CA         18.3005  -11.1555   22.6545 C.3       4 GLC5        0.0000 
     20 CA         18.8720  -11.8020   20.7750 C.3      12 GLL5        0.0000 
     21 CA         17.7290  -10.5090   24.5340 C.3       8 GLP5        0.0000 
     22 CA         19.5355  -12.9955   18.0110 C.3       4 GLC5        0.0000 
     23 CA         19.7590  -11.7190   19.5110 C.3      12 GLL5        0.0000 
     24 CA         19.3120  -14.2720   16.5110 C.3       8 GLP5        0.0000 
     25 O          17.1680   -9.6090   21.2390 O.2       1 ALC1        0.0000 
     26 O          16.7930  -10.7580   20.4150 O.2       9 ALL1        0.0000 
     27 O          17.5430   -8.4600   22.0630 O.2       5 ALP1        0.0000 
     28 CA         13.7175   -7.9945   21.0850 C.3       4 GLC5        0.0000 
     29 CA         14.5560   -9.9490   20.7680 C.3      12 GLL5        0.0000 
     30 CA         12.8790   -6.0400   21.4020 C.3       8 GLP5        0.0000 
     31 CA         10.9685   -8.5100   22.1280 C.3       4 GLC5        0.0000 
     32 CA         12.5840   -9.9020   22.3420 C.3      12 GLL5        0.0000 
     33 CA          9.3530   -7.1180   21.9140 C.3       8 GLP5        0.0000 
     34 CA         12.7315   -7.9710   21.8720 C.3       4 GLC5        0.0000 
     35 CA         13.3285  -11.1470   23.9730 C.3       4 GLC5        0.0000 
     36 CA         14.0730  -12.3920   25.6040 C.3       8 GLP5        0.0000 
     37 OD1         9.6175   -9.3590   24.9300 O.co2     3 ASC3        0.0000 
     38 OD1        11.1720  -10.5770   24.0640 O.co2    11 ASL3        0.0000 
     39 OD1         8.3500   -9.3270   25.4410 O.co2     7 ASP3        0.0000 
     40 OD1         9.3790  -11.5390   25.1585 O.co2     3 ASC3        0.0000 
     41 OD1         8.1720  -11.5160   25.6690 O.co2     7 ASP3        0.0000 
     42 O           9.6175   -9.3590   24.9300 O.2       1 ALC1        0.0000 
     43 O          10.8850   -9.3910   24.4190 O.2       9 ALL1        0.0000 
     44 O           8.3500   -9.3270   25.4410 O.2       5 ALP1        0.0000 
     45 O           9.4680  -10.4445   25.0445 O.2       1 ALC1        0.0000 
     46 O          10.5860  -11.5620   24.6480 O.2       9 ALL1        0.0000 
     47 O           9.3790  -11.5390   25.1585 O.2       1 ALC1        0.0000 
     48 O           8.1720  -11.5160   25.6690 O.2       5 ALP1        0.0000 
     49 O          10.6240  -13.1090   24.3590 O.2       1 ALC1        0.0000 
     50 O          10.6620  -14.6560   24.0700 O.2       5 ALP1        0.0000 
     51 CA         14.5057  -17.3203   24.7400 C.3       4 GLC5        0.0000 
     52 CA         15.6020  -18.1690   22.7830 C.3      12 GLL5        0.0000 
     53 CA         13.6420  -16.1080   26.1480 C.3       8 GLP5        0.0000 
     54 CA         18.8293  -12.3380   24.1560 C.3       4 GLC5        0.0000 
     55 CA         19.2630  -14.4480   23.5380 C.3      12 GLL5        0.0000 
     56 CA         20.1505  -14.5917   27.8080 C.3       4 GLC5        0.0000 
     57 CA         20.7810  -13.9070   25.5320 C.3      12 GLL5        0.0000 
     58 CA         20.1650  -15.0750   29.7210 C.3       8 GLP5        0.0000 
     59 CA         18.8430  -13.0363   26.7055 C.3       4 GLC5        0.0000 
     60 CA         19.4910  -14.3100   26.2580 C.3      12 GLL5        0.0000 
     61 CA         17.5500  -11.9640   27.5160 C.3       8 GLP5        0.0000 
     62 CA         19.3152  -10.2192   19.0575 C.3       4 GLC5        0.0000 
     63 CA         19.3150   -8.6780   17.9720 C.3       8 GLP5        0.0000 
     64 CA         22.2778  -13.6760   19.9898 C.3       4 GLC5        0.0000 
     65 CA         20.9400  -12.6850   19.7680 C.3      12 GLL5        0.0000 
     66 CA         23.8960  -14.1290   19.7280 C.3       8 GLP5        0.0000 
     67 CA         19.7703  -14.1515   18.9112 C.3       4 GLC5        0.0000 
     68 CA         18.8810  -15.0800   17.5710 C.3       8 GLP5        0.0000 
     69 CA         20.5819  -10.8294   21.2923 C.3       4 GLC5        0.0000 
     70 CA         21.0360   -9.4360   22.6290 C.3       8 GLP5        0.0000 
     71 CA         15.7080  -10.1412   22.2263 C.3       4 GLC5        0.0000 
     72 CA         15.4320  -10.9080   19.9330 C.3      12 GLL5        0.0000 
     73 CA         16.4220   -9.8540   24.1020 C.3       8 GLP5        0.0000 
     74 CA         11.0687  -10.6172   20.7918 C.3       4 GLC5        0.0000 
     75 CA         13.2930  -10.6930   21.2130 C.3      12 GLL5        0.0000 
     76 CA          9.1990  -10.9370   19.8060 C.3       8 GLP5        0.0000 
     77 CA         14.6803  -10.0757   22.9398 C.3       4 GLC5        0.0000 
@<TRIPOS>BOND
@<TRIPOS>SUBSTRUCTURE
     1 ALC1       25 GROUP        1 X    ALC  0     ROOT ALC X 1
     2 SEC2        7 GROUP        1 X    SEC  0     **** SEC X 2
     3 ASC3       37 GROUP        1 X    ASC  0     **** ASC X 3
     4 GLC5        1 GROUP        1 X    GLC  0     **** GLC X 6
     5 ALP1       27 GROUP        1 Y    ALP  0     ROOT ALP Y 8
     6 SEP2        9 GROUP        1 Y    SEP  0     **** SEP Y 9
     7 ASP3       39 GROUP        1 Y    ASP  0     **** ASP Y 10
     8 GLP5        3 GROUP        1 Y    GLP  0     **** GLP Y 13
     9 ALL1       26 GROUP        1 Z    ALL  0     ROOT ALL Z 15
    10 SEL2        8 GROUP        1 Z    SEL  0     **** SEL Z 16
    11 ASL3       38 GROUP        1 Z    ASL  0     **** ASL Z 17
    12 GLL5        2 GROUP        1 Z    GLL  0     **** GLL Z 20
@<TRIPOS>SET

