#    Name: 1ypm_RA4_1_ligand
#    Modification time : Tue Mar 25 11:14:08 2014

@<TRIPOS>MOLECULE
1ypm_RA4_1_ligand
   70    71     1     0     0
SMALL
NO_CHARGES


@<TRIPOS>ATOM
      1 C26        18.8680  -16.7720   24.1520 C.2       1 RA45555     0.0000 
      2 O25        19.5500  -17.1570   25.0960 O.2       1 RA45555     0.0000 
      3 C27        17.4640  -17.3180   24.0740 C.ar      1 RA45555     0.0000 
      4 C28        17.0020  -18.0440   25.1790 C.ar      1 RA45555     0.0000 
      5 C29        15.8510  -18.8250   25.0810 C.ar      1 RA45555     0.0000 
      6 C30        15.1370  -18.8960   23.8810 C.ar      1 RA45555     0.0000 
      7 C34        15.6020  -18.1690   22.7830 C.ar      1 RA45555     0.0000 
      8 C35        16.7610  -17.3890   22.8730 C.ar      1 RA45555     0.0000 
      9 N31        14.0240  -19.6640   23.8140 N.pl3     1 RA45555     0.0000 
     10 O32        13.5920  -20.3760   24.9460 O.2       1 RA45555     0.0000 
     11 O33        13.3790  -19.7570   22.7950 O.2       1 RA45555     0.0000 
     12 N24        19.2950  -15.8610   23.2690 N.am      1 RA45555     0.0000 
     13 C23        19.2630  -14.4480   23.5380 C.3       1 RA45555     0.0000 
     14 C18        18.6450  -13.6080   22.4430 C.2       1 RA45555     0.0000 
     15 O17        17.5980  -13.0770   22.8290 O.2       1 RA45555     0.0000 
     16 C22        20.5960  -13.8860   24.0180 C.3       1 RA45555     0.0000 
     17 C21        20.7810  -13.9070   25.5320 C.3       1 RA45555     0.0000 
     18 C19        21.3350  -12.5700   26.0560 C.3       1 RA45555     0.0000 
     19 C20        19.4910  -14.3100   26.2580 C.3       1 RA45555     0.0000 
     20 N16        19.3030  -13.0460   21.3950 N.am      1 RA45555     0.0000 
     21 C12        18.8720  -11.8020   20.7750 C.3       1 RA45555     0.0000 
     22 C11        17.4360  -11.8570   20.3190 C.2       1 RA45555     0.0000 
     23 O10        17.0640  -12.8040   19.6320 O.2       1 RA45555     0.0000 
     24 C13        19.7590  -11.7190   19.5110 C.3       1 RA45555     0.0000 
     25 C14        20.9400  -12.6850   19.7680 C.3       1 RA45555     0.0000 
     26 C15        20.3790  -13.7610   20.7350 C.3       1 RA45555     0.0000 
     27 N9         16.7930  -10.7580   20.4150 N.am      1 RA45555     0.0000 
     28 C8         15.4320  -10.9080   19.9330 C.3       1 RA45555     0.0000 
     29 C7         14.5560   -9.9490   20.7680 C.3       1 RA45555     0.0000 
     30 C6         13.2930  -10.6930   21.2130 C.3       1 RA45555     0.0000 
     31 C5         12.5840   -9.9020   22.3420 C.3       1 RA45555     0.0000 
     32 N4         11.9980  -10.9160   23.1740 N.pl3     1 RA45555     0.0000 
     33 C2         11.1720  -10.5770   24.0640 C.cat     1 RA45555     0.0000 
     34 N1         10.8850   -9.3910   24.4190 N.pl3     1 RA45555     0.0000 
     35 N3         10.5860  -11.5620   24.6480 N.pl3     1 RA45555     0.0000 
     36 H          17.5177  -17.9989   26.0687 H         1 RA45555     0.0000 
     37 H          15.5216  -19.3563   25.9011 H         1 RA45555     0.0000 
     38 H          15.0839  -18.2064   21.8903 H         1 RA45555     0.0000 
     39 H          17.0912  -16.8695   22.0510 H         1 RA45555     0.0000 
     40 H          19.6744  -16.1452   22.3346 H         1 RA45555     0.0000 
     41 H          18.5583  -14.2991   24.4459 H         1 RA45555     0.0000 
     42 H          20.6954  -12.8451   23.6604 H         1 RA45555     0.0000 
     43 H          21.4161  -14.4601   23.5500 H         1 RA45555     0.0000 
     44 H          21.5392  -14.6820   25.7612 H         1 RA45555     0.0000 
     45 H          19.0664  -10.9694   21.3661 H         1 RA45555     0.0000 
     46 H          20.1284  -10.7284   19.4004 H         1 RA45555     0.0000 
     47 H          19.2060  -12.0514   18.6662 H         1 RA45555     0.0000 
     48 H          21.7309  -12.1619   20.2428 H         1 RA45555     0.0000 
     49 H          21.2282  -13.1452   18.8570 H         1 RA45555     0.0000 
     50 H          20.0236  -14.5738   20.1531 H         1 RA45555     0.0000 
     51 H          21.1521  -14.0342   21.4082 H         1 RA45555     0.0000 
     52 H          17.0884   -9.8863   20.7518 H         1 RA45555     0.0000 
     53 H          15.0631  -11.9114   20.0815 H         1 RA45555     0.0000 
     54 H          15.3413  -10.6246   18.8955 H         1 RA45555     0.0000 
     55 H          14.2816   -9.1018   20.1601 H         1 RA45555     0.0000 
     56 H          15.1112   -9.6281   21.6348 H         1 RA45555     0.0000 
     57 H          13.5612  -11.6723   21.5869 H         1 RA45555     0.0000 
     58 H          12.6151  -10.7909   20.3753 H         1 RA45555     0.0000 
     59 H          11.8476   -9.2708   21.8866 H         1 RA45555     0.0000 
     60 H          13.3286   -9.3297   22.8579 H         1 RA45555     0.0000 
     61 H          12.3032  -11.8905   22.9810 H         1 RA45555     0.0000 
     62 H           9.9286  -11.3220   25.3623 H         1 RA45555     0.0000 
     63 H          10.8425  -12.4759   24.3332 H         1 RA45555     0.0000 
     64 H          22.2250  -12.3539   25.6546 H         1 RA45555     0.0000 
     65 H          20.7248  -11.8066   25.8442 H         1 RA45555     0.0000 
     66 H          21.4562  -12.5817   27.0486 H         1 RA45555     0.0000 
     67 H          19.1837  -15.2231   25.9900 H         1 RA45555     0.0000 
     68 H          19.6114  -14.3209   27.2507 H         1 RA45555     0.0000 
     69 H          18.7410  -13.6787   26.0606 H         1 RA45555     0.0000 
     70 H           9.9554   -9.4478   24.7831 H         1 RA45555     0.0000 
@<TRIPOS>BOND
     1    2    1 2    
     2    3    1 1    
     3   12    1 am   
     4    4    3 ar   
     5    8    3 ar   
     6    5    4 ar   
     7   36    4 1    
     8    6    5 ar   
     9   37    5 1    
    10    7    6 ar   
    11    9    6 1    
    12    8    7 ar   
    13   38    7 1    
    14   39    8 1    
    15   10    9 2    
    16   11    9 2    
    17   13   12 1    
    18   40   12 1    
    19   14   13 1    
    20   16   13 1    
    21   41   13 1    
    22   15   14 2    
    23   20   14 am   
    24   17   16 1    
    25   42   16 1    
    26   43   16 1    
    27   18   17 1    
    28   19   17 1    
    29   44   17 1    
    30   64   18 1    
    31   65   18 1    
    32   66   18 1    
    33   67   19 1    
    34   68   19 1    
    35   69   19 1    
    36   21   20 1    
    37   26   20 1    
    38   22   21 1    
    39   24   21 1    
    40   45   21 1    
    41   23   22 2    
    42   27   22 am   
    43   25   24 1    
    44   46   24 1    
    45   47   24 1    
    46   26   25 1    
    47   48   25 1    
    48   49   25 1    
    49   50   26 1    
    50   51   26 1    
    51   28   27 1    
    52   52   27 1    
    53   29   28 1    
    54   53   28 1    
    55   54   28 1    
    56   30   29 1    
    57   55   29 1    
    58   56   29 1    
    59   31   30 1    
    60   57   30 1    
    61   58   30 1    
    62   32   31 1    
    63   59   31 1    
    64   60   31 1    
    65   33   32 ar   
    66   61   32 1    
    67   34   33 ar   
    68   35   33 ar   
    69   70   34 1    
    70   62   35 1    
    71   63   35 1    
@<TRIPOS>SUBSTRUCTURE
     1 RA45555     1 GROUP   
@<TRIPOS>SET

