#    Name: 4nmb_FAD_1_INTS_M
#    Modification time : Tue Mar 25 13:15:39 2014

@<TRIPOS>MOLECULE
4nmb_FAD_1_INTS_M
  134     0    12     0     0
SMALL
NO_CHARGES


@<TRIPOS>ATOM
      1 NZ         68.1000   14.2735   -7.1760 N.4       3 LYC4        0.0000 
      2 NZ         67.1320   13.8280   -8.7250 N.4      11 LYL4        0.0000 
      3 NZ         69.0680   14.7190   -5.6270 N.4       7 LYP4        0.0000 
      4 N          66.9025   15.1095   -8.9215 N.am      2 SEC2        0.0000 
      5 N          67.1320   13.8280   -8.7250 N.am     10 SEL2        0.0000 
      6 N          66.6730   16.3910   -9.1180 N.am      6 SEP2        0.0000 
      7 NZ         70.7195   12.2970   -7.7275 N.4       3 LYC4        0.0000 
      8 NZ         69.5170   12.9800   -8.2080 N.4      11 LYL4        0.0000 
      9 NZ         71.9220   11.6140   -7.2470 N.4       7 LYP4        0.0000 
     10 NZ         69.2925   13.8495   -6.9175 N.4       3 LYC4        0.0000 
     11 N          70.7195   12.2970   -7.7275 N.am      2 SEC2        0.0000 
     12 N          69.5170   12.9800   -8.2080 N.am     10 SEL2        0.0000 
     13 N          71.9220   11.6140   -7.2470 N.am      6 SEP2        0.0000 
     14 N          69.2925   13.8495   -6.9175 N.am      2 SEC2        0.0000 
     15 N          69.0680   14.7190   -5.6270 N.am      6 SEP2        0.0000 
     16 N          70.7385   14.0180   -8.0815 N.am      2 SEC2        0.0000 
     17 N          71.9600   15.0560   -7.9550 N.am      6 SEP2        0.0000 
     18 O          65.1765    6.9350   -7.2660 O.2       1 ALC1        0.0000 
     19 O          65.2610    8.3350   -7.5230 O.2       9 ALL1        0.0000 
     20 O          65.0920    5.5350   -7.0090 O.2       5 ALP1        0.0000 
     21 CA         65.3705    6.7180   -4.2005 C.3       4 GLC5        0.0000 
     22 CA         65.3390    8.4450   -5.1840 C.3      12 GLL5        0.0000 
     23 CA         65.4020    4.9910   -3.2170 C.3       8 GLP5        0.0000 
     24 CA         63.5660    7.6225   -4.1410 C.3       4 GLC5        0.0000 
     25 CA         61.7930    6.8000   -3.0980 C.3       8 GLP5        0.0000 
     26 O          65.6460    6.4570   -6.1465 O.2       1 ALC1        0.0000 
     27 O          66.2000    7.3790   -5.2840 O.2       9 ALL1        0.0000 
     28 CA         67.6880    9.2415   -3.0240 C.3       4 GLC5        0.0000 
     29 CA         65.9490    9.4180   -4.2520 C.3      12 GLL5        0.0000 
     30 CA         69.4270    9.0650   -1.7960 C.3       8 GLP5        0.0000 
     31 CA         64.8840   12.1270    1.4645 C.3       4 GLC5        0.0000 
     32 CA         63.8840   11.2920   -0.2540 C.3      12 GLL5        0.0000 
     33 CA         65.8840   12.9620    3.1830 C.3       8 GLP5        0.0000 
     34 O          63.0305   12.1400    1.8235 O.2       1 ALC1        0.0000 
     35 O          62.8160   12.1400    0.2230 O.2       9 ALL1        0.0000 
     36 O          63.2450   12.1400    3.4240 O.2       5 ALP1        0.0000 
     37 CA         66.7865    8.9710    1.6890 C.3       4 GLC5        0.0000 
     38 CA         65.7640    9.9180    0.2100 C.3      12 GLL5        0.0000 
     39 CA         67.8090    8.0240    3.1680 C.3       8 GLP5        0.0000 
     40 CA         64.7930    9.9130    2.1475 C.3       4 GLC5        0.0000 
     41 CA         63.8220    9.9080    4.0850 C.3       8 GLP5        0.0000 
     42 CA         65.8240   11.4400    1.6965 C.3       4 GLC5        0.0000 
     43 CA         66.2685   11.5710   -0.1550 C.3       4 GLC5        0.0000 
     44 CA         66.7730   13.2240   -0.5200 C.3       8 GLP5        0.0000 
     45 CA         67.5955    9.4915   -0.7930 C.3       4 GLC5        0.0000 
     46 N          67.1805    9.0480   -1.0740 N.am      2 SEC2        0.0000 
     47 N          65.9380    9.6690   -1.1170 N.am     10 SEL2        0.0000 
     48 N          68.4230    8.4270   -1.0310 N.am      6 SEP2        0.0000 
     49 CA         67.2685    9.6405   -1.9095 C.3       4 GLC5        0.0000 
     50 CA         65.1100   10.2160   -2.0230 C.3      12 GLL5        0.0000 
     51 N          65.8610   -0.0385   -6.8025 N.am      2 SEC2        0.0000 
     52 N          65.6700    0.7240   -7.8170 N.am     10 SEL2        0.0000 
     53 N          66.0520   -0.8010   -5.7880 N.am      6 SEP2        0.0000 
     54 N          65.1125    2.0580   -7.6490 N.am      2 SEC2        0.0000 
     55 N          64.5550    3.3920   -7.4810 N.am      6 SEP2        0.0000 
     56 O          66.1530   -1.7045   -9.3040 O.2       1 ALC1        0.0000 
     57 O          66.6400   -0.4520   -9.6210 O.2       9 ALL1        0.0000 
     58 O          65.6660   -2.9570   -8.9870 O.2       5 ALP1        0.0000 
     59 N          67.7295   -3.0530  -10.5945 N.am      2 SEC2        0.0000 
     60 N          67.6170   -1.6660  -11.4380 N.am     10 SEL2        0.0000 
     61 N          67.8420   -4.4400   -9.7510 N.am      6 SEP2        0.0000 
     62 N          69.3745   -0.2635  -13.4110 N.am      2 SEC2        0.0000 
     63 N          68.4430    0.8070  -12.6440 N.am     10 SEL2        0.0000 
     64 N          70.3060   -1.3340  -14.1780 N.am      6 SEP2        0.0000 
     65 CA         72.5645    3.4450  -16.7410 C.3       4 GLC5        0.0000 
     66 CA         70.7370    3.2170  -16.2700 C.3      12 GLL5        0.0000 
     67 CA         74.3920    3.6730  -17.2120 C.3       8 GLP5        0.0000 
     68 CA         71.1255    5.1265  -17.2230 C.3       4 GLC5        0.0000 
     69 CA         71.5140    7.0360  -18.1760 C.3       8 GLP5        0.0000 
     70 CA         70.8420    6.3825  -16.5385 C.3       4 GLC5        0.0000 
     71 CA         70.1700    5.7290  -14.9010 C.3      12 GLL5        0.0000 
     72 CA         68.5340    5.7300  -15.7700 C.3       4 GLC5        0.0000 
     73 CA         66.8980    5.7310  -16.6390 C.3       8 GLP5        0.0000 
     74 CA         69.1360    3.7490   -9.9105 C.3       4 GLC5        0.0000 
     75 CA         67.6170    4.5280  -10.5880 C.3      12 GLL5        0.0000 
     76 CA         70.6550    2.9700   -9.2330 C.3       8 GLP5        0.0000 
     77 CA         67.1410    4.1870   -8.4765 C.3       4 GLC5        0.0000 
     78 CA         66.6650    3.8460   -6.3650 C.3       8 GLP5        0.0000 
     79 CA         64.8240    4.0385  -10.2220 C.3       4 GLC5        0.0000 
     80 CA         66.2650    5.1630  -10.8560 C.3      12 GLL5        0.0000 
     81 CA         63.3830    2.9140   -9.5880 C.3       8 GLP5        0.0000 
     82 O          65.4635    7.4090  -12.7440 O.2       1 ALC1        0.0000 
     83 O          66.9060    6.9000  -12.3280 O.2       9 ALL1        0.0000 
     84 O          64.0210    7.9180  -13.1600 O.2       5 ALP1        0.0000 
     85 O          66.3595    8.0510  -12.6890 O.2       1 ALC1        0.0000 
     86 O          65.8130    9.2020  -13.0500 O.2       5 ALP1        0.0000 
     87 CA         68.5095    7.2890   -8.1210 C.3       4 GLC5        0.0000 
     88 CA         67.4300    7.3530  -10.0810 C.3      12 GLL5        0.0000 
     89 CA         69.5890    7.2250   -6.1610 C.3       8 GLP5        0.0000 
     90 N          67.4935    5.8380   -7.6845 N.am      2 SEC2        0.0000 
     91 N          67.2000    6.9200   -8.7940 N.am     10 SEL2        0.0000 
     92 N          67.7870    4.7560   -6.5750 N.am      6 SEP2        0.0000 
     93 CA         65.6075    9.5125  -11.1985 C.3       4 GLC5        0.0000 
     94 CA         67.4550    8.8930  -10.1340 C.3      12 GLL5        0.0000 
     95 CA         63.7600   10.1320  -12.2630 C.3       8 GLP5        0.0000 
     96 NZ         71.4465   11.2255   -8.3840 N.4       3 LYC4        0.0000 
     97 NZ         70.9710   10.8370   -9.5210 N.4      11 LYL4        0.0000 
     98 N          71.4465   11.2255   -8.3840 N.am      2 SEC2        0.0000 
     99 N          70.9710   10.8370   -9.5210 N.am     10 SEL2        0.0000 
    100 N          72.0195   10.7635  -10.1510 N.am      2 SEC2        0.0000 
    101 N          73.0680   10.6900  -10.7810 N.am      6 SEP2        0.0000 
    102 N          70.3960   10.6950  -12.4625 N.am      2 SEC2        0.0000 
    103 N          69.2540   10.5290  -11.5590 N.am     10 SEL2        0.0000 
    104 N          71.5380   10.8610  -13.3660 N.am      6 SEP2        0.0000 
    105 N          68.9700   10.2010  -13.0245 N.am      2 SEC2        0.0000 
    106 N          68.6860    9.8730  -14.4900 N.am      6 SEP2        0.0000 
    107 CA         68.5810   10.0963   -6.6758 C.3       4 GLC5        0.0000 
    108 CA         66.5630   11.2590   -7.2540 C.3      12 GLL5        0.0000 
    109 CA         70.6150    9.5510   -6.5430 C.3       8 GLP5        0.0000 
    110 CA         67.2790   12.2772   -5.8737 C.3       4 GLC5        0.0000 
    111 CA         66.5310   10.0240   -6.3630 C.3      12 GLL5        0.0000 
    112 CA         68.0110   13.9130   -4.9390 C.3       8 GLP5        0.0000 
    113 CA         65.6538   11.9597   -0.9990 C.3       4 GLC5        0.0000 
    114 CA         64.0340   11.0580   -1.6120 C.3      12 GLL5        0.0000 
    115 CA         70.8762    1.1338  -13.6397 C.3       4 GLC5        0.0000 
    116 CA         68.8570    2.0240  -13.1870 C.3      12 GLL5        0.0000 
    117 CA         72.5440    0.2430  -13.4810 C.3       8 GLP5        0.0000 
    118 CA         70.1598    2.1347  -12.1423 C.3       4 GLC5        0.0000 
    119 CA         69.5600    2.0250  -14.4100 C.3      12 GLL5        0.0000 
    120 CA         71.1110    2.2450  -10.4860 C.3       8 GLP5        0.0000 
    121 CA         68.1418    3.1172  -15.2357 C.3       4 GLC5        0.0000 
    122 CA         67.0750    4.2100  -16.6730 C.3       8 GLP5        0.0000 
    123 CA         71.4507    1.7330  -14.5485 C.3       4 GLC5        0.0000 
    124 CA         69.9780    3.2290  -14.9620 C.3      12 GLL5        0.0000 
    125 CA         68.7163    3.7165  -16.1445 C.3       4 GLC5        0.0000 
    126 CA         69.6267    2.6655  -17.3715 C.3       4 GLC5        0.0000 
    127 CA         68.8960    2.1080  -19.1270 C.3       8 GLP5        0.0000 
    128 CA         71.6950    3.5235  -14.3225 C.3       4 GLC5        0.0000 
    129 CA         73.1370    4.1250  -13.1670 C.3       8 GLP5        0.0000 
    130 CA         68.2183    4.3225  -15.1890 C.3       4 GLC5        0.0000 
    131 CA         69.7120    4.4280  -14.3130 C.3      12 GLL5        0.0000 
    132 CA         69.9560    3.0423  -11.6522 C.3       4 GLC5        0.0000 
    133 CA         69.0110    4.4420  -13.0970 C.3      12 GLL5        0.0000 
    134 CA         71.3065    4.4426  -13.5095 C.3       4 GLC5        0.0000 
@<TRIPOS>BOND
@<TRIPOS>SUBSTRUCTURE
     1 ALC1       18 GROUP        1 X    ALC  0     ROOT ALC X 1
     2 SEC2        4 GROUP        1 X    SEC  0     **** SEC X 2
     3 LYC4        1 GROUP        1 X    LYC  0     **** LYC X 4
     4 GLC5       21 GROUP        1 X    GLC  0     **** GLC X 6
     5 ALP1       20 GROUP        1 Y    ALP  0     ROOT ALP Y 8
     6 SEP2        6 GROUP        1 Y    SEP  0     **** SEP Y 9
     7 LYP4        3 GROUP        1 Y    LYP  0     **** LYP Y 11
     8 GLP5       23 GROUP        1 Y    GLP  0     **** GLP Y 13
     9 ALL1       19 GROUP        1 Z    ALL  0     ROOT ALL Z 15
    10 SEL2        5 GROUP        1 Z    SEL  0     **** SEL Z 16
    11 LYL4        2 GROUP        1 Z    LYL  0     **** LYL Z 18
    12 GLL5       22 GROUP        1 Z    GLL  0     **** GLL Z 20
@<TRIPOS>SET

