#    Name: 4nmb_FAD_1_ligand
#    Modification time : Tue Mar 25 13:15:39 2014

@<TRIPOS>MOLECULE
4nmb_FAD_1_ligand
   84    89     1     0     0
SMALL
NO_CHARGES


@<TRIPOS>ATOM
      1 PA         68.1510   12.6610   -8.5740 P.3       1 FAD2001     0.0000 
      2 O1A        67.1320   13.8280   -8.7250 O.co2     1 FAD2001     0.0000 
      3 O2A        69.5170   12.9800   -8.2080 O.co2     1 FAD2001     0.0000 
      4 O5B        67.9070   11.6120   -7.5520 O.3       1 FAD2001     0.0000 
      5 C5B        66.5630   11.2590   -7.2540 C.3       1 FAD2001     0.0000 
      6 C4B        66.5310   10.0240   -6.3630 C.3       1 FAD2001     0.0000 
      7 O4B        66.6100   10.3880   -5.0190 O.3       1 FAD2001     0.0000 
      8 C3B        65.2790    9.2090   -6.4540 C.3       1 FAD2001     0.0000 
      9 O3B        65.2610    8.3350   -7.5230 O.3       1 FAD2001     0.0000 
     10 C2B        65.3390    8.4450   -5.1840 C.3       1 FAD2001     0.0000 
     11 O2B        66.2000    7.3790   -5.2840 O.3       1 FAD2001     0.0000 
     12 C1B        65.9490    9.4180   -4.2520 C.3       1 FAD2001     0.0000 
     13 N9A        65.0250   10.1490   -3.4290 N.pl3     1 FAD2001     0.0000 
     14 C8A        63.9490   10.9350   -3.8300 C.2       1 FAD2001     0.0000 
     15 N7A        63.3520   11.4660   -2.7540 N.2       1 FAD2001     0.0000 
     16 C5A        64.0340   11.0580   -1.6120 C.ar      1 FAD2001     0.0000 
     17 C6A        63.8840   11.2920   -0.2540 C.ar      1 FAD2001     0.0000 
     18 N6A        62.8160   12.1400    0.2230 N.pl3     1 FAD2001     0.0000 
     19 N1A        64.7450   10.7250    0.6210 N.ar      1 FAD2001     0.0000 
     20 C2A        65.7640    9.9180    0.2100 C.ar      1 FAD2001     0.0000 
     21 N3A        65.9380    9.6690   -1.1170 N.ar      1 FAD2001     0.0000 
     22 C4A        65.1100   10.2160   -2.0230 C.ar      1 FAD2001     0.0000 
     23 N1         66.7780    2.0010   -9.5350 N.2       1 FAD2001     0.0000 
     24 C2         66.3550    0.7430   -8.9880 C.2       1 FAD2001     0.0000 
     25 O2         65.6700    0.7240   -7.8170 O.2       1 FAD2001     0.0000 
     26 N3         66.6400   -0.4520   -9.6210 N.am      1 FAD2001     0.0000 
     27 C4         67.3150   -0.4730  -10.8180 C.2       1 FAD2001     0.0000 
     28 O4         67.6170   -1.6660  -11.4380 O.2       1 FAD2001     0.0000 
     29 C4X        67.7520    0.8030  -11.4400 C.2       1 FAD2001     0.0000 
     30 N5         68.4430    0.8070  -12.6440 N.2       1 FAD2001     0.0000 
     31 C5X        68.8570    2.0240  -13.1870 C.ar      1 FAD2001     0.0000 
     32 C6         69.5600    2.0250  -14.4100 C.ar      1 FAD2001     0.0000 
     33 C7         69.9780    3.2290  -14.9620 C.ar      1 FAD2001     0.0000 
     34 C7M        70.7370    3.2170  -16.2700 C.3       1 FAD2001     0.0000 
     35 C8         69.7120    4.4280  -14.3130 C.ar      1 FAD2001     0.0000 
     36 C8M        70.1700    5.7290  -14.9010 C.3       1 FAD2001     0.0000 
     37 C9         69.0110    4.4420  -13.0970 C.ar      1 FAD2001     0.0000 
     38 C9A        68.5910    3.2370  -12.5400 C.ar      1 FAD2001     0.0000 
     39 N10        67.8710    3.2490  -11.3010 N.pl3     1 FAD2001     0.0000 
     40 C10        67.4590    2.0310  -10.7380 C.2       1 FAD2001     0.0000 
     41 C1'        67.6170    4.5280  -10.5880 C.3       1 FAD2001     0.0000 
     42 C2'        66.2650    5.1630  -10.8560 C.3       1 FAD2001     0.0000 
     43 O2'        65.6890    4.5930  -11.9720 O.3       1 FAD2001     0.0000 
     44 C3'        66.4480    6.6840  -11.0450 C.3       1 FAD2001     0.0000 
     45 O3'        66.9060    6.9000  -12.3280 O.3       1 FAD2001     0.0000 
     46 C4'        67.4300    7.3530  -10.0810 C.3       1 FAD2001     0.0000 
     47 O4'        67.2000    6.9200   -8.7940 O.3       1 FAD2001     0.0000 
     48 C5'        67.4550    8.8930  -10.1340 C.3       1 FAD2001     0.0000 
     49 O5'        68.6610    9.3580   -9.5310 O.3       1 FAD2001     0.0000 
     50 P          69.4760   10.6660  -10.0030 P.3       1 FAD2001     0.0000 
     51 O1P        70.9710   10.8370   -9.5210 O.co2     1 FAD2001     0.0000 
     52 O2P        69.2540   10.5290  -11.5590 O.co2     1 FAD2001     0.0000 
     53 O3P        68.4060   11.8700   -9.8200 O.3       1 FAD2001     0.0000 
     54 H          65.9894   11.0304   -8.1631 H         1 FAD2001     0.0000 
     55 H          66.0360   12.0660   -6.7260 H         1 FAD2001     0.0000 
     56 H          67.3707    9.3817   -6.6244 H         1 FAD2001     0.0000 
     57 H          64.4437    9.8687   -6.3987 H         1 FAD2001     0.0000 
     58 H          64.3715    8.2145   -4.8572 H         1 FAD2001     0.0000 
     59 H          66.6767    8.9048   -3.6260 H         1 FAD2001     0.0000 
     60 H          63.6935   11.0610   -4.7549 H         1 FAD2001     0.0000 
     61 H          62.7807   12.2893    1.2112 H         1 FAD2001     0.0000 
     62 H          62.2008   12.5072   -0.4746 H         1 FAD2001     0.0000 
     63 H          66.4044    9.4953    0.9071 H         1 FAD2001     0.0000 
     64 H          66.3386   -1.3445   -9.1835 H         1 FAD2001     0.0000 
     65 H          69.7562    1.1380  -14.8805 H         1 FAD2001     0.0000 
     66 H          68.8139    5.3280  -12.6305 H         1 FAD2001     0.0000 
     67 H          68.4087    5.2658  -10.8527 H         1 FAD2001     0.0000 
     68 H          67.7173    4.3687   -9.4899 H         1 FAD2001     0.0000 
     69 H          65.6587    5.0270   -9.9620 H         1 FAD2001     0.0000 
     70 H          65.4702    7.1517  -10.9045 H         1 FAD2001     0.0000 
     71 H          68.4541    7.0211  -10.4041 H         1 FAD2001     0.0000 
     72 H          66.5676    9.2537   -9.6098 H         1 FAD2001     0.0000 
     73 H          67.3802    9.1863  -11.1831 H         1 FAD2001     0.0000 
     74 H          70.9796    4.1405  -16.5671 H         1 FAD2001     0.0000 
     75 H          71.5891    2.6983  -16.2002 H         1 FAD2001     0.0000 
     76 H          70.2015    2.8034  -17.0063 H         1 FAD2001     0.0000 
     77 H          71.1640    5.7598  -15.0057 H         1 FAD2001     0.0000 
     78 H          69.7749    5.8871  -15.8060 H         1 FAD2001     0.0000 
     79 H          69.9114    6.5069  -14.3283 H         1 FAD2001     0.0000 
     80 H          65.1331    7.4307   -7.1156 H         1 FAD2001     0.0000 
     81 H          65.7356    6.7267   -5.8830 H         1 FAD2001     0.0000 
     82 H          66.0502    5.1150  -12.7447 H         1 FAD2001     0.0000 
     83 H          66.4901    7.7649  -12.6089 H         1 FAD2001     0.0000 
     84 H          66.9353    7.7411   -8.2883 H         1 FAD2001     0.0000 
@<TRIPOS>BOND
     1    2    1 ar   
     2    3    1 ar   
     3    4    1 1    
     4   53    1 1    
     5    5    4 1    
     6    6    5 1    
     7   54    5 1    
     8   55    5 1    
     9    7    6 1    
    10    8    6 1    
    11   56    6 1    
    12   12    7 1    
    13    9    8 1    
    14   10    8 1    
    15   57    8 1    
    16   80    9 1    
    17   11   10 1    
    18   12   10 1    
    19   58   10 1    
    20   81   11 1    
    21   13   12 1    
    22   59   12 1    
    23   14   13 1    
    24   22   13 1    
    25   15   14 2    
    26   60   14 1    
    27   16   15 1    
    28   17   16 ar   
    29   22   16 ar   
    30   18   17 1    
    31   19   17 ar   
    32   61   18 1    
    33   62   18 1    
    34   20   19 ar   
    35   21   20 ar   
    36   63   20 1    
    37   22   21 ar   
    38   24   23 1    
    39   40   23 2    
    40   25   24 2    
    41   26   24 am   
    42   27   26 am   
    43   64   26 1    
    44   28   27 2    
    45   29   27 1    
    46   30   29 2    
    47   40   29 1    
    48   31   30 1    
    49   32   31 ar   
    50   38   31 ar   
    51   33   32 ar   
    52   65   32 1    
    53   34   33 1    
    54   35   33 ar   
    55   74   34 1    
    56   75   34 1    
    57   76   34 1    
    58   36   35 1    
    59   37   35 ar   
    60   77   36 1    
    61   78   36 1    
    62   79   36 1    
    63   38   37 ar   
    64   66   37 1    
    65   39   38 1    
    66   40   39 1    
    67   41   39 1    
    68   42   41 1    
    69   67   41 1    
    70   68   41 1    
    71   43   42 1    
    72   44   42 1    
    73   69   42 1    
    74   82   43 1    
    75   45   44 1    
    76   46   44 1    
    77   70   44 1    
    78   83   45 1    
    79   47   46 1    
    80   48   46 1    
    81   71   46 1    
    82   84   47 1    
    83   49   48 1    
    84   72   48 1    
    85   73   48 1    
    86   50   49 1    
    87   51   50 ar   
    88   52   50 ar   
    89   53   50 1    
@<TRIPOS>SUBSTRUCTURE
     1 FAD2001     1 GROUP   
@<TRIPOS>SET

