#    Name: 3g7b_B47_2_INTS_M
#    Modification time : Tue Mar 25 07:17:51 2014

@<TRIPOS>MOLECULE
3g7b_B47_2_INTS_M
   55     0     6     0     0
SMALL
NO_CHARGES


@<TRIPOS>ATOM
      1 CA          8.4340   -2.7100   -5.8745 C.3       2 GLC5        0.0000 
      2 CA          7.6180   -4.7070   -6.3470 C.3       6 GLL5        0.0000 
      3 CA          9.2500   -0.7130   -5.4020 C.3       4 GLP5        0.0000 
      4 CA          7.7610   -6.6655   -5.7595 C.3       2 GLC5        0.0000 
      5 CA          7.9040   -8.6240   -5.1720 C.3       4 GLP5        0.0000 
      6 CA          8.1380   -5.0660   -8.2360 C.3       2 GLC5        0.0000 
      7 CA          8.6580   -5.4250  -10.1250 C.3       4 GLP5        0.0000 
      8 CA          9.6365   -5.1830   -6.3700 C.3       2 GLC5        0.0000 
      9 CA         11.6550   -5.6590   -6.3930 C.3       4 GLP5        0.0000 
     10 N           6.1020   -3.1540   -3.4825 N.am      1 SEC2        0.0000 
     11 N           7.3080   -3.9180   -3.7180 N.am      5 SEL2        0.0000 
     12 N           4.8960   -2.3900   -3.2470 N.am      3 SEP2        0.0000 
     13 CA          9.8950   -3.2110   -2.2615 C.3       2 GLC5        0.0000 
     14 CA          8.8720   -4.8860   -1.6600 C.3       6 GLL5        0.0000 
     15 CA         10.9180   -1.5360   -2.8630 C.3       4 GLP5        0.0000 
     16 CA          7.2770   -3.9455   -1.3455 C.3       2 GLC5        0.0000 
     17 CA          5.6820   -3.0050   -1.0310 C.3       4 GLP5        0.0000 
     18 CA          8.5965   -4.4275    0.4545 C.3       2 GLC5        0.0000 
     19 CA          8.3210   -3.9690    2.5690 C.3       4 GLP5        0.0000 
     20 CA          6.3755   -4.8600   -1.2735 C.3       2 GLC5        0.0000 
     21 CA          7.0690   -6.7150   -1.5160 C.3       6 GLL5        0.0000 
     22 N           9.9325   -6.7485    0.4485 N.am      1 SEC2        0.0000 
     23 N           8.8800   -7.0680   -0.3380 N.am      5 SEL2        0.0000 
     24 N          10.9850   -6.4290    1.2350 N.am      3 SEP2        0.0000 
     25 CA          6.0035   -9.7025    1.3760 C.3       2 GLC5        0.0000 
     26 CA          5.8270  -10.4800   -0.0590 C.3       6 GLL5        0.0000 
     27 CA          6.1800   -8.9250    2.8110 C.3       4 GLP5        0.0000 
     28 CA          6.5045  -11.3035   -1.8545 C.3       2 GLC5        0.0000 
     29 CA          7.1820  -12.1270   -3.6500 C.3       4 GLP5        0.0000 
     30 CA          6.1435   -7.4590   -4.7165 C.3       2 GLC5        0.0000 
     31 CA          4.3830   -6.2940   -4.2610 C.3       6 GLL5        0.0000 
     32 CA          6.1180   -8.7135   -3.9130 C.3       2 GLC5        0.0000 
     33 CA          4.5420   -7.7150   -3.6760 C.3       6 GLL5        0.0000 
     34 CA          7.6940   -9.7120   -4.1500 C.3       4 GLP5        0.0000 
     35 CA          4.2300  -14.6115    2.5015 C.3       2 GLC5        0.0000 
     36 CA          3.5170  -14.3820    0.7090 C.3       6 GLL5        0.0000 
     37 CA          4.9430  -14.8410    4.2940 C.3       4 GLP5        0.0000 
     38 CA          5.5685  -13.8490    1.5920 C.3       2 GLC5        0.0000 
     39 CA          4.1800  -13.1830    0.3900 C.3       6 GLL5        0.0000 
     40 CA          6.9570  -14.5150    2.7940 C.3       4 GLP5        0.0000 
     41 CA          7.3460   -8.5243   -2.6658 C.3       2 GLC5        0.0000 
     42 CA          6.9270   -7.9580   -0.8470 C.3       6 GLL5        0.0000 
     43 CA          6.2668   -8.6815    0.9742 C.3       2 GLC5        0.0000 
     44 CA          6.4242   -9.2870   -2.6690 C.3       2 GLC5        0.0000 
     45 CA          5.7800   -8.9180   -0.8780 C.3       6 GLL5        0.0000 
     46 CA          3.7494   -7.1327   -5.8151 C.3       2 GLC5        0.0000 
     47 CA          3.4100   -7.3660   -7.6820 C.3       4 GLP5        0.0000 
     48 CA          4.1715  -13.0175   -1.8380 C.3       2 GLC5        0.0000 
     49 CA          3.4820  -12.1150   -0.2520 C.3       6 GLL5        0.0000 
     50 CA          4.5120  -13.3860   -3.7450 C.3       4 GLP5        0.0000 
     51 CA          2.6873  -13.7233   -1.9792 C.3       2 GLC5        0.0000 
     52 CA          2.1050  -12.2760   -0.5640 C.3       6 GLL5        0.0000 
     53 CA          3.5950  -14.5680   -3.5570 C.3       4 GLP5        0.0000 
     54 CA          3.2160  -14.5128   -1.5020 C.3       2 GLC5        0.0000 
     55 CA          2.1570  -14.5330    0.3970 C.3       6 GLL5        0.0000 
@<TRIPOS>BOND
@<TRIPOS>SUBSTRUCTURE
     1 SEC2       10 GROUP        1 X    SEC  0     ROOT SEC X 2
     2 GLC5        1 GROUP        1 X    GLC  0     **** GLC X 6
     3 SEP2       12 GROUP        1 Y    SEP  0     ROOT SEP Y 9
     4 GLP5        3 GROUP        1 Y    GLP  0     **** GLP Y 13
     5 SEL2       11 GROUP        1 Z    SEL  0     ROOT SEL Z 16
     6 GLL5        2 GROUP        1 Z    GLL  0     **** GLL Z 20
@<TRIPOS>SET

