#    Name: 3g7b_B47_2_ligand
#    Modification time : Tue Mar 25 07:17:51 2014

@<TRIPOS>MOLECULE
3g7b_B47_2_ligand
   52    55     1     0     0
SMALL
NO_CHARGES


@<TRIPOS>ATOM
      1 C1          7.6180   -4.7070   -6.3470 C.3       1 B472        0.0000 
      2 O2          8.6900   -4.5710   -5.3600 O.3       1 B472        0.0000 
      3 C3          8.3540   -4.4660   -4.0480 C.2       1 B472        0.0000 
      4 O4          7.3080   -3.9180   -3.7180 O.2       1 B472        0.0000 
      5 N5          9.1930   -4.9760   -3.0960 N.am      1 B472        0.0000 
      6 C6          8.8720   -4.8860   -1.6600 C.3       1 B472        0.0000 
      7 C7          8.2810   -6.2000   -1.1810 C.2       1 B472        0.0000 
      8 C8          7.0690   -6.7150   -1.5160 C.2       1 B472        0.0000 
      9 C9          6.9270   -7.9580   -0.8470 C.2       1 B472        0.0000 
     10 N10         8.0260   -8.1500   -0.1440 N.pl3     1 B472        0.0000 
     11 N11         8.8800   -7.0680   -0.3380 N.2       1 B472        0.0000 
     12 C13         5.7800   -8.9180   -0.8780 C.2       1 B472        0.0000 
     13 S14         5.8270  -10.4800   -0.0590 S.3       1 B472        0.0000 
     14 C15         4.2000  -10.8550   -0.5860 C.2       1 B472        0.0000 
     15 N16         3.7370   -9.8590   -1.3080 N.2       1 B472        0.0000 
     16 C17         4.5290   -8.8060   -1.4980 C.2       1 B472        0.0000 
     17 N18         4.1170   -7.6740   -2.2590 N.3       1 B472        0.0000 
     18 C19         2.6610   -7.3830   -2.1390 C.3       1 B472        0.0000 
     19 C20         2.3680   -5.9790   -2.7180 C.3       1 B472        0.0000 
     20 C21         2.8880   -5.8740   -4.1800 C.3       1 B472        0.0000 
     21 O22         2.7540   -4.5170   -4.6370 O.3       1 B472        0.0000 
     22 C23         4.3830   -6.2940   -4.2610 C.3       1 B472        0.0000 
     23 C24         4.5420   -7.7150   -3.6760 C.3       1 B472        0.0000 
     24 C25         3.4820  -12.1150   -0.2520 C.ar      1 B472        0.0000 
     25 C26         2.1050  -12.2760   -0.5640 C.ar      1 B472        0.0000 
     26 C27         1.4540  -13.4810   -0.2390 C.ar      1 B472        0.0000 
     27 C28         2.1570  -14.5330    0.3970 C.ar      1 B472        0.0000 
     28 C29         3.5170  -14.3820    0.7090 C.ar      1 B472        0.0000 
     29 C30         4.1800  -13.1830    0.3900 C.ar      1 B472        0.0000 
     30 H          10.0783   -5.4412   -3.3408 H         1 B472        0.0000 
     31 H           8.1478   -4.0894   -1.4792 H         1 B472        0.0000 
     32 H           9.7720   -4.6742   -1.0795 H         1 B472        0.0000 
     33 H           6.4144   -6.3404   -2.0878 H         1 B472        0.0000 
     34 H           8.2429   -8.9020    0.4241 H         1 B472        0.0000 
     35 H           2.3535   -7.3939   -1.0984 H         1 B472        0.0000 
     36 H           2.0787   -8.1100   -2.6958 H         1 B472        0.0000 
     37 H           2.8660   -5.2321   -2.1136 H         1 B472        0.0000 
     38 H           1.2998   -5.8057   -2.7119 H         1 B472        0.0000 
     39 H           2.3186   -6.5509   -4.7863 H         1 B472        0.0000 
     40 H           4.9739   -5.6016   -3.6859 H         1 B472        0.0000 
     41 H           4.6922   -6.2944   -5.2924 H         1 B472        0.0000 
     42 H           3.9202   -8.3893   -4.2469 H         1 B472        0.0000 
     43 H           5.5798   -8.0033   -3.7603 H         1 B472        0.0000 
     44 H           1.5976  -11.5207   -1.0199 H         1 B472        0.0000 
     45 H           0.4603  -13.6020   -0.4636 H         1 B472        0.0000 
     46 H           1.6684  -15.4011    0.6268 H         1 B472        0.0000 
     47 H           4.0262  -15.1411    1.1672 H         1 B472        0.0000 
     48 H           5.1714  -13.0657    0.6161 H         1 B472        0.0000 
     49 H           7.9769   -4.7783   -7.2777 H         1 B472        0.0000 
     50 H           7.0638   -5.5231   -6.1833 H         1 B472        0.0000 
     51 H           6.9972   -3.9232   -6.3315 H         1 B472        0.0000 
     52 H           3.3795   -4.4426   -5.4136 H         1 B472        0.0000 
@<TRIPOS>BOND
     1    2    1 1    
     2   49    1 1    
     3   50    1 1    
     4   51    1 1    
     5    3    2 1    
     6    4    3 2    
     7    5    3 am   
     8    6    5 1    
     9   30    5 1    
    10    7    6 1    
    11   31    6 1    
    12   32    6 1    
    13    8    7 1    
    14   11    7 2    
    15    9    8 2    
    16   33    8 1    
    17   10    9 1    
    18   12    9 1    
    19   11   10 1    
    20   34   10 1    
    21   13   12 1    
    22   16   12 2    
    23   14   13 1    
    24   15   14 2    
    25   24   14 1    
    26   16   15 1    
    27   17   16 1    
    28   18   17 1    
    29   23   17 1    
    30   19   18 1    
    31   35   18 1    
    32   36   18 1    
    33   20   19 1    
    34   37   19 1    
    35   38   19 1    
    36   21   20 1    
    37   22   20 1    
    38   39   20 1    
    39   52   21 1    
    40   23   22 1    
    41   40   22 1    
    42   41   22 1    
    43   42   23 1    
    44   43   23 1    
    45   25   24 ar   
    46   29   24 ar   
    47   26   25 ar   
    48   44   25 1    
    49   27   26 ar   
    50   45   26 1    
    51   28   27 ar   
    52   46   27 1    
    53   29   28 ar   
    54   47   28 1    
    55   48   29 1    
@<TRIPOS>SUBSTRUCTURE
     1 B472        1 GROUP   
@<TRIPOS>SET

