#    Name: 4at5_MUJ_1_INTS_M
#    Modification time : Tue Mar 25 06:13:56 2014

@<TRIPOS>MOLECULE
4at5_MUJ_1_INTS_M
   91     0     9     0     0
SMALL
NO_CHARGES


@<TRIPOS>ATOM
      1 N          -9.7360   27.5700  -12.0530 N.am      2 SEC2        0.0000 
      2 N          -9.2660   27.1160  -13.5870 N.am      8 SEL2        0.0000 
      3 N         -10.2060   28.0240  -10.5190 N.am      5 SEP2        0.0000 
      4 CA         -9.3145   28.8900  -13.0855 C.3       3 GLC5        0.0000 
      5 CA         -9.4160   27.6670  -14.8070 C.3       9 GLL5        0.0000 
      6 CA         -9.2130   30.1130  -11.3640 C.3       6 GLP5        0.0000 
      7 CA         -9.7225   24.9905  -15.0880 C.3       3 GLC5        0.0000 
      8 CA         -7.9340   26.0530  -15.7100 C.3       9 GLL5        0.0000 
      9 CA        -11.5110   23.9280  -14.4660 C.3       6 GLP5        0.0000 
     10 CA         -8.4765   24.1220  -12.4525 C.3       3 GLC5        0.0000 
     11 CA         -8.4470   26.0470  -13.4930 C.3       9 GLL5        0.0000 
     12 CA         -8.5060   22.1970  -11.4120 C.3       6 GLP5        0.0000 
     13 CA         -9.9790   24.9875  -13.9795 C.3       3 GLC5        0.0000 
     14 CA         -7.7060   28.8770  -18.8725 C.3       3 GLC5        0.0000 
     15 CA         -8.8860   27.7420  -17.3330 C.3       9 GLL5        0.0000 
     16 CA         -6.5260   30.0120  -20.4120 C.3       6 GLP5        0.0000 
     17 CA         -8.6480   26.6005  -18.7880 C.3       3 GLC5        0.0000 
     18 CA         -8.4100   25.4590  -20.2430 C.3       6 GLP5        0.0000 
     19 CA        -11.8115   30.0325  -20.5165 C.3       3 GLC5        0.0000 
     20 CA        -12.0360   29.4680  -18.5870 C.3       9 GLL5        0.0000 
     21 CA        -11.5870   30.5970  -22.4460 C.3       6 GLP5        0.0000 
     22 CA        -14.0240   28.9415  -16.7500 C.3       3 GLC5        0.0000 
     23 CA        -12.9450   28.4260  -18.5890 C.3       9 GLL5        0.0000 
     24 CA        -15.1030   29.4570  -14.9110 C.3       6 GLP5        0.0000 
     25 CA        -13.9125   23.1825  -18.5200 C.3       3 GLC5        0.0000 
     26 CA        -13.1420   24.8680  -17.8090 C.3       9 GLL5        0.0000 
     27 CA        -14.6830   21.4970  -19.2310 C.3       6 GLP5        0.0000 
     28 CA        -12.9890   24.7630  -15.9680 C.3       3 GLC5        0.0000 
     29 CA        -12.8360   24.6580  -14.1270 C.3       6 GLP5        0.0000 
     30 CA        -15.0555   25.5820  -17.9730 C.3       3 GLC5        0.0000 
     31 CA        -16.9690   26.2960  -18.1370 C.3       6 GLP5        0.0000 
     32 CA        -14.2135   25.4265  -19.6680 C.3       3 GLC5        0.0000 
     33 CA        -15.2850   25.9850  -21.5270 C.3       6 GLP5        0.0000 
     34 CA        -12.3285   25.5360  -19.7815 C.3       3 GLC5        0.0000 
     35 CA        -11.5150   26.2040  -21.7540 C.3       6 GLP5        0.0000 
     36 N         -15.0025   27.4960  -19.5930 N.am      2 SEC2        0.0000 
     37 N         -14.2540   28.5460  -18.9700 N.am      8 SEL2        0.0000 
     38 N         -15.7510   26.4460  -20.2160 N.am      5 SEP2        0.0000 
     39 CA        -14.9185   29.6580  -17.0980 C.3       3 GLC5        0.0000 
     40 CA        -14.7340   29.8590  -19.2850 C.3       9 GLL5        0.0000 
     41 CA        -14.8360   31.5755  -19.2040 C.3       3 GLC5        0.0000 
     42 CA        -14.9380   33.2920  -19.1230 C.3       6 GLP5        0.0000 
     43 CA        -15.7570   27.9020  -20.4620 C.3       3 GLC5        0.0000 
     44 CA        -16.2290   29.8190  -19.3970 C.3       9 GLL5        0.0000 
     45 CA        -20.0805   31.0710  -21.3190 C.3       3 GLC5        0.0000 
     46 CA        -20.9270   29.2870  -20.9460 C.3       9 GLL5        0.0000 
     47 CA        -19.2340   32.8550  -21.6920 C.3       6 GLP5        0.0000 
     48 CA        -22.2265   30.6025  -21.0195 C.3       3 GLC5        0.0000 
     49 CA        -23.5260   31.9180  -21.0930 C.3       6 GLP5        0.0000 
     50 CA        -22.9010   28.7575  -20.1340 C.3       3 GLC5        0.0000 
     51 CA        -24.8750   28.2280  -19.3220 C.3       6 GLP5        0.0000 
     52 CA        -21.5920   29.0060  -22.4690 C.3       3 GLC5        0.0000 
     53 CA        -22.2570   28.7250  -23.9920 C.3       6 GLP5        0.0000 
     54 O         -10.8175   29.6885  -13.9965 O.2       1 ALC1        0.0000 
     55 O         -10.2270   28.7230  -14.8930 O.2       7 ALL1        0.0000 
     56 O         -11.4080   30.6540  -13.1000 O.2       4 ALP1        0.0000 
     57 O          -8.4830   25.7330  -10.8435 O.2       1 ALC1        0.0000 
     58 O          -8.3010   25.5040  -12.2830 O.2       7 ALL1        0.0000 
     59 O          -8.6650   25.9620   -9.4040 O.2       4 ALP1        0.0000 
     60 CA         -8.6247   29.2662  -15.6493 C.3       3 GLC5        0.0000 
     61 CA         -8.7370   27.1420  -15.9480 C.3       9 GLL5        0.0000 
     62 CA         -8.1730   31.1280  -15.9210 C.3       6 GLP5        0.0000 
     63 CA        -10.8493   26.7843  -14.7562 C.3       3 GLC5        0.0000 
     64 CA        -12.6220   26.1640  -14.1350 C.3       6 GLP5        0.0000 
     65 CA         -6.7359   27.8749  -16.6525 C.3       3 GLC5        0.0000 
     66 CA         -4.8610   28.5800  -16.7240 C.3       6 GLP5        0.0000 
     67 CA        -11.9207   31.1005  -17.3182 C.3       3 GLC5        0.0000 
     68 CA        -10.7350   29.2380  -18.1820 C.3       9 GLL5        0.0000 
     69 CA        -12.4560   32.8480  -16.2520 C.3       6 GLP5        0.0000 
     70 CA         -9.1706   29.8388  -16.8945 C.3       3 GLC5        0.0000 
     71 CA        -14.0132   26.8860  -19.9558 C.3       3 GLC5        0.0000 
     72 CA        -12.2542   26.6032  -16.0570 C.3       3 GLC5        0.0000 
     73 CA        -12.5380   27.1480  -18.1800 C.3       9 GLL5        0.0000 
     74 CA        -11.7516   26.7830  -19.9176 C.3       3 GLC5        0.0000 
     75 CA        -11.2350   26.9370  -17.7780 C.3       9 GLL5        0.0000 
     76 CA        -18.3833   31.1290  -21.1603 C.3       3 GLC5        0.0000 
     77 CA        -16.8440   29.4230  -20.5740 C.3       9 GLL5        0.0000 
     78 CA        -17.2508   27.8495  -19.3828 C.3       3 GLC5        0.0000 
     79 CA        -18.2210   29.3830  -20.6830 C.3       9 GLL5        0.0000 
     80 CA        -16.8873   27.8865  -21.6608 C.3       3 GLC5        0.0000 
     81 CA        -16.2420   26.3700  -22.6930 C.3       6 GLP5        0.0000 
     82 CA        -18.9708   31.3980  -20.3520 C.3       3 GLC5        0.0000 
     83 CA        -19.0050   29.7420  -19.6030 C.3       9 GLL5        0.0000 
     84 CA        -20.0362   29.7805  -17.5610 C.3       3 GLC5        0.0000 
     85 CA        -21.3650   29.6200  -16.1100 C.3       6 GLP5        0.0000 
     86 CA        -17.8383   28.1185  -18.5745 C.3       3 GLC5        0.0000 
     87 CA        -18.4100   30.1400  -18.4210 C.3       9 GLL5        0.0000 
     88 CA        -17.0615   29.4005  -16.6725 C.3       3 GLC5        0.0000 
     89 CA        -16.4020   28.6430  -14.9720 C.3       6 GLP5        0.0000 
     90 CA        -16.6129   28.1517  -18.4850 C.3       3 GLC5        0.0000 
     91 CA        -17.0320   30.1760  -18.3250 C.3       9 GLL5        0.0000 
@<TRIPOS>BOND
@<TRIPOS>SUBSTRUCTURE
     1 ALC1       54 GROUP        1 X    ALC  0     ROOT ALC X 1
     2 SEC2        1 GROUP        1 X    SEC  0     **** SEC X 2
     3 GLC5        4 GROUP        1 X    GLC  0     **** GLC X 6
     4 ALP1       56 GROUP        1 Y    ALP  0     ROOT ALP Y 8
     5 SEP2        3 GROUP        1 Y    SEP  0     **** SEP Y 9
     6 GLP5        6 GROUP        1 Y    GLP  0     **** GLP Y 13
     7 ALL1       55 GROUP        1 Z    ALL  0     ROOT ALL Z 15
     8 SEL2        2 GROUP        1 Z    SEL  0     **** SEL Z 16
     9 GLL5        5 GROUP        1 Z    GLL  0     **** GLL Z 20
@<TRIPOS>SET

