#    Name: 4at5_MUJ_1_ligand
#    Modification time : Tue Mar 25 06:13:56 2014

@<TRIPOS>MOLECULE
4at5_MUJ_1_ligand
   49    51     1     0     0
SMALL
NO_CHARGES


@<TRIPOS>ATOM
      1 N1         -9.2660   27.1160  -13.5870 N.ar      1 MUJ1839     0.0000 
      2 C2         -8.7370   27.1420  -15.9480 C.ar      1 MUJ1839     0.0000 
      3 C3         -9.4160   27.6670  -14.8070 C.ar      1 MUJ1839     0.0000 
      4 C4         -7.9340   26.0530  -15.7100 C.ar      1 MUJ1839     0.0000 
      5 C5         -8.4470   26.0470  -13.4930 C.ar      1 MUJ1839     0.0000 
      6 N6         -7.7640   25.4820  -14.5130 N.ar      1 MUJ1839     0.0000 
      7 C7         -8.8860   27.7420  -17.3330 C.3       1 MUJ1839     0.0000 
      8 C8        -10.3170   27.9800  -17.7750 C.ar      1 MUJ1839     0.0000 
      9 C9        -12.0360   29.4680  -18.5870 C.ar      1 MUJ1839     0.0000 
     10 C10       -10.7350   29.2380  -18.1820 C.ar      1 MUJ1839     0.0000 
     11 C11       -12.9450   28.4260  -18.5890 C.ar      1 MUJ1839     0.0000 
     12 C12       -11.2350   26.9370  -17.7780 C.ar      1 MUJ1839     0.0000 
     13 C13       -12.5380   27.1480  -18.1800 C.ar      1 MUJ1839     0.0000 
     14 O14       -13.5060   26.1830  -18.2150 O.3       1 MUJ1839     0.0000 
     15 C15       -13.1420   24.8680  -17.8090 C.3       1 MUJ1839     0.0000 
     16 O16       -14.2540   28.5460  -18.9700 O.3       1 MUJ1839     0.0000 
     17 C17       -14.7340   29.8590  -19.2850 C.3       1 MUJ1839     0.0000 
     18 C18       -16.2290   29.8190  -19.3970 C.ar      1 MUJ1839     0.0000 
     19 C19       -18.2210   29.3830  -20.6830 C.ar      1 MUJ1839     0.0000 
     20 C20       -16.8440   29.4230  -20.5740 C.ar      1 MUJ1839     0.0000 
     21 C21       -19.0050   29.7420  -19.6030 C.ar      1 MUJ1839     0.0000 
     22 C22       -17.0320   30.1760  -18.3250 C.ar      1 MUJ1839     0.0000 
     23 C23       -18.4100   30.1400  -18.4210 C.ar      1 MUJ1839     0.0000 
     24 O24       -20.3690   29.7050  -19.7040 O.3       1 MUJ1839     0.0000 
     25 C25       -20.9270   29.2870  -20.9460 C.3       1 MUJ1839     0.0000 
     26 N26       -10.2270   28.7230  -14.8930 N.pl3     1 MUJ1839     0.0000 
     27 N27        -8.3010   25.5040  -12.2830 N.pl3     1 MUJ1839     0.0000 
     28 H          -7.4135   25.6431  -16.5527 H         1 MUJ1839     0.0000 
     29 H          -8.3895   27.0762  -18.0677 H         1 MUJ1839     0.0000 
     30 H          -8.3347   28.7035  -17.3686 H         1 MUJ1839     0.0000 
     31 H         -12.3268   30.4081  -18.8851 H         1 MUJ1839     0.0000 
     32 H         -10.0534   30.0236  -18.1817 H         1 MUJ1839     0.0000 
     33 H         -10.9344   25.9943  -17.4750 H         1 MUJ1839     0.0000 
     34 H         -14.3221   30.2158  -20.2351 H         1 MUJ1839     0.0000 
     35 H         -14.4613   30.5796  -18.5065 H         1 MUJ1839     0.0000 
     36 H         -18.6611   29.0870  -21.5652 H         1 MUJ1839     0.0000 
     37 H         -16.2582   29.1518  -21.3877 H         1 MUJ1839     0.0000 
     38 H         -16.5884   30.4755  -17.4350 H         1 MUJ1839     0.0000 
     39 H         -18.9912   30.4087  -17.6149 H         1 MUJ1839     0.0000 
     40 H         -10.3247   29.2716  -14.0626 H         1 MUJ1839     0.0000 
     41 H         -10.6642   28.8710  -15.7801 H         1 MUJ1839     0.0000 
     42 H          -8.0525   24.5356  -12.2624 H         1 MUJ1839     0.0000 
     43 H          -8.4532   26.1143  -11.5055 H         1 MUJ1839     0.0000 
     44 H         -12.4094   24.4933  -18.3773 H         1 MUJ1839     0.0000 
     45 H         -12.8187   24.8475  -16.8629 H         1 MUJ1839     0.0000 
     46 H         -13.9130   24.2340  -17.8691 H         1 MUJ1839     0.0000 
     47 H         -20.6480   29.8840  -21.6982 H         1 MUJ1839     0.0000 
     48 H         -20.6427   28.3591  -21.1874 H         1 MUJ1839     0.0000 
     49 H         -21.9268   29.2909  -20.9240 H         1 MUJ1839     0.0000 
@<TRIPOS>BOND
     1    3    1 ar   
     2    5    1 ar   
     3    3    2 ar   
     4    4    2 ar   
     5    7    2 1    
     6   26    3 1    
     7    6    4 ar   
     8   28    4 1    
     9    6    5 ar   
    10   27    5 1    
    11    8    7 1    
    12   29    7 1    
    13   30    7 1    
    14   10    8 ar   
    15   12    8 ar   
    16   10    9 ar   
    17   11    9 ar   
    18   31    9 1    
    19   32   10 1    
    20   13   11 ar   
    21   16   11 1    
    22   13   12 ar   
    23   33   12 1    
    24   14   13 1    
    25   15   14 1    
    26   44   15 1    
    27   45   15 1    
    28   46   15 1    
    29   17   16 1    
    30   18   17 1    
    31   34   17 1    
    32   35   17 1    
    33   20   18 ar   
    34   22   18 ar   
    35   20   19 ar   
    36   21   19 ar   
    37   36   19 1    
    38   37   20 1    
    39   23   21 ar   
    40   24   21 1    
    41   23   22 ar   
    42   38   22 1    
    43   39   23 1    
    44   25   24 1    
    45   47   25 1    
    46   48   25 1    
    47   49   25 1    
    48   40   26 1    
    49   41   26 1    
    50   42   27 1    
    51   43   27 1    
@<TRIPOS>SUBSTRUCTURE
     1 MUJ1839     1 GROUP   
@<TRIPOS>SET

