#    Name: 4dk8_0KT_1_INTS_M
#    Modification time : Mon Apr  7 22:48:11 2014

@<TRIPOS>MOLECULE
4dk8_0KT_1_INTS_M
   90     0     3     0     0
SMALL
NO_CHARGES


@<TRIPOS>ATOM
      1 CA         40.1315   66.0465   43.9540 C.3       1 GLC5        0.0000 
      2 CA         40.3160   66.4070   41.8860 C.3       3 GLL5        0.0000 
      3 CA         39.9470   65.6860   46.0220 C.3       2 GLP5        0.0000 
      4 CA         41.3165   67.4860   44.3545 C.3       1 GLC5        0.0000 
      5 CA         41.4160   67.1440   42.3030 C.3       3 GLL5        0.0000 
      6 CA         41.2170   67.8280   46.4060 C.3       2 GLP5        0.0000 
      7 CA         46.0375   68.8300   45.4420 C.3       1 GLC5        0.0000 
      8 CA         44.9920   67.5230   44.9450 C.3       3 GLL5        0.0000 
      9 CA         47.0830   70.1370   45.9390 C.3       2 GLP5        0.0000 
     10 CA         46.7845   68.1215   43.8050 C.3       1 GLC5        0.0000 
     11 CA         48.5770   68.7200   42.6650 C.3       2 GLP5        0.0000 
     12 CA         45.7235   68.2010   47.2325 C.3       1 GLC5        0.0000 
     13 CA         44.9180   66.7550   46.1280 C.3       3 GLL5        0.0000 
     14 CA         46.5290   69.6470   48.3370 C.3       2 GLP5        0.0000 
     15 CA         41.9600   68.8250   44.6325 C.3       1 GLC5        0.0000 
     16 CA         42.7030   69.8220   42.8590 C.3       3 GLL5        0.0000 
     17 CA         40.5700   70.0705   43.0165 C.3       1 GLC5        0.0000 
     18 CA         38.4370   70.3190   43.1740 C.3       2 GLP5        0.0000 
     19 CA         41.8325   71.0435   41.9050 C.3       1 GLC5        0.0000 
     20 CA         40.9620   72.2650   40.9510 C.3       2 GLP5        0.0000 
     21 CA         42.2305   70.6555   44.5960 C.3       1 GLC5        0.0000 
     22 CA         41.7580   71.4890   46.3330 C.3       2 GLP5        0.0000 
     23 CA         43.7670   71.7115   42.6775 C.3       1 GLC5        0.0000 
     24 CA         44.8310   73.6010   42.4960 C.3       2 GLP5        0.0000 
     25 CA         34.7435   65.2950   39.0780 C.3       1 GLC5        0.0000 
     26 CA         36.2290   65.9220   39.6680 C.3       3 GLL5        0.0000 
     27 CA         33.2580   64.6680   38.4880 C.3       2 GLP5        0.0000 
     28 CA         36.5415   63.8950   38.8510 C.3       1 GLC5        0.0000 
     29 CA         36.8540   61.8680   38.0340 C.3       2 GLP5        0.0000 
     30 CA         36.1120   65.1625   41.7160 C.3       1 GLC5        0.0000 
     31 CA         35.9950   64.4030   43.7640 C.3       2 GLP5        0.0000 
     32 CA         34.6975   66.6950   41.0590 C.3       1 GLC5        0.0000 
     33 CA         33.1660   67.4680   42.4500 C.3       2 GLP5        0.0000 
     34 CA         38.3360   69.4350   38.6125 C.3       1 GLC5        0.0000 
     35 CA         37.4060   67.6240   39.1410 C.3       3 GLL5        0.0000 
     36 CA         39.2660   71.2460   38.0840 C.3       2 GLP5        0.0000 
     37 CA         37.8660   68.0245   36.9850 C.3       1 GLC5        0.0000 
     38 CA         38.3260   68.4250   34.8290 C.3       2 GLP5        0.0000 
     39 CA         36.5020   65.8235   42.4890 C.3       1 GLC5        0.0000 
     40 CA         37.0090   67.2440   41.2140 C.3       3 GLL5        0.0000 
     41 CA         37.6250   68.2670   42.6540 C.3       1 GLC5        0.0000 
     42 CA         38.2410   69.2900   44.0940 C.3       2 GLP5        0.0000 
     43 CA         35.7820   68.4065   41.8010 C.3       1 GLC5        0.0000 
     44 CA         34.5550   69.5690   42.3880 C.3       2 GLP5        0.0000 
     45 CA         41.8835   63.8740   37.1425 C.3       1 GLC5        0.0000 
     46 CA         39.9770   63.7130   37.4250 C.3       3 GLL5        0.0000 
     47 CA         43.7900   64.0350   36.8600 C.3       2 GLP5        0.0000 
     48 CA         42.5310   64.2515   38.8645 C.3       1 GLC5        0.0000 
     49 CA         40.8640   63.5380   39.7500 C.3       3 GLL5        0.0000 
     50 CA         44.1980   64.9650   37.9790 C.3       2 GLP5        0.0000 
     51 CA         38.6595   61.9945   39.0980 C.3       1 GLC5        0.0000 
     52 CA         40.4650   62.1210   40.1620 C.3       3 GLL5        0.0000 
     53 CA         39.2710   61.5610   42.7330 C.3       1 GLC5        0.0000 
     54 CA         38.8170   60.8850   41.2930 C.3       3 GLL5        0.0000 
     55 CA         39.7250   62.2370   44.1730 C.3       2 GLP5        0.0000 
     56 CA         40.0500   59.5405   40.2550 C.3       1 GLC5        0.0000 
     57 CA         41.2830   58.1960   39.2170 C.3       2 GLP5        0.0000 
     58 CA         37.6465   60.9615   40.1815 C.3       1 GLC5        0.0000 
     59 CA         36.4760   61.0380   39.0700 C.3       2 GLP5        0.0000 
     60 CA         38.3575   59.1955   42.4470 C.3       1 GLC5        0.0000 
     61 CA         37.8980   57.5060   43.6010 C.3       2 GLP5        0.0000 
     62 CA         37.1700   62.0465   42.2625 C.3       1 GLC5        0.0000 
     63 CA         35.5230   63.2080   43.2320 C.3       2 GLP5        0.0000 
     64 CA         40.0755   69.6165   39.0355 C.3       1 GLC5        0.0000 
     65 CA         40.3300   67.6170   39.7780 C.3       3 GLL5        0.0000 
     66 CA         41.0500   67.5705   37.9935 C.3       1 GLC5        0.0000 
     67 CA         41.2150   67.1540   36.0000 C.3       2 GLP5        0.0000 
     68 CA         41.3405   70.2535   40.8915 C.3       1 GLC5        0.0000 
     69 CA         41.4400   68.3570   40.1960 C.3       3 GLL5        0.0000 
     70 CA         43.7163   63.5632   43.7720 C.3       1 GLC5        0.0000 
     71 CA         44.0600   65.6450   43.6590 C.3       3 GLL5        0.0000 
     72 CA         43.4100   61.8650   43.2920 C.3       2 GLP5        0.0000 
     73 CA         43.0322   67.4140   45.8175 C.3       1 GLC5        0.0000 
     74 CA         44.5620   66.9670   43.7150 C.3       3 GLL5        0.0000 
     75 CA         45.8595   65.1875   43.3065 C.3       1 GLC5        0.0000 
     76 CA         47.5710   64.7830   42.3470 C.3       2 GLP5        0.0000 
     77 CA         42.4865   65.8268   46.2383 C.3       1 GLC5        0.0000 
     78 CA         43.9850   64.8780   44.8450 C.3       3 GLL5        0.0000 
     79 CA         40.7740   66.4980   47.0140 C.3       2 GLP5        0.0000 
     80 CA         35.9545   68.4664   39.6523 C.3       1 GLC5        0.0000 
     81 CA         34.8650   69.8320   38.9480 C.3       2 GLP5        0.0000 
     82 CA         40.3307   64.1405   35.2205 C.3       1 GLC5        0.0000 
     83 CA         39.0160   64.3930   36.6890 C.3       3 GLL5        0.0000 
     84 CA         41.1650   64.2280   33.3840 C.3       2 GLP5        0.0000 
     85 CA         40.8317   62.6653   41.8205 C.3       1 GLC5        0.0000 
     86 CA         40.9990   62.5010   43.6850 C.3       2 GLP5        0.0000 
     87 CA         41.6453   61.3368   38.9495 C.3       1 GLC5        0.0000 
     88 CA         42.6260   59.8440   37.9430 C.3       2 GLP5        0.0000 
     89 CA         40.1451   65.8748   36.8166 C.3       1 GLC5        0.0000 
     90 CA         38.9420   65.0480   38.8500 C.3       3 GLL5        0.0000 
@<TRIPOS>BOND
@<TRIPOS>SUBSTRUCTURE
     1 GLC5        1 GROUP        1 X    GLC  0     ROOT GLC X 6
     2 GLP5        3 GROUP        1 Y    GLP  0     ROOT GLP Y 13
     3 GLL5        2 GROUP        1 Z    GLL  0     ROOT GLL Z 20
@<TRIPOS>SET

