#    Name: 4dk8_0KT_1_ligand
#    Modification time : Mon Apr  7 22:48:11 2014

@<TRIPOS>MOLECULE
4dk8_0KT_1_ligand
   55    57     1     0     0
SMALL
NO_CHARGES


@<TRIPOS>ATOM
      1 C1         39.7500   66.6120   40.6160 C.ar      1 0KT501      0.0000 
      2 C2         40.3300   67.6170   39.7780 C.ar      1 0KT501      0.0000 
      3 C3         40.3160   66.4070   41.8860 C.ar      1 0KT501      0.0000 
      4 C4         41.4400   68.3570   40.1960 C.ar      1 0KT501      0.0000 
      5 C5         41.4160   67.1440   42.3030 C.ar      1 0KT501      0.0000 
      6 C6         41.9980   68.1270   41.4680 C.ar      1 0KT501      0.0000 
      7 N1         43.1560   68.8610   41.8240 N.pl3     1 0KT501      0.0000 
      8 S2         44.6620   67.9600   42.2360 S.o2      1 0KT501      0.0000 
      9 O4         45.6370   68.9900   42.4930 O.2       1 0KT501      0.0000 
     10 O5         44.9010   67.0860   41.0990 O.2       1 0KT501      0.0000 
     11 C8         44.5620   66.9670   43.7150 C.ar      1 0KT501      0.0000 
     12 C9         44.0600   65.6450   43.6590 C.ar      1 0KT501      0.0000 
     13 C10        44.9920   67.5230   44.9450 C.ar      1 0KT501      0.0000 
     14 C11        44.9180   66.7550   46.1280 C.ar      1 0KT501      0.0000 
     15 C12        43.9850   64.8780   44.8450 C.ar      1 0KT501      0.0000 
     16 C13        44.4130   65.4330   46.0800 C.ar      1 0KT501      0.0000 
     17 C7         42.7030   69.8220   42.8590 C.3       1 0KT501      0.0000 
     18 C18        38.5660   65.7660   40.1740 C.3       1 0KT501      0.0000 
     19 C19        38.9420   65.0480   38.8500 C.2       1 0KT501      0.0000 
     20 C20        37.2750   66.6600   40.0470 C.3       1 0KT501      0.0000 
     21 F7         36.2290   65.9220   39.6680 F         1 0KT501      0.0000 
     22 F9         37.4060   67.6240   39.1410 F         1 0KT501      0.0000 
     23 F8         37.0090   67.2440   41.2140 F         1 0KT501      0.0000 
     24 O1         38.2230   64.8110   41.1770 O.3       1 0KT501      0.0000 
     25 C14        38.3660   65.2280   37.5690 C.2       1 0KT501      0.0000 
     26 N2         39.9370   64.1040   38.7280 N.pl3     1 0KT501      0.0000 
     27 C16        39.9770   63.7130   37.4250 C.2       1 0KT501      0.0000 
     28 C17        39.0160   64.3930   36.6890 C.2       1 0KT501      0.0000 
     29 C15        40.8640   63.5380   39.7500 C.3       1 0KT501      0.0000 
     30 C21        40.4650   62.1210   40.1620 C.3       1 0KT501      0.0000 
     31 O2         39.0870   62.0010   40.4670 O.3       1 0KT501      0.0000 
     32 C23        38.8170   60.8850   41.2930 C.3       1 0KT501      0.0000 
     33 H          39.9117   67.7872   38.8533 H         1 0KT501      0.0000 
     34 H          39.9028   65.6972   42.5115 H         1 0KT501      0.0000 
     35 H          41.8495   69.0657   39.5817 H         1 0KT501      0.0000 
     36 H          41.8254   66.9807   43.2371 H         1 0KT501      0.0000 
     37 H          43.7558   65.2501   42.7731 H         1 0KT501      0.0000 
     38 H          45.3538   68.4755   44.9742 H         1 0KT501      0.0000 
     39 H          45.2271   67.1502   47.0155 H         1 0KT501      0.0000 
     40 H          43.6234   63.9247   44.8158 H         1 0KT501      0.0000 
     41 H          44.3558   64.8768   46.9332 H         1 0KT501      0.0000 
     42 H          37.6586   65.8239   37.3755 H         1 0KT501      0.0000 
     43 H          40.5822   63.0569   37.0505 H         1 0KT501      0.0000 
     44 H          38.8477   64.2966   35.7684 H         1 0KT501      0.0000 
     45 H          40.8694   64.1732   40.6452 H         1 0KT501      0.0000 
     46 H          41.8878   63.5113   39.3550 H         1 0KT501      0.0000 
     47 H          41.1025   61.8387   41.0272 H         1 0KT501      0.0000 
     48 H          40.7623   61.4422   39.3340 H         1 0KT501      0.0000 
     49 H          43.4525   70.3989   43.1836 H         1 0KT501      0.0000 
     50 H          41.9916   70.4333   42.5123 H         1 0KT501      0.0000 
     51 H          42.3246   69.3557   43.6586 H         1 0KT501      0.0000 
     52 H          39.0926   60.0269   40.8597 H         1 0KT501      0.0000 
     53 H          39.3029   60.9423   42.1651 H         1 0KT501      0.0000 
     54 H          37.8428   60.8067   41.5048 H         1 0KT501      0.0000 
     55 H          38.5259   63.9311   40.8108 H         1 0KT501      0.0000 
@<TRIPOS>BOND
     1    2    1 ar   
     2    3    1 ar   
     3   18    1 1    
     4    4    2 ar   
     5   33    2 1    
     6    5    3 ar   
     7   34    3 1    
     8    6    4 ar   
     9   35    4 1    
    10    6    5 ar   
    11   36    5 1    
    12    7    6 1    
    13    8    7 1    
    14   17    7 1    
    15    9    8 2    
    16   10    8 2    
    17   11    8 1    
    18   12   11 ar   
    19   13   11 ar   
    20   15   12 ar   
    21   37   12 1    
    22   14   13 ar   
    23   38   13 1    
    24   16   14 ar   
    25   39   14 1    
    26   16   15 ar   
    27   40   15 1    
    28   41   16 1    
    29   49   17 1    
    30   50   17 1    
    31   51   17 1    
    32   19   18 1    
    33   20   18 1    
    34   24   18 1    
    35   25   19 2    
    36   26   19 1    
    37   21   20 1    
    38   22   20 1    
    39   23   20 1    
    40   55   24 1    
    41   28   25 1    
    42   42   25 1    
    43   27   26 1    
    44   29   26 1    
    45   28   27 2    
    46   43   27 1    
    47   44   28 1    
    48   30   29 1    
    49   45   29 1    
    50   46   29 1    
    51   31   30 1    
    52   47   30 1    
    53   48   30 1    
    54   32   31 1    
    55   52   32 1    
    56   53   32 1    
    57   54   32 1    
@<TRIPOS>SUBSTRUCTURE
     1 0KT501      1 GROUP   
@<TRIPOS>SET

