#    Name: 1nav_IH5_1_INTS_M
#    Modification time : Mon Mar 24 17:53:53 2014

@<TRIPOS>MOLECULE
1nav_IH5_1_INTS_M
   89     0     9     0     0
SMALL
NO_CHARGES


@<TRIPOS>ATOM
      1 N          44.6395   13.6855   16.2840 N.am      2 SEC2        0.0000 
      2 N          44.6210   13.4550   17.6070 N.am      8 SEL2        0.0000 
      3 N          44.6580   13.9160   14.9610 N.am      5 SEP2        0.0000 
      4 N          43.7110   14.3730   16.3500 N.am      2 SEC2        0.0000 
      5 N          42.7640   14.8300   17.7390 N.am      8 SEL2        0.0000 
      6 CA         49.2690   18.5550   22.9130 C.3       3 GLC5        0.0000 
      7 CA         49.0350   19.2610   21.2370 C.3       9 GLL5        0.0000 
      8 CA         49.5030   17.8490   24.5890 C.3       6 GLP5        0.0000 
      9 CA         48.6040   19.5745   23.3560 C.3       3 GLC5        0.0000 
     10 CA         49.2750   20.4960   21.9270 C.3       9 GLL5        0.0000 
     11 CA         47.9330   18.6530   24.7850 C.3       6 GLP5        0.0000 
     12 O          50.2085   22.4275   23.3615 O.2       1 ALC1        0.0000 
     13 O          50.4060   22.6440   22.1190 O.2       7 ALL1        0.0000 
     14 O          50.0110   22.2110   24.6040 O.2       4 ALP1        0.0000 
     15 CA         51.0750   20.3275   17.4725 C.3       3 GLC5        0.0000 
     16 CA         50.6760   19.9660   19.4610 C.3       9 GLL5        0.0000 
     17 CA         51.4740   20.6890   15.4840 C.3       6 GLP5        0.0000 
     18 CA         52.1335   19.2890   20.7290 C.3       3 GLC5        0.0000 
     19 CA         53.5910   18.6120   21.9970 C.3       6 GLP5        0.0000 
     20 CA         50.8270   24.3785   17.3405 C.3       3 GLC5        0.0000 
     21 CA         51.1840   23.1260   18.5450 C.3       9 GLL5        0.0000 
     22 CA         50.4700   25.6310   16.1360 C.3       6 GLP5        0.0000 
     23 CA         53.7370   23.5395   18.3090 C.3       3 GLC5        0.0000 
     24 CA         53.2190   21.6470   18.9470 C.3       9 GLL5        0.0000 
     25 CA         54.2550   25.4320   17.6710 C.3       6 GLP5        0.0000 
     26 CA         53.5275   20.7410   17.2545 C.3       3 GLC5        0.0000 
     27 CA         53.8360   19.8350   15.5620 C.3       6 GLP5        0.0000 
     28 CA         55.0740   21.9420   19.7085 C.3       3 GLC5        0.0000 
     29 CA         56.9290   22.2370   20.4700 C.3       6 GLP5        0.0000 
     30 CA         53.4050   20.1295   20.4720 C.3       3 GLC5        0.0000 
     31 CA         47.3945   18.8345   15.2560 C.3       3 GLC5        0.0000 
     32 CA         47.7790   18.6250   17.1200 C.3       9 GLL5        0.0000 
     33 CA         47.0100   19.0440   13.3920 C.3       6 GLP5        0.0000 
     34 CA         48.9270   17.0275   16.4385 C.3       3 GLC5        0.0000 
     35 CA         50.0750   15.4300   15.7570 C.3       6 GLP5        0.0000 
     36 CA         49.3205   16.7090   22.9875 C.3       3 GLC5        0.0000 
     37 CA         49.1380   15.5690   21.3860 C.3       9 GLL5        0.0000 
     38 CA         47.9130   14.4815   22.8445 C.3       3 GLC5        0.0000 
     39 CA         46.6880   13.3940   24.3030 C.3       6 GLP5        0.0000 
     40 CA         48.4025   13.6270   20.9545 C.3       3 GLC5        0.0000 
     41 CA         47.6670   11.6850   20.5230 C.3       6 GLP5        0.0000 
     42 CA         49.0755   14.6890   19.3695 C.3       3 GLC5        0.0000 
     43 CA         49.0130   13.8090   17.3530 C.3       6 GLP5        0.0000 
     44 CA         50.9290   16.4685   21.6935 C.3       3 GLC5        0.0000 
     45 CA         52.7200   17.3680   22.0010 C.3       6 GLP5        0.0000 
     46 CA         50.1425   14.8535   22.6200 C.3       3 GLC5        0.0000 
     47 CA         51.1470   14.1380   23.8540 C.3       6 GLP5        0.0000 
     48 CA         47.6442   14.7095   18.5275 C.3       3 GLC5        0.0000 
     49 CA         45.7960   15.7930   19.2060 C.3       9 GLL5        0.0000 
     50 CA         45.0390   16.0379   21.1884 C.3       3 GLC5        0.0000 
     51 CA         46.7550   15.4270   20.1980 C.3       9 GLL5        0.0000 
     52 CA         44.1290   16.6450   22.6510 C.3       6 GLP5        0.0000 
     53 CA         47.5305   13.7115   20.3670 C.3       3 GLC5        0.0000 
     54 CA         46.7385   17.8485   20.5155 C.3       3 GLC5        0.0000 
     55 CA         48.0330   16.0490   20.2240 C.3       9 GLL5        0.0000 
     56 CA         45.2670   19.1380   21.2910 C.3       6 GLP5        0.0000 
     57 CA         48.6115   15.1840   18.5465 C.3       3 GLC5        0.0000 
     58 CA         48.3870   17.0690   19.2560 C.3       9 GLL5        0.0000 
     59 CA         48.1697   20.3212   20.0532 C.3       3 GLC5        0.0000 
     60 CA         49.7420   18.9740   19.9740 C.3       9 GLL5        0.0000 
     61 CA         46.9510   21.5250   19.5010 C.3       6 GLP5        0.0000 
     62 CA         51.7255   18.0085   19.1527 C.3       3 GLC5        0.0000 
     63 CA         53.2420   16.5470   18.5880 C.3       6 GLP5        0.0000 
     64 CA         51.0542   18.2428   21.3032 C.3       3 GLC5        0.0000 
     65 CA         47.2110   19.5083   21.4365 C.3       3 GLC5        0.0000 
     66 CA         48.3450   21.2530   20.5860 C.3       3 GLC5        0.0000 
     67 CA         51.3540   20.3365   22.2800 C.3       3 GLC5        0.0000 
     68 CA         52.9690   19.6920   22.8890 C.3       6 GLP5        0.0000 
     69 CA         50.2120   21.1170   23.4925 C.3       3 GLC5        0.0000 
     70 CA         50.2030   21.4660   21.4150 C.3       9 GLL5        0.0000 
     71 CA         50.6850   21.2530   25.3140 C.3       6 GLP5        0.0000 
     72 CA         48.8745   21.0595   19.6568 C.3       3 GLC5        0.0000 
     73 CA         50.9200   21.2220   20.1640 C.3       9 GLL5        0.0000 
     74 CA         52.1983   20.7255   21.3878 C.3       3 GLC5        0.0000 
     75 CA         52.4537   24.4515   18.7570 C.3       3 GLC5        0.0000 
     76 CA         51.9350   22.2960   19.6090 C.3       9 GLL5        0.0000 
     77 CA         53.3480   26.1920   18.4370 C.3       6 GLP5        0.0000 
     78 CA         51.5167   21.7000   17.2805 C.3       3 GLC5        0.0000 
     79 CA         50.3332   24.0345   19.9915 C.3       3 GLC5        0.0000 
     80 CA         49.1070   25.3580   20.9060 C.3       6 GLP5        0.0000 
     81 CA         52.9511   23.5340   20.4575 C.3       3 GLC5        0.0000 
     82 CA         53.5130   24.8890   21.9030 C.3       6 GLP5        0.0000 
     83 CA         47.2777   19.7758   18.6000 C.3       3 GLC5        0.0000 
     84 CA         46.0260   18.1290   19.7700 C.3       3 GLC5        0.0000 
     85 CA         47.4300   17.4280   18.2780 C.3       9 GLL5        0.0000 
     86 CA         47.8990   15.4645   17.8010 C.3       3 GLC5        0.0000 
     87 CA         46.1400   16.8120   18.2200 C.3       9 GLL5        0.0000 
     88 CA         44.1898   17.2406   18.2269 C.3       3 GLC5        0.0000 
     89 CA         42.7380   18.3580   17.7170 C.3       6 GLP5        0.0000 
@<TRIPOS>BOND
@<TRIPOS>SUBSTRUCTURE
     1 ALC1       12 GROUP        1 X    ALC  0     ROOT ALC X 1
     2 SEC2        1 GROUP        1 X    SEC  0     **** SEC X 2
     3 GLC5        6 GROUP        1 X    GLC  0     **** GLC X 6
     4 ALP1       14 GROUP        1 Y    ALP  0     ROOT ALP Y 8
     5 SEP2        3 GROUP        1 Y    SEP  0     **** SEP Y 9
     6 GLP5        8 GROUP        1 Y    GLP  0     **** GLP Y 13
     7 ALL1       13 GROUP        1 Z    ALL  0     ROOT ALL Z 15
     8 SEL2        2 GROUP        1 Z    SEL  0     **** SEL Z 16
     9 GLL5        7 GROUP        1 Z    GLL  0     **** GLL Z 20
@<TRIPOS>SET

