#    Name: 1nav_IH5_1_ligand
#    Modification time : Mon Mar 24 17:53:53 2014

@<TRIPOS>MOLECULE
1nav_IH5_1_ligand
   38    39     1     0     0
SMALL
NO_CHARGES


@<TRIPOS>ATOM
      1 O3         44.6210   13.4550   17.6070 O.co2     1 IH5600      0.0000 
      2 C15        43.8740   14.4540   18.1410 C.2       1 IH5600      0.0000 
      3 O4         42.7640   14.8300   17.7390 O.co2     1 IH5600      0.0000 
      4 C13        44.4900   15.0760   19.3010 C.3       1 IH5600      0.0000 
      5 C01        45.7960   15.7930   19.2060 C.ar      1 IH5600      0.0000 
      6 C11        46.7550   15.4270   20.1980 C.ar      1 IH5600      0.0000 
      7 C09        48.0330   16.0490   20.2240 C.ar      1 IH5600      0.0000 
      8 C07        48.3870   17.0690   19.2560 C.ar      1 IH5600      0.0000 
      9 O2         49.5690   17.7330   19.2050 O.3       1 IH5600      0.0000 
     10 C2         49.7420   18.9740   19.9740 C.ar      1 IH5600      0.0000 
     11 C12        49.0350   19.2610   21.2370 C.ar      1 IH5600      0.0000 
     12 C10        49.2750   20.4960   21.9270 C.ar      1 IH5600      0.0000 
     13 C8         50.2030   21.4660   21.4150 C.ar      1 IH5600      0.0000 
     14 O1         50.4060   22.6440   22.1190 O.3       1 IH5600      0.0000 
     15 C6         50.9200   21.2220   20.1640 C.ar      1 IH5600      0.0000 
     16 C4         50.6760   19.9660   19.4610 C.ar      1 IH5600      0.0000 
     17 C14        51.9350   22.2960   19.6090 C.3       1 IH5600      0.0000 
     18 C16        51.1840   23.1260   18.5450 C.3       1 IH5600      0.0000 
     19 C18        53.2190   21.6470   18.9470 C.3       1 IH5600      0.0000 
     20 C05        47.4300   17.4280   18.2780 C.ar      1 IH5600      0.0000 
     21 C03        46.1400   16.8120   18.2200 C.ar      1 IH5600      0.0000 
     22 CL5        47.7790   18.6250   17.1200 Cl        1 IH5600      0.0000 
     23 CL6        49.1380   15.5690   21.3860 Cl        1 IH5600      0.0000 
     24 H          44.5907   14.2899   20.1340 H         1 IH5600      0.0000 
     25 H          43.7355   15.8005   19.7782 H         1 IH5600      0.0000 
     26 H          46.5199   14.7163   20.8895 H         1 IH5600      0.0000 
     27 H          48.3888   18.5799   21.5993 H         1 IH5600      0.0000 
     28 H          48.7774   20.6898   22.7981 H         1 IH5600      0.0000 
     29 H          51.1715   19.7811   18.5917 H         1 IH5600      0.0000 
     30 H          52.2303   22.9351   20.4004 H         1 IH5600      0.0000 
     31 H          45.4723   17.0683   17.5161 H         1 IH5600      0.0000 
     32 H          51.7680   23.8320   18.1445 H         1 IH5600      0.0000 
     33 H          50.8559   22.5552   17.7923 H         1 IH5600      0.0000 
     34 H          50.3862   23.5895   18.9306 H         1 IH5600      0.0000 
     35 H          53.8490   22.3415   18.5996 H         1 IH5600      0.0000 
     36 H          53.7304   21.0873   19.5991 H         1 IH5600      0.0000 
     37 H          52.9809   21.0556   18.1766 H         1 IH5600      0.0000 
     38 H          49.8902   22.5301   22.9680 H         1 IH5600      0.0000 
@<TRIPOS>BOND
     1    2    1 ar   
     2    3    2 ar   
     3    4    2 1    
     4    5    4 1    
     5   24    4 1    
     6   25    4 1    
     7    6    5 ar   
     8   21    5 ar   
     9    7    6 ar   
    10   26    6 1    
    11    8    7 ar   
    12   23    7 1    
    13    9    8 1    
    14   20    8 ar   
    15   10    9 1    
    16   11   10 ar   
    17   16   10 ar   
    18   12   11 ar   
    19   27   11 1    
    20   13   12 ar   
    21   28   12 1    
    22   14   13 1    
    23   15   13 ar   
    24   38   14 1    
    25   16   15 ar   
    26   17   15 1    
    27   29   16 1    
    28   18   17 1    
    29   19   17 1    
    30   30   17 1    
    31   32   18 1    
    32   33   18 1    
    33   34   18 1    
    34   35   19 1    
    35   36   19 1    
    36   37   19 1    
    37   21   20 ar   
    38   22   20 1    
    39   31   21 1    
@<TRIPOS>SUBSTRUCTURE
     1 IH5600      1 GROUP   
@<TRIPOS>SET

