#    Name: 2YRI_1_CAVITY_N1_6.mol2
#    Modification time : Tue Mar 11 04:18:18 2014

@<TRIPOS>MOLECULE
2YRI_1_CAVITY_N1_6.mol2
   76     0     6     0     0
SMALL
NO_CHARGES


@<TRIPOS>ATOM
      1 N          88.5393   47.8906   70.3016 N.2       2 ALA2        0.0000 
      2 O          87.7152   49.0866   69.9269 O.2       2 ALA2        0.0000 
      3 CA         86.8911   50.2827   69.5523 C.3       6 GLY6        0.0000 
      4 CA         88.3711   45.7980   69.9968 C.3       6 GLY6        0.0000 
      5 N          87.5470   46.9941   69.6221 N.2       2 ALA2        0.0000 
      6 O          86.7230   48.1901   69.2475 O.2       2 ALA2        0.0000 
      7 CA         87.7736   47.7651   71.5853 C.3       6 GLY6        0.0000 
      8 CA         86.9495   48.9612   71.2107 C.3       6 GLY6        0.0000 
      9 CA         86.1254   50.1572   70.8360 C.3       6 GLY6        0.0000 
     10 CA         85.3013   51.3532   70.4613 C.3       6 GLY6        0.0000 
     11 CA         87.6054   45.6725   71.2805 C.3       6 GLY6        0.0000 
     12 CA         86.7813   46.8686   70.9058 C.3       6 GLY6        0.0000 
     13 CA         85.9572   48.0646   70.5312 C.3       6 GLY6        0.0000 
     14 CA         85.1332   49.2607   70.1565 C.3       6 GLY6        0.0000 
     15 CA         84.3091   50.4567   69.7819 C.3       6 GLY6        0.0000 
     16 CA         85.7891   45.9721   70.2263 C.3       6 GLY6        0.0000 
     17 O          84.9650   47.1681   69.8517 O.2       2 ALA2        0.0000 
     18 O          84.1409   48.3642   69.4770 O.2       2 ALA2        0.0000 
     19 CA         83.3168   49.5602   69.1024 C.3       6 GLY6        0.0000 
     20 O          83.1487   47.4677   68.7975 O.2       2 ALA2        0.0000 
     21 N          82.3246   48.6637   68.4229 N.2       2 ALA2        0.0000 
     22 O          82.9805   45.3751   68.4927 O.2       2 ALA2        0.0000 
     23 O          82.1564   46.5712   68.1181 O.2       2 ALA2        0.0000 
     24 CZ         81.9882   44.4786   67.8132 C.ar      5 PHE5        0.0000 
     25 CA         81.1641   45.6747   67.4386 C.3       6 GLY6        0.0000 
     26 CA         80.1719   44.7781   66.7591 C.3       6 GLY6        0.0000 
     27 CA         84.5356   51.2278   71.7451 C.3       6 GLY6        0.0000 
     28 CA         86.0156   46.7431   72.1896 C.3       6 GLY6        0.0000 
     29 CA         85.1915   47.9392   71.8149 C.3       6 GLY6        0.0000 
     30 N          84.3674   49.1352   71.4402 N.2       2 ALA2        0.0000 
     31 N          83.5434   50.3313   71.0656 N.2       2 ALA2        0.0000 
     32 CA         82.7193   51.5273   70.6909 C.3       6 GLY6        0.0000 
     33 CZ         85.0233   45.8466   71.5101 C.ar      5 PHE5        0.0000 
     34 N          84.1993   47.0427   71.1354 N.2       2 ALA2        0.0000 
     35 N          83.3752   48.2387   70.7607 N.2       2 ALA2        0.0000 
     36 N          82.5511   49.4348   70.3861 N.2       2 ALA2        0.0000 
     37 CA         84.0311   44.9501   70.8306 C.3       6 GLY6        0.0000 
     38 CZ         83.2070   46.1462   70.4559 C.ar      5 PHE5        0.0000 
     39 N          82.3829   47.3422   70.0813 N.2       2 ALA2        0.0000 
     40 CZ         83.0388   44.0536   70.1511 C.ar      5 PHE5        0.0000 
     41 CZ         82.2148   45.2497   69.7764 C.ar      5 PHE5        0.0000 
     42 N          81.3907   46.4457   69.4018 N.2       2 ALA2        0.0000 
     43 CZ         81.2225   44.3531   69.0969 C.ar      5 PHE5        0.0000 
     44 OD1        80.3984   45.5492   68.7223 O.3       3 ASP3        0.0000 
     45 CZ         80.2302   43.4566   68.4175 C.ar      5 PHE5        0.0000 
     46 OD1        79.4062   44.6527   68.0428 O.3       3 ASP3        0.0000 
     47 CZ         79.2380   42.5601   67.7380 C.ar      5 PHE5        0.0000 
     48 CA         78.4139   43.7562   67.3633 C.3       6 GLY6        0.0000 
     49 CA         83.7699   51.1023   73.0288 C.3       6 GLY6        0.0000 
     50 CZ         82.4413   46.0207   71.7396 C.ar      5 PHE5        0.0000 
     51 OG         81.4490   45.1242   71.0601 O.2       1 SER1        0.0000 
     52 OG         80.6250   46.3202   70.6855 O.2       1 SER1        0.0000 
     53 OG         80.4568   44.2277   70.3807 O.2       1 SER1        0.0000 
     54 OD1        79.6327   45.4237   70.0060 O.3       3 ASP3        0.0000 
     55 OD1        79.4645   43.3312   69.7012 O.3       3 ASP3        0.0000 
     56 CZ         79.2963   41.2386   69.3963 C.ar      5 PHE5        0.0000 
     57 OD1        78.4723   42.4347   69.0217 O.3       3 ASP3        0.0000 
     58 CZ         78.3041   40.3421   68.7169 C.ar      5 PHE5        0.0000 
     59 CA         77.4800   41.5382   68.3422 C.3       6 GLY6        0.0000 
     60 OG         79.6911   44.1022   71.6644 O.2       1 SER1        0.0000 
     61 OG         79.5229   42.0097   71.3596 O.2       1 SER1        0.0000 
     62 OD1        78.6988   43.2057   70.9849 O.3       3 ASP3        0.0000 
     63 OG         79.3547   39.9171   71.0547 O.2       1 SER1        0.0000 
     64 CZ         78.5306   41.1132   70.6801 C.ar      5 PHE5        0.0000 
     65 OD1        77.7065   42.3092   70.3054 O.3       3 ASP3        0.0000 
     66 CA         78.3624   39.0206   70.3752 C.3       6 GLY6        0.0000 
     67 CA         77.5384   40.2166   70.0006 C.3       6 GLY6        0.0000 
     68 CA         76.7143   41.4127   69.6259 C.3       6 GLY6        0.0000 
     69 NZ         76.5461   39.3201   69.3211 N.2       4 LYS4        0.0000 
     70 OG         78.7571   41.8842   72.6433 O.2       1 SER1        0.0000 
     71 OD1        77.9331   43.0803   72.2686 O.3       3 ASP3        0.0000 
     72 O          77.7649   40.9877   71.9638 O.2       2 ALA2        0.0000 
     73 CA         76.9408   42.1837   71.5891 C.3       6 GLY6        0.0000 
     74 CA         77.5967   38.8951   71.6590 C.3       6 GLY6        0.0000 
     75 O          76.7726   40.0912   71.2843 O.2       2 ALA2        0.0000 
     76 CA         75.9486   41.2872   70.9096 C.3       6 GLY6        0.0000 
@<TRIPOS>BOND
@<TRIPOS>SUBSTRUCTURE
     1 SER1       51 GROUP   
     2 ALA2        1 GROUP   
     3 ASP3       44 GROUP   
     4 LYS4       69 GROUP   
     5 PHE5       24 GROUP   
     6 GLY6        3 GROUP   
@<TRIPOS>SET

