#    Name: 2yri_MMM_1_INTS_M
#    Modification time : Tue Mar 25 09:41:12 2014

@<TRIPOS>MOLECULE
2yri_MMM_1_INTS_M
   81     0     9     0     0
SMALL
NO_CHARGES


@<TRIPOS>ATOM
      1 N          77.3785   38.8335   67.3670 N.am      1 SEC2        0.0000 
      2 N          77.9730   39.9570   67.7380 N.am      7 SEL2        0.0000 
      3 N          76.7840   37.7100   66.9960 N.am      4 SEP2        0.0000 
      4 CA         78.3685   39.2075   64.1570 C.3       3 GLC5        0.0000 
      5 CA         78.3860   40.5250   65.4570 C.3       9 GLL5        0.0000 
      6 CA         78.3510   37.8900   62.8570 C.3       6 GLP5        0.0000 
      7 CA         79.5925   42.2560   64.7580 C.3       3 GLC5        0.0000 
      8 CA         80.7990   43.9870   64.0590 C.3       6 GLP5        0.0000 
      9 CA         79.8835   43.0890   65.8055 C.3       3 GLC5        0.0000 
     10 CA         78.9680   42.1910   67.5520 C.3       9 GLL5        0.0000 
     11 N          79.4515   43.2075   65.4650 N.am      1 SEC2        0.0000 
     12 N          79.3970   43.0270   66.7160 N.am      7 SEL2        0.0000 
     13 N          79.5060   43.3880   64.2140 N.am      4 SEP2        0.0000 
     14 CA         77.2185   43.6775   69.3245 C.3       3 GLC5        0.0000 
     15 CA         78.9570   42.3910   68.9510 C.3       9 GLL5        0.0000 
     16 CA         75.4800   44.9640   69.6980 C.3       6 GLP5        0.0000 
     17 CA         78.2270   38.1800   69.2665 C.3       3 GLC5        0.0000 
     18 CA         77.9280   40.0780   69.1160 C.3       9 GLL5        0.0000 
     19 CA         78.5260   36.2820   69.4170 C.3       6 GLP5        0.0000 
     20 CA         76.3195   41.1290   72.0920 C.3       3 GLC5        0.0000 
     21 CA         78.3010   41.2790   71.2060 C.3       9 GLL5        0.0000 
     22 CA         74.3380   40.9790   72.9780 C.3       6 GLP5        0.0000 
     23 CA         77.5730   39.8360   72.6980 C.3       3 GLC5        0.0000 
     24 CA         76.8450   38.3930   74.1900 C.3       6 GLP5        0.0000 
     25 CA         80.1370   41.1455   70.2480 C.3       3 GLC5        0.0000 
     26 CA         81.9730   41.0120   69.2900 C.3       6 GLP5        0.0000 
     27 NZ         76.7305   44.4815   71.7415 N.4       2 LYC4        0.0000 
     28 NZ         76.5310   43.7360   73.5400 N.4       8 LYL4        0.0000 
     29 NZ         76.9300   45.2270   69.9430 N.4       5 LYP4        0.0000 
     30 N          75.5220   42.8155   73.8170 N.am      1 SEC2        0.0000 
     31 N          76.5310   43.7360   73.5400 N.am      7 SEL2        0.0000 
     32 N          74.5130   41.8950   74.0940 N.am      4 SEP2        0.0000 
     33 N          76.0470   45.0490   73.1635 N.am      1 SEC2        0.0000 
     34 N          75.5630   46.3620   72.7870 N.am      4 SEP2        0.0000 
     35 NZ         77.9660   44.5125   71.4085 N.4       2 LYC4        0.0000 
     36 NZ         79.0020   43.7980   72.8740 N.4       8 LYL4        0.0000 
     37 N          80.2920   43.3200   72.7985 N.am      1 SEC2        0.0000 
     38 N          79.0020   43.7980   72.8740 N.am      7 SEL2        0.0000 
     39 N          81.5820   42.8420   72.7230 N.am      4 SEP2        0.0000 
     40 N          79.3365   44.3170   74.2950 N.am      1 SEC2        0.0000 
     41 N          79.6710   44.8360   75.7160 N.am      4 SEP2        0.0000 
     42 N          78.9920   45.1250   73.1535 N.am      1 SEC2        0.0000 
     43 N          78.9820   46.4520   73.4330 N.am      4 SEP2        0.0000 
     44 N          77.2590   41.8440   75.3240 N.am      1 SEC2        0.0000 
     45 N          77.9060   41.9170   74.1300 N.am      7 SEL2        0.0000 
     46 N          76.6120   41.7710   76.5180 N.am      4 SEP2        0.0000 
     47 N          77.0160   40.7710   74.0180 N.am      1 SEC2        0.0000 
     48 N          76.1260   39.6250   73.9060 N.am      4 SEP2        0.0000 
     49 N          78.4655   40.6715   74.1320 N.am      1 SEC2        0.0000 
     50 N          79.0250   39.4260   74.1340 N.am      4 SEP2        0.0000 
     51 CA         81.7450   43.9120   69.0095 C.3       3 GLC5        0.0000 
     52 CA         80.9470   45.7620   69.4270 C.3       9 GLL5        0.0000 
     53 CA         82.5430   42.0620   68.5920 C.3       6 GLP5        0.0000 
     54 CA         82.0295   44.5970   72.0405 C.3       3 GLC5        0.0000 
     55 CA         81.2510   45.8810   70.9260 C.3       9 GLL5        0.0000 
     56 CA         82.8080   43.3130   73.1550 C.3       6 GLP5        0.0000 
     57 CA         78.7380   48.2320   68.8495 C.3       3 GLC5        0.0000 
     58 CA         79.8150   46.7430   69.0820 C.3       9 GLL5        0.0000 
     59 CA         77.6610   49.7210   68.6170 C.3       6 GLP5        0.0000 
     60 NZ         83.6260   46.2490   67.2315 N.4       2 LYC4        0.0000 
     61 NZ         82.1460   45.5250   67.3550 N.4       8 LYL4        0.0000 
     62 NZ         84.9990   46.7510   65.8050 N.4       5 LYP4        0.0000 
     63 N          83.0500   45.8040   66.3430 N.am      1 SEC2        0.0000 
     64 N          82.1460   45.5250   67.3550 N.am      7 SEL2        0.0000 
     65 N          83.9540   46.0830   65.3310 N.am      4 SEP2        0.0000 
     66 N          83.6260   46.2490   67.2315 N.am      1 SEC2        0.0000 
     67 N          85.1060   46.9730   67.1080 N.am      4 SEP2        0.0000 
     68 NZ         84.1925   46.8340   68.0905 N.4       2 LYC4        0.0000 
     69 NZ         83.2790   46.6950   69.0730 N.4       8 LYL4        0.0000 
     70 N          84.1925   46.8340   68.0905 N.am      1 SEC2        0.0000 
     71 N          83.2790   46.6950   69.0730 N.am      7 SEL2        0.0000 
     72 CA         79.8892   39.6210   66.3570 C.3       3 GLC5        0.0000 
     73 CA         78.4750   40.9670   66.9110 C.3       9 GLL5        0.0000 
     74 CA         81.3480   38.4960   66.5300 C.3       6 GLP5        0.0000 
     75 CA         76.6222   41.4290   66.3630 C.3       3 GLC5        0.0000 
     76 CA         74.8140   42.1120   66.5420 C.3       6 GLP5        0.0000 
     77 CA         77.2078   42.8780   67.4928 C.3       3 GLC5        0.0000 
     78 CA         75.4530   43.4650   66.7340 C.3       6 GLP5        0.0000 
     79 CA         76.3558   41.0658   68.6430 C.3       3 GLC5        0.0000 
     80 CA         78.4110   41.2690   69.6800 C.3       9 GLL5        0.0000 
     81 CA         74.5420   41.4580   67.8880 C.3       6 GLP5        0.0000 
@<TRIPOS>BOND
@<TRIPOS>SUBSTRUCTURE
     1 SEC2        1 GROUP        1 X    SEC  0     ROOT SEC X 2
     2 LYC4       27 GROUP        1 X    LYC  0     **** LYC X 4
     3 GLC5        4 GROUP        1 X    GLC  0     **** GLC X 6
     4 SEP2        3 GROUP        1 Y    SEP  0     ROOT SEP Y 9
     5 LYP4       29 GROUP        1 Y    LYP  0     **** LYP Y 11
     6 GLP5        6 GROUP        1 Y    GLP  0     **** GLP Y 13
     7 SEL2        2 GROUP        1 Z    SEL  0     ROOT SEL Z 16
     8 LYL4       28 GROUP        1 Z    LYL  0     **** LYL Z 18
     9 GLL5        5 GROUP        1 Z    GLL  0     **** GLL Z 20
@<TRIPOS>SET

