#    Name: 2yri_MMM_1_ligand
#    Modification time : Tue Mar 25 09:41:13 2014

@<TRIPOS>MOLECULE
2yri_MMM_1_ligand
   37    37     1     0     0
SMALL
NO_CHARGES


@<TRIPOS>ATOM
      1 N1         77.9730   39.9570   67.7380 N.ar      1 MMM500      0.0000 
      2 C2         78.4750   40.9670   66.9110 C.ar      1 MMM500      0.0000 
      3 C2A        78.3860   40.5250   65.4570 C.3       1 MMM500      0.0000 
      4 C3         78.9680   42.1910   67.5520 C.ar      1 MMM500      0.0000 
      5 O3         79.3970   43.0270   66.7160 O.3       1 MMM500      0.0000 
      6 C4         78.9570   42.3910   68.9510 C.ar      1 MMM500      0.0000 
      7 C4A        79.4850   43.6750   69.5610 C.2       1 MMM500      0.0000 
      8 C5         78.4110   41.2690   69.6800 C.ar      1 MMM500      0.0000 
      9 C6         77.9280   40.0780   69.1160 C.ar      1 MMM500      0.0000 
     10 C5A        78.3010   41.2790   71.2060 C.3       1 MMM500      0.0000 
     11 OP4        77.4650   42.2420   71.7380 O.3       1 MMM500      0.0000 
     12 P          77.7150   43.0210   73.1200 P.3       1 MMM500      0.0000 
     13 OP1        76.5310   43.7360   73.5400 O.co2     1 MMM500      0.0000 
     14 OP2        79.0020   43.7980   72.8740 O.co2     1 MMM500      0.0000 
     15 OP3        77.9060   41.9170   74.1300 O.co2     1 MMM500      0.0000 
     16 NA         80.5220   44.3500   69.0780 N.2       1 MMM500      0.0000 
     17 CAA        80.9470   45.7620   69.4270 C.3       1 MMM500      0.0000 
     18 CBA        81.2510   45.8810   70.9260 C.3       1 MMM500      0.0000 
     19 OGA        82.6210   45.4700   71.3090 O.3       1 MMM500      0.0000 
     20 CAB        79.8150   46.7430   69.0820 C.3       1 MMM500      0.0000 
     21 CA         82.2030   46.1180   68.5870 C.2       1 MMM500      0.0000 
     22 OA         82.1460   45.5250   67.3550 O.co2     1 MMM500      0.0000 
     23 OXT        83.2790   46.6950   69.0730 O.co2     1 MMM500      0.0000 
     24 H          78.9506   43.9843   70.4080 H         1 MMM500      0.0000 
     25 H          77.5625   39.3410   69.7027 H         1 MMM500      0.0000 
     26 H          79.3539   41.3688   71.5976 H         1 MMM500      0.0000 
     27 H          77.9930   40.2376   71.5069 H         1 MMM500      0.0000 
     28 H          80.5038   45.2724   71.4756 H         1 MMM500      0.0000 
     29 H          81.0710   46.9330   71.2287 H         1 MMM500      0.0000 
     30 H          78.7338   41.2256   64.8339 H         1 MMM500      0.0000 
     31 H          78.9157   39.6938   65.2884 H         1 MMM500      0.0000 
     32 H          77.4434   40.3322   65.1845 H         1 MMM500      0.0000 
     33 H          80.0632   47.6873   69.2981 H         1 MMM500      0.0000 
     34 H          79.5837   46.7160   68.1095 H         1 MMM500      0.0000 
     35 H          78.9777   46.5368   69.5883 H         1 MMM500      0.0000 
     36 H          80.1287   43.5158   67.1910 H         1 MMM500      0.0000 
     37 H          83.2084   45.8134   70.5762 H         1 MMM500      0.0000 
@<TRIPOS>BOND
     1    2    1 ar   
     2    9    1 ar   
     3    3    2 1    
     4    4    2 ar   
     5   30    3 1    
     6   31    3 1    
     7   32    3 1    
     8    5    4 1    
     9    6    4 ar   
    10   36    5 1    
    11    7    6 1    
    12    8    6 ar   
    13   16    7 2    
    14   24    7 1    
    15    9    8 ar   
    16   10    8 1    
    17   25    9 1    
    18   11   10 1    
    19   26   10 1    
    20   27   10 1    
    21   12   11 1    
    22   13   12 ar   
    23   14   12 ar   
    24   15   12 ar   
    25   17   16 1    
    26   18   17 1    
    27   20   17 1    
    28   21   17 1    
    29   19   18 1    
    30   28   18 1    
    31   29   18 1    
    32   37   19 1    
    33   33   20 1    
    34   34   20 1    
    35   35   20 1    
    36   22   21 ar   
    37   23   21 ar   
@<TRIPOS>SUBSTRUCTURE
     1 MMM500      1 GROUP   
@<TRIPOS>SET

