#    Name: 1c72_EPY_1_INTS_M
#    Modification time : Mon Mar 24 20:21:01 2014

@<TRIPOS>MOLECULE
1c72_EPY_1_INTS_M
   56     0    12     0     0
SMALL
NO_CHARGES


@<TRIPOS>ATOM
      1 CA         54.1400   36.7490   71.3300 C.3       4 GLC5        0.0000 
      2 CA         56.2210   36.1040   71.6200 C.3      12 GLL5        0.0000 
      3 CA         52.0590   37.3940   71.0400 C.3       8 GLP5        0.0000 
      4 N          52.4855   30.6640   76.6290 N.am      2 SEC2        0.0000 
      5 N          53.5020   30.1250   75.4910 N.am     10 SEL2        0.0000 
      6 N          51.4690   31.2030   77.7670 N.am      6 SEP2        0.0000 
      7 N          53.6635   35.7280   75.2115 N.am      2 SEC2        0.0000 
      8 N          53.8250   34.5750   74.7140 N.am     10 SEL2        0.0000 
      9 N          53.5020   36.8810   75.7090 N.am      6 SEP2        0.0000 
     10 N          53.2140   32.4900   64.9420 N.am      2 SEC2        0.0000 
     11 N          54.5320   32.6690   65.2550 N.am     10 SEL2        0.0000 
     12 N          51.8960   32.3110   64.6290 N.am      6 SEP2        0.0000 
     13 N          54.0725   33.6235   64.3890 N.am      2 SEC2        0.0000 
     14 N          53.6130   34.5780   63.5230 N.am      6 SEP2        0.0000 
     15 N          52.6240   32.4315   65.8580 N.am      2 SEC2        0.0000 
     16 N          53.3520   32.5520   67.0870 N.am     10 SEL2        0.0000 
     17 OD1        57.8395   30.1205   66.4620 O.co2     3 ASC3        0.0000 
     18 OD1        56.7080   31.4020   66.1870 O.co2    11 ASL3        0.0000 
     19 OD1        58.9710   28.8390   66.7370 O.co2     7 ASP3        0.0000 
     20 OD1        56.9875   29.8215   67.0945 O.co2     3 ASC3        0.0000 
     21 OD1        57.2670   28.2410   68.0020 O.co2     7 ASP3        0.0000 
     22 O          57.8395   30.1205   66.4620 O.2       1 ALC1        0.0000 
     23 O          56.7080   31.4020   66.1870 O.2       9 ALL1        0.0000 
     24 O          58.9710   28.8390   66.7370 O.2       5 ALP1        0.0000 
     25 CA         53.3220   33.6905   69.0335 C.3       4 GLC5        0.0000 
     26 CA         55.2590   32.8380   69.5170 C.3      12 GLL5        0.0000 
     27 CA         51.3850   34.5430   68.5500 C.3       8 GLP5        0.0000 
     28 O          53.9610   33.6830   71.3915 O.2       1 ALC1        0.0000 
     29 O          55.1820   33.5280   71.9580 O.2       9 ALL1        0.0000 
     30 O          52.7400   33.8380   70.8250 O.2       5 ALP1        0.0000 
     31 CA         57.4580   37.8375   75.1965 C.3       4 GLC5        0.0000 
     32 CA         57.5530   37.4720   73.4930 C.3      12 GLL5        0.0000 
     33 CA         57.3630   38.2030   76.9000 C.3       8 GLP5        0.0000 
     34 N          60.0235   39.2640   72.3765 N.am      2 SEC2        0.0000 
     35 N          59.7970   37.8610   71.3750 N.am     10 SEL2        0.0000 
     36 N          60.2500   40.6670   73.3780 N.am      6 SEP2        0.0000 
     37 N          59.0485   43.1430   66.3085 N.am      2 SEC2        0.0000 
     38 N          59.5540   42.1970   66.9960 N.am     10 SEL2        0.0000 
     39 N          58.5430   44.0890   65.6210 N.am      6 SEP2        0.0000 
     40 CA         55.5475   34.2256   68.4569 C.3       4 GLC5        0.0000 
     41 CA         56.2120   32.4970   68.3770 C.3      12 GLL5        0.0000 
     42 CA         55.5150   35.9950   68.2530 C.3       8 GLP5        0.0000 
     43 CA         56.6003   36.4056   69.9269 C.3       4 GLC5        0.0000 
     44 CA         57.5490   36.6410   72.1930 C.3      12 GLL5        0.0000 
     45 CA         61.5965   39.4810   69.3137 C.3       4 GLC5        0.0000 
     46 CA         59.6940   38.6240   70.2070 C.3      12 GLL5        0.0000 
     47 CA         63.5430   39.6330   68.3530 C.3       8 GLP5        0.0000 
     48 CA         61.5122   40.1000   68.4510 C.3       4 GLC5        0.0000 
     49 CA         59.4910   40.8620   69.1950 C.3      12 GLL5        0.0000 
     50 CA         59.6505   39.5845   65.6827 C.3       4 GLC5        0.0000 
     51 CA         59.5660   38.8740   67.7780 C.3      12 GLL5        0.0000 
     52 CA         59.7820   39.5960   63.5250 C.3       8 GLP5        0.0000 
     53 CA         61.5832   39.0490   68.3500 C.3       4 GLC5        0.0000 
     54 CA         58.0405   38.0553   67.3656 C.3       4 GLC5        0.0000 
     55 CA         59.6810   38.0560   68.9160 C.3      12 GLL5        0.0000 
     56 CA         56.4810   37.2960   66.3530 C.3       8 GLP5        0.0000 
@<TRIPOS>BOND
@<TRIPOS>SUBSTRUCTURE
     1 ALC1       22 GROUP        1 X    ALC  0     ROOT ALC X 1
     2 SEC2        4 GROUP        1 X    SEC  0     **** SEC X 2
     3 ASC3       17 GROUP        1 X    ASC  0     **** ASC X 3
     4 GLC5        1 GROUP        1 X    GLC  0     **** GLC X 6
     5 ALP1       24 GROUP        1 Y    ALP  0     ROOT ALP Y 8
     6 SEP2        6 GROUP        1 Y    SEP  0     **** SEP Y 9
     7 ASP3       19 GROUP        1 Y    ASP  0     **** ASP Y 10
     8 GLP5        3 GROUP        1 Y    GLP  0     **** GLP Y 13
     9 ALL1       23 GROUP        1 Z    ALL  0     ROOT ALL Z 15
    10 SEL2        5 GROUP        1 Z    SEL  0     **** SEL Z 16
    11 ASL3       18 GROUP        1 Z    ASL  0     **** ASL Z 17
    12 GLL5        2 GROUP        1 Z    GLL  0     **** GLL Z 20
@<TRIPOS>SET

