#    Name: 1c72_EPY_1_ligand
#    Modification time : Mon Mar 24 20:21:01 2014

@<TRIPOS>MOLECULE
1c72_EPY_1_ligand
   59    59     1     0     0
SMALL
NO_CHARGES


@<TRIPOS>ATOM
      1 S          56.2210   36.1040   71.6200 S.3       1 EPY220      0.0000 
      2 C2A        55.7020   34.0780   73.1460 C.3       1 EPY220      0.0000 
      3 C3A        54.5850   33.7410   74.2390 C.2       1 EPY220      0.0000 
      4 N4A        54.3570   32.4510   74.3450 N.am      1 EPY220      0.0000 
      5 C1A        55.9340   35.5640   72.9490 C.3       1 EPY220      0.0000 
      6 C5A        55.3480   31.4660   74.8720 C.3       1 EPY220      0.0000 
      7 C6A        54.7260   30.2570   75.4610 C.2       1 EPY220      0.0000 
      8 O6A        53.5020   30.1250   75.4910 O.co2     1 EPY220      0.0000 
      9 O3A        53.8250   34.5750   74.7140 O.2       1 EPY220      0.0000 
     10 O7A        55.4270   29.3320   75.9500 O.co2     1 EPY220      0.0000 
     11 O6B        54.5320   32.6690   65.2550 O.co2     1 EPY220      0.0000 
     12 C6B        54.3810   32.3480   66.4980 C.2       1 EPY220      0.0000 
     13 O7B        53.3520   32.5520   67.0870 O.co2     1 EPY220      0.0000 
     14 C5B        55.5900   31.6520   67.2320 C.3       1 EPY220      0.0000 
     15 N5B        56.7080   31.4020   66.1870 N.4       1 EPY220      0.0000 
     16 C4B        56.2120   32.4970   68.3770 C.3       1 EPY220      0.0000 
     17 C3B        55.2590   32.8380   69.5170 C.3       1 EPY220      0.0000 
     18 C2B        55.9940   33.4540   70.7360 C.2       1 EPY220      0.0000 
     19 O2B        57.1420   33.7970   70.6750 O.2       1 EPY220      0.0000 
     20 N1B        55.1820   33.5280   71.9580 N.am      1 EPY220      0.0000 
     21 C1C        57.5490   36.6410   72.1930 C.3       1 EPY220      0.0000 
     22 C3C        57.5530   37.4720   73.4930 C.3       1 EPY220      0.0000 
     23 O2C        58.6720   38.1530   73.9590 O.3       1 EPY220      0.0000 
     24 C2C        58.4860   37.2600   71.2950 C.3       1 EPY220      0.0000 
     25 O3C        59.7970   37.8610   71.3750 O.3       1 EPY220      0.0000 
     26 C4C        59.6940   38.6240   70.2070 C.ar      1 EPY220      0.0000 
     27 C9C        59.6060   40.0340   70.3420 C.ar      1 EPY220      0.0000 
     28 C8C        59.4910   40.8620   69.1950 C.ar      1 EPY220      0.0000 
     29 C7C        59.4720   40.2720   67.9030 C.ar      1 EPY220      0.0000 
     30 C6C        59.5660   38.8740   67.7780 C.ar      1 EPY220      0.0000 
     31 C5C        59.6810   38.0560   68.9160 C.ar      1 EPY220      0.0000 
     32 N8C        59.4080   41.0140   66.8180 N.pl3     1 EPY220      0.0000 
     33 O8C        59.1680   40.6190   65.6800 O.2       1 EPY220      0.0000 
     34 O9C        59.5540   42.1970   66.9960 O.2       1 EPY220      0.0000 
     35 H          56.5917   33.5881   73.4509 H         1 EPY220      0.0000 
     36 H          53.4393   32.0132   74.0593 H         1 EPY220      0.0000 
     37 H          55.0310   36.1067   73.3879 H         1 EPY220      0.0000 
     38 H          56.7652   35.8730   73.6675 H         1 EPY220      0.0000 
     39 H          55.9827   31.9639   75.6336 H         1 EPY220      0.0000 
     40 H          56.0325   31.1675   74.0515 H         1 EPY220      0.0000 
     41 H          55.2752   30.7086   67.6107 H         1 EPY220      0.0000 
     42 H          56.6068   33.4316   67.9398 H         1 EPY220      0.0000 
     43 H          57.0798   31.9449   68.7800 H         1 EPY220      0.0000 
     44 H          54.7420   31.9324   69.8450 H         1 EPY220      0.0000 
     45 H          54.5098   33.5526   69.1662 H         1 EPY220      0.0000 
     46 H          54.2276   33.1678   71.9190 H         1 EPY220      0.0000 
     47 H          58.1256   35.6529   72.5493 H         1 EPY220      0.0000 
     48 H          57.1405   36.7562   74.3072 H         1 EPY220      0.0000 
     49 H          56.6485   38.1912   73.3915 H         1 EPY220      0.0000 
     50 H          57.8132   38.0673   70.6443 H         1 EPY220      0.0000 
     51 H          58.5557   36.4891   70.3313 H         1 EPY220      0.0000 
     52 H          59.6256   40.4567   71.2727 H         1 EPY220      0.0000 
     53 H          59.4227   41.8702   69.2968 H         1 EPY220      0.0000 
     54 H          59.5504   38.4453   66.8432 H         1 EPY220      0.0000 
     55 H          59.7561   37.0387   68.8084 H         1 EPY220      0.0000 
     56 H          56.4461   31.7265   65.2781 H         1 EPY220      0.0000 
     57 H          57.5569   31.8703   66.4320 H         1 EPY220      0.0000 
     58 H          56.9244   30.4296   66.1000 H         1 EPY220      0.0000 
     59 H          59.0594   38.5972   73.1512 H         1 EPY220      0.0000 
@<TRIPOS>BOND
     1    5    1 1    
     2   21    1 1    
     3    3    2 1    
     4    5    2 1    
     5   20    2 1    
     6   35    2 1    
     7    4    3 am   
     8    9    3 2    
     9    6    4 1    
    10   36    4 1    
    11   37    5 1    
    12   38    5 1    
    13    7    6 1    
    14   39    6 1    
    15   40    6 1    
    16    8    7 ar   
    17   10    7 ar   
    18   12   11 ar   
    19   13   12 ar   
    20   14   12 1    
    21   15   14 1    
    22   16   14 1    
    23   41   14 1    
    24   56   15 1    
    25   57   15 1    
    26   58   15 1    
    27   17   16 1    
    28   42   16 1    
    29   43   16 1    
    30   18   17 1    
    31   44   17 1    
    32   45   17 1    
    33   19   18 2    
    34   20   18 am   
    35   46   20 1    
    36   22   21 1    
    37   24   21 1    
    38   47   21 1    
    39   23   22 1    
    40   48   22 1    
    41   49   22 1    
    42   59   23 1    
    43   25   24 1    
    44   50   24 1    
    45   51   24 1    
    46   26   25 1    
    47   27   26 ar   
    48   31   26 ar   
    49   28   27 ar   
    50   52   27 1    
    51   29   28 ar   
    52   53   28 1    
    53   30   29 ar   
    54   32   29 1    
    55   31   30 ar   
    56   54   30 1    
    57   55   31 1    
    58   33   32 2    
    59   34   32 2    
@<TRIPOS>SUBSTRUCTURE
     1 EPY220      1 GROUP   
@<TRIPOS>SET

