#    Name: 2B4D_2_CAVITY_N1_6.mol2
#    Modification time : Tue Mar 11 03:04:33 2014

@<TRIPOS>MOLECULE
2B4D_2_CAVITY_N1_6.mol2
  105     0     6     0     0
SMALL
NO_CHARGES


@<TRIPOS>ATOM
      1 CA         57.5951   10.6834   37.9972 C.3       5 GLY6        0.0000 
      2 O          57.7177   11.2594   36.6176 O.2       2 ALA2        0.0000 
      3 O          57.8403   11.8354   35.2381 O.2       2 ALA2        0.0000 
      4 OG         57.9630   12.4114   33.8585 O.2       1 SER1        0.0000 
      5 CA         57.1318    8.7704   38.7882 C.3       5 GLY6        0.0000 
      6 CA         57.2544    9.3464   37.4086 C.3       5 GLY6        0.0000 
      7 DU         57.3770    9.9224   36.0291 H         6 CUB7        0.0000 
      8 DU         57.4997   10.4984   34.6495 H         6 CUB7        0.0000 
      9 CA         57.6223   11.0745   33.2700 C.3       5 GLY6        0.0000 
     10 CA         57.7449   11.6505   31.8904 C.3       5 GLY6        0.0000 
     11 CA         56.7911    7.4334   38.1997 C.3       5 GLY6        0.0000 
     12 DU         56.9137    8.0094   36.8201 H         6 CUB7        0.0000 
     13 DU         57.0363    8.5854   35.4406 H         6 CUB7        0.0000 
     14 OG         57.1590    9.1614   34.0610 O.2       1 SER1        0.0000 
     15 CA         57.2816    9.7375   32.6815 C.3       5 GLY6        0.0000 
     16 CZ         56.5730    6.6724   36.2316 C.ar      4 PHE5        0.0000 
     17 CZ         56.6956    7.2484   34.8520 C.ar      4 PHE5        0.0000 
     18 N          56.8183    7.8244   33.4725 N.2       2 ALA2        0.0000 
     19 O          56.6028   12.9578   37.2277 O.2       2 ALA2        0.0000 
     20 O          56.7254   13.5339   35.8482 O.2       2 ALA2        0.0000 
     21 CZ         56.8480   14.1099   34.4686 C.ar      4 PHE5        0.0000 
     22 O          56.1394   11.0448   38.0187 O.2       2 ALA2        0.0000 
     23 O          56.2621   11.6209   36.6392 O.2       2 ALA2        0.0000 
     24 OG         56.3847   12.1969   35.2596 O.2       1 SER1        0.0000 
     25 OG         56.5073   12.7729   33.8801 O.2       1 SER1        0.0000 
     26 CA         55.6761    9.1318   38.8097 C.3       5 GLY6        0.0000 
     27 CZ         55.7987    9.7078   37.4302 C.ar      4 PHE5        0.0000 
     28 OG         55.9214   10.2839   36.0506 O.2       1 SER1        0.0000 
     29 OG         56.0440   10.8599   34.6711 O.2       1 SER1        0.0000 
     30 OG         56.1666   11.4359   33.2915 O.2       1 SER1        0.0000 
     31 CZ         55.3354    7.7948   38.2212 C.ar      4 PHE5        0.0000 
     32 CZ         55.4581    8.3708   36.8416 C.ar      4 PHE5        0.0000 
     33 OG         55.5807    8.9469   35.4621 O.2       1 SER1        0.0000 
     34 CZ         55.2400    7.6099   34.8735 C.ar      4 PHE5        0.0000 
     35 CA         55.1471   13.3193   37.2492 C.3       5 GLY6        0.0000 
     36 CZ         55.2698   13.8953   35.8697 C.ar      4 PHE5        0.0000 
     37 CZ         55.3924   14.4713   34.4901 C.ar      4 PHE5        0.0000 
     38 CA         54.6838   11.4063   38.0402 C.3       5 GLY6        0.0000 
     39 N          54.8064   11.9823   36.6607 N.2       2 ALA2        0.0000 
     40 OG         54.9291   12.5583   35.2811 O.2       1 SER1        0.0000 
     41 CZ         55.0517   13.1343   33.9016 C.ar      4 PHE5        0.0000 
     42 CZ         54.3431   10.0693   37.4517 C.ar      4 PHE5        0.0000 
     43 OG         54.4657   10.6453   36.0721 O.2       1 SER1        0.0000 
     44 OG         54.1250    9.3083   35.4836 O.2       1 SER1        0.0000 
     45 N          53.8141   14.2568   35.8912 N.2       2 ALA2        0.0000 
     46 CZ         53.9367   14.8328   34.5117 C.ar      4 PHE5        0.0000 
     47 N          53.4734   12.9198   35.3027 N.2       2 ALA2        0.0000 
     48 O          53.5961   13.4958   33.9231 O.2       2 ALA2        0.0000 
     49 CZ         53.0101   11.0068   36.0937 C.ar      4 PHE5        0.0000 
     50 OG         53.1327   11.5828   34.7141 O.2       1 SER1        0.0000 
     51 N          52.0178   13.2812   35.3242 N.2       2 ALA2        0.0000 
     52 NZ         52.1404   13.8572   33.9446 N.2       3 LYS4        0.0000 
     53 N          51.5545   11.3682   36.1152 N.2       2 ALA2        0.0000 
     54 OG         51.6771   11.9442   34.7356 O.2       1 SER1        0.0000 
     55 O          51.7997   12.5203   33.3561 O.2       2 ALA2        0.0000 
     56 OG         51.3364   10.6072   34.1471 O.2       1 SER1        0.0000 
     57 OG         51.4590   11.1833   32.7676 O.2       1 SER1        0.0000 
     58 N          50.5621   13.6427   35.3457 N.2       2 ALA2        0.0000 
     59 OG         50.2214   12.3057   34.7572 O.2       1 SER1        0.0000 
     60 NZ         50.3441   12.8817   33.3776 N.2       3 LYS4        0.0000 
     61 O          60.6947    4.4360   38.9261 O.2       2 ALA2        0.0000 
     62 CA         60.8173    5.0120   37.5465 C.3       5 GLY6        0.0000 
     63 CA         60.9399    5.5881   36.1670 C.3       5 GLY6        0.0000 
     64 CA         60.2313    2.5230   39.7171 C.3       5 GLY6        0.0000 
     65 O          60.3540    3.0990   38.3376 O.2       2 ALA2        0.0000 
     66 DU         60.4766    3.6750   36.9580 H         6 CUB7        0.0000 
     67 DU         60.5992    4.2511   35.5785 H         6 CUB7        0.0000 
     68 OG         59.8907    1.1860   39.1286 O.2       1 SER1        0.0000 
     69 O          60.0133    1.7620   37.7490 O.2       2 ALA2        0.0000 
     70 O          60.1359    2.3380   36.3695 O.2       2 ALA2        0.0000 
     71 O          60.0430    8.0475   38.7452 O.2       2 ALA2        0.0000 
     72 CA         60.1657    8.6235   37.3656 C.3       5 GLY6        0.0000 
     73 CA         60.2883    9.1995   35.9861 C.3       5 GLY6        0.0000 
     74 CA         60.4109    9.7755   34.6065 C.3       5 GLY6        0.0000 
     75 O          59.5797    6.1344   39.5362 O.2       2 ALA2        0.0000 
     76 O          59.7023    6.7105   38.1566 O.2       2 ALA2        0.0000 
     77 O          59.8250    7.2865   36.7771 O.2       2 ALA2        0.0000 
     78 DU         59.9476    7.8625   35.3975 H         6 CUB7        0.0000 
     79 DU         60.0702    8.4385   34.0180 H         6 CUB7        0.0000 
     80 CA         59.2390    4.7975   38.9476 C.3       5 GLY6        0.0000 
     81 CZ         59.3617    5.3735   37.5681 C.ar      4 PHE5        0.0000 
     82 CZ         59.4843    5.9495   36.1885 C.ar      4 PHE5        0.0000 
     83 DU         59.6069    6.5255   34.8090 H         6 CUB7        0.0000 
     84 OG         58.8983    3.4605   38.3591 O.2       1 SER1        0.0000 
     85 CZ         59.0210    4.0365   36.9795 C.ar      4 PHE5        0.0000 
     86 CZ         59.1436    4.6125   35.6000 C.ar      4 PHE5        0.0000 
     87 CZ         58.8029    3.2755   35.0114 C.ar      4 PHE5        0.0000 
     88 CZ         58.9255    3.8515   33.6319 C.ar      4 PHE5        0.0000 
     89 CA         59.0507   10.3219   37.9757 C.3       5 GLY6        0.0000 
     90 O          59.4186   12.0500   33.8370 O.2       2 ALA2        0.0000 
     91 OG         59.5413   12.6260   32.4575 O.2       1 SER1        0.0000 
     92 CA         58.5874    8.4089   38.7667 C.3       5 GLY6        0.0000 
     93 CA         58.7100    8.9849   37.3871 C.3       5 GLY6        0.0000 
     94 CA         58.8327    9.5610   36.0076 C.3       5 GLY6        0.0000 
     95 CA         58.9553   10.1370   34.6280 C.3       5 GLY6        0.0000 
     96 CA         59.0779   10.7130   33.2485 C.3       5 GLY6        0.0000 
     97 CA         58.2467    7.0719   38.1781 C.3       5 GLY6        0.0000 
     98 DU         58.3693    7.6479   36.7986 H         6 CUB7        0.0000 
     99 DU         58.4920    8.2240   35.4190 H         6 CUB7        0.0000 
    100 CA         58.6146    8.8000   34.0395 C.3       5 GLY6        0.0000 
    101 CZ         57.9060    5.7349   37.5896 C.ar      4 PHE5        0.0000 
    102 CZ         58.0287    6.3109   36.2100 C.ar      4 PHE5        0.0000 
    103 CZ         58.1513    6.8870   34.8305 C.ar      4 PHE5        0.0000 
    104 N          58.2739    7.4630   33.4509 N.2       2 ALA2        0.0000 
    105 CA         57.8106    5.5500   34.2420 C.3       5 GLY6        0.0000 
@<TRIPOS>BOND
@<TRIPOS>SUBSTRUCTURE
     1 SER1        4 GROUP   
     2 ALA2        2 GROUP   
     3 LYS4       52 GROUP   
     4 PHE5       16 GROUP   
     5 GLY6        1 GROUP   
     6 CUB7        7 GROUP   
@<TRIPOS>SET

