#    Name: 2b4d_COA_2_INTS_M
#    Modification time : Mon Mar 24 19:51:53 2014

@<TRIPOS>MOLECULE
2b4d_COA_2_INTS_M
   66     0     9     0     0
SMALL
NO_CHARGES


@<TRIPOS>ATOM
      1 N          59.1005    0.3790   35.7210 N.am      1 SEC2        0.0000 
      2 N          60.6180    0.0890   35.2360 N.am      7 SEL2        0.0000 
      3 N          57.5830    0.6690   36.2060 N.am      4 SEP2        0.0000 
      4 CA         58.1195    3.3320   35.3430 C.3       3 GLC5        0.0000 
      5 CA         60.0960    2.4130   35.0040 C.3       9 GLL5        0.0000 
      6 CA         56.1430    4.2510   35.6820 C.3       6 GLP5        0.0000 
      7 NZ         59.6940    1.6395   30.0605 N.4       2 LYC4        0.0000 
      8 NZ         59.8460    1.6160   31.2380 N.4       8 LYL4        0.0000 
      9 NZ         58.8970    0.8170   28.0950 N.4       5 LYP4        0.0000 
     10 N          59.6940    1.6395   30.0605 N.am      1 SEC2        0.0000 
     11 N          59.8460    1.6160   31.2380 N.am      7 SEL2        0.0000 
     12 N          59.5420    1.6630   28.8830 N.am      4 SEP2        0.0000 
     13 NZ         57.1650    0.7385   33.8840 N.4       2 LYC4        0.0000 
     14 NZ         58.4140    0.6870   33.1240 N.4       8 LYL4        0.0000 
     15 NZ         56.2880    0.7160   35.9160 N.4       5 LYP4        0.0000 
     16 N          57.1650    0.7385   33.8840 N.am      1 SEC2        0.0000 
     17 N          58.4140    0.6870   33.1240 N.am      7 SEL2        0.0000 
     18 N          55.9160    0.7900   34.6440 N.am      4 SEP2        0.0000 
     19 N          57.9985    0.6780   34.6650 N.am      1 SEC2        0.0000 
     20 CA         62.1455    5.3805   37.2325 C.3       3 GLC5        0.0000 
     21 CA         60.5220    4.5900   36.5490 C.3       9 GLL5        0.0000 
     22 CA         63.7690    6.1710   37.9160 C.3       6 GLP5        0.0000 
     23 CA         58.3325    4.4205   36.1155 C.3       3 GLC5        0.0000 
     24 N          61.3740    4.6960   40.3400 N.am      1 SEC2        0.0000 
     25 N          60.9320    5.2200   39.1440 N.am      7 SEL2        0.0000 
     26 N          61.8160    4.1720   41.5360 N.am      4 SEP2        0.0000 
     27 N          57.5565    3.9360   40.3880 N.am      1 SEC2        0.0000 
     28 N          58.8780    3.8530   39.7980 N.am      7 SEL2        0.0000 
     29 N          56.2350    4.0190   40.9780 N.am      4 SEP2        0.0000 
     30 N          58.0705    2.6810   39.7250 N.am      1 SEC2        0.0000 
     31 N          57.2630    1.5090   39.6520 N.am      4 SEP2        0.0000 
     32 N          58.0335    6.2220   40.1125 N.am      1 SEC2        0.0000 
     33 N          58.6110    5.9490   38.5060 N.am      7 SEL2        0.0000 
     34 N          57.4560    6.4950   41.7190 N.am      4 SEP2        0.0000 
     35 N          61.6360    7.5140   37.9395 N.am      1 SEC2        0.0000 
     36 N          60.2680    7.6640   37.6510 N.am      7 SEL2        0.0000 
     37 N          63.0040    7.3640   38.2280 N.am      4 SEP2        0.0000 
     38 N          58.3550    7.2215   40.8450 N.am      1 SEC2        0.0000 
     39 N          59.2540    7.9480   39.9710 N.am      7 SEL2        0.0000 
     40 CA         56.7675    6.0095   36.1280 C.3       3 GLC5        0.0000 
     41 CA         57.3920    7.7680   36.5740 C.3       9 GLL5        0.0000 
     42 CA         57.6620    9.0780   32.2995 C.3       3 GLC5        0.0000 
     43 CA         56.9190    8.4890   34.2350 C.3       9 GLL5        0.0000 
     44 CA         58.4050    9.6670   30.3640 C.3       6 GLP5        0.0000 
     45 CA         55.6065    8.4240   32.7740 C.3       3 GLC5        0.0000 
     46 CA         54.2940    8.3590   31.3130 C.3       6 GLP5        0.0000 
     47 CA         56.1855    6.7745   33.8245 C.3       3 GLC5        0.0000 
     48 CA         55.4520    5.0600   33.4140 C.3       6 GLP5        0.0000 
     49 CA         59.7615   11.0275   36.1035 C.3       3 GLC5        0.0000 
     50 CA         58.5590    9.8000   35.6600 C.3       9 GLL5        0.0000 
     51 CA         60.9640   12.2550   36.5470 C.3       6 GLP5        0.0000 
     52 CA         59.1825   12.6520   35.4765 C.3       3 GLC5        0.0000 
     53 CA         57.4010   13.0490   34.4060 C.3       9 GLL5        0.0000 
     54 CA         56.0395   15.1525   36.5050 C.3       3 GLC5        0.0000 
     55 CA         56.4290   13.9600   34.8030 C.3       9 GLL5        0.0000 
     56 CA         55.6500   16.3450   38.2070 C.3       6 GLP5        0.0000 
     57 N          54.1830   12.9545   32.1345 N.am      1 SEC2        0.0000 
     58 N          54.8410   13.0070   33.2570 N.am      7 SEL2        0.0000 
     59 N          53.5250   12.9020   31.0120 N.am      4 SEP2        0.0000 
     60 N          54.4035   11.6290   33.0050 N.am      1 SEC2        0.0000 
     61 N          53.9660   10.2510   32.7530 N.am      4 SEP2        0.0000 
     62 CA         56.8790   14.4343   33.2608 C.3       3 GLC5        0.0000 
     63 CA         56.8430   15.3640   31.9170 C.3       6 GLP5        0.0000 
     64 CA         52.2958   15.3092   35.5665 C.3       3 GLC5        0.0000 
     65 CA         52.7350   13.0330   35.1360 C.3       9 GLL5        0.0000 
     66 CA         52.2730   17.0220   36.3060 C.3       6 GLP5        0.0000 
@<TRIPOS>BOND
@<TRIPOS>SUBSTRUCTURE
     1 SEC2        1 GROUP        1 X    SEC  0     ROOT SEC X 2
     2 LYC4        7 GROUP        1 X    LYC  0     **** LYC X 4
     3 GLC5        4 GROUP        1 X    GLC  0     **** GLC X 6
     4 SEP2        3 GROUP        1 Y    SEP  0     ROOT SEP Y 9
     5 LYP4        9 GROUP        1 Y    LYP  0     **** LYP Y 11
     6 GLP5        6 GROUP        1 Y    GLP  0     **** GLP Y 13
     7 SEL2        2 GROUP        1 Z    SEL  0     ROOT SEL Z 16
     8 LYL4        8 GROUP        1 Z    LYL  0     **** LYL Z 18
     9 GLL5        5 GROUP        1 Z    GLL  0     **** GLL Z 20
@<TRIPOS>SET

