#    Name: 2b4d_COA_2_ligand
#    Modification time : Mon Mar 24 19:51:54 2014

@<TRIPOS>MOLECULE
2b4d_COA_2_ligand
   79    81     1     0     0
SMALL
NO_CHARGES


@<TRIPOS>ATOM
      1 N1A        66.1080   -0.4350   38.3140 N.ar      1 COA200      0.0000 
      2 C2A        65.8450   -0.4640   36.9980 C.ar      1 COA200      0.0000 
      3 N3A        64.7980    0.2090   36.4950 N.ar      1 COA200      0.0000 
      4 C4A        63.9860    0.9320   37.3040 C.ar      1 COA200      0.0000 
      5 C5A        64.2320    0.9860   38.6710 C.ar      1 COA200      0.0000 
      6 C6A        65.3250    0.2700   39.1720 C.ar      1 COA200      0.0000 
      7 N6A        65.5670    0.2260   40.4840 N.pl3     1 COA200      0.0000 
      8 N7A        63.2930    1.7560   39.2240 N.2       1 COA200      0.0000 
      9 C8A        62.4800    2.1750   38.2420 C.2       1 COA200      0.0000 
     10 N9A        62.9060    1.6600   37.0660 N.pl3     1 COA200      0.0000 
     11 C1B        62.2620    1.8080   35.7320 C.3       1 COA200      0.0000 
     12 C2B        60.7930    1.3750   35.8230 C.3       1 COA200      0.0000 
     13 O2B        60.6180    0.0890   35.2360 O.3       1 COA200      0.0000 
     14 C3B        60.0960    2.4130   35.0040 C.3       1 COA200      0.0000 
     15 O3B        60.3820    2.1420   33.6310 O.3       1 COA200      0.0000 
     16 P3B        59.2190    1.7950   32.5690 P.3       1 COA200      0.0000 
     17 O7A        58.3150    3.1190   32.5340 O.co2     1 COA200      0.0000 
     18 O8A        59.8460    1.6160   31.2380 O.co2     1 COA200      0.0000 
     19 O9A        58.4140    0.6870   33.1240 O.co2     1 COA200      0.0000 
     20 C4B        60.9140    3.6240   35.4540 C.3       1 COA200      0.0000 
     21 O4B        62.2070    3.2170   35.2740 O.3       1 COA200      0.0000 
     22 C5B        60.5220    4.5900   36.5490 C.3       1 COA200      0.0000 
     23 O5B        59.6700    3.9130   37.4470 O.3       1 COA200      0.0000 
     24 P1A        59.5750    4.7040   38.8170 P.3       1 COA200      0.0000 
     25 O1A        60.9320    5.2200   39.1440 O.co2     1 COA200      0.0000 
     26 O2A        58.8780    3.8530   39.7980 O.co2     1 COA200      0.0000 
     27 O3A        58.6110    5.9490   38.5060 O.3       1 COA200      0.0000 
     28 P2A        59.1250    7.4770   38.5720 P.3       1 COA200      0.0000 
     29 O4A        60.2680    7.6640   37.6510 O.co2     1 COA200      0.0000 
     30 O5A        59.2540    7.9480   39.9710 O.co2     1 COA200      0.0000 
     31 O6A        57.8180    8.1890   37.8810 O.3       1 COA200      0.0000 
     32 CBP        57.2340    8.9840   35.6540 C.3       1 COA200      0.0000 
     33 CCP        57.3920    7.7680   36.5740 C.3       1 COA200      0.0000 
     34 CDP        56.0620    9.8410   36.1620 C.3       1 COA200      0.0000 
     35 CEP        56.9190    8.4890   34.2350 C.3       1 COA200      0.0000 
     36 CAP        58.5590    9.8000   35.6600 C.3       1 COA200      0.0000 
     37 OAP        58.8510   10.2270   36.9950 O.3       1 COA200      0.0000 
     38 C9P        58.4890   11.0370   34.7440 C.2       1 COA200      0.0000 
     39 O9P        59.2390   11.1480   33.7730 O.2       1 COA200      0.0000 
     40 N8P        57.5720   11.9380   35.0970 N.am      1 COA200      0.0000 
     41 C7P        57.4010   13.0490   34.4060 C.3       1 COA200      0.0000 
     42 C6P        56.4290   13.9600   34.8030 C.3       1 COA200      0.0000 
     43 C5P        55.0470   13.4370   34.3940 C.2       1 COA200      0.0000 
     44 O5P        54.8410   13.0070   33.2570 O.2       1 COA200      0.0000 
     45 N4P        54.1180   13.4950   35.3500 N.am      1 COA200      0.0000 
     46 C3P        52.7350   13.0330   35.1360 C.3       1 COA200      0.0000 
     47 C2P        51.9020   14.1600   34.5180 C.3       1 COA200      0.0000 
     48 S1P        50.1970   13.4960   34.3660 S.3       1 COA200      0.0000 
     49 H          66.4631   -1.0175   36.3569 H         1 COA200      0.0000 
     50 H          64.9784    0.7940   41.0593 H         1 COA200      0.0000 
     51 H          66.3151   -0.3710   40.7737 H         1 COA200      0.0000 
     52 H          61.7090    2.7543   38.3516 H         1 COA200      0.0000 
     53 H          62.7348    1.2001   35.0001 H         1 COA200      0.0000 
     54 H          60.4857    1.4454   36.8210 H         1 COA200      0.0000 
     55 H          59.1354    2.5119   35.2719 H         1 COA200      0.0000 
     56 H          60.7580    4.3241   34.4231 H         1 COA200      0.0000 
     57 H          60.0307    5.4483   36.0830 H         1 COA200      0.0000 
     58 H          61.4368    4.9406   37.0343 H         1 COA200      0.0000 
     59 H          56.4270    7.2500   36.6119 H         1 COA200      0.0000 
     60 H          58.1194    7.0913   36.1114 H         1 COA200      0.0000 
     61 H          59.3446    9.1525   35.2870 H         1 COA200      0.0000 
     62 H          56.9723   11.7529   35.9493 H         1 COA200      0.0000 
     63 H          57.2197   12.8049   33.2812 H         1 COA200      0.0000 
     64 H          58.4084   13.6261   34.3073 H         1 COA200      0.0000 
     65 H          56.5519   14.9462   34.3341 H         1 COA200      0.0000 
     66 H          56.4066   14.1126   35.8910 H         1 COA200      0.0000 
     67 H          54.3192   13.8705   36.3016 H         1 COA200      0.0000 
     68 H          52.2745   12.7429   36.0806 H         1 COA200      0.0000 
     69 H          52.7139   12.1786   34.4593 H         1 COA200      0.0000 
     70 H          52.1414   14.3719   33.5261 H         1 COA200      0.0000 
     71 H          51.7605   14.9790   35.1467 H         1 COA200      0.0000 
     72 H          56.2146   10.1622   37.0966 H         1 COA200      0.0000 
     73 H          55.9203   10.6511   35.5931 H         1 COA200      0.0000 
     74 H          55.2022    9.3304   36.1643 H         1 COA200      0.0000 
     75 H          57.6492    7.9094   33.8732 H         1 COA200      0.0000 
     76 H          56.0768    7.9506   34.2079 H         1 COA200      0.0000 
     77 H          56.8025    9.2479   33.5943 H         1 COA200      0.0000 
     78 H          59.9099    0.2159   34.5414 H         1 COA200      0.0000 
     79 H          59.4093    9.4945   37.3846 H         1 COA200      0.0000 
@<TRIPOS>BOND
     1    2    1 ar   
     2    6    1 ar   
     3    3    2 ar   
     4   49    2 1    
     5    4    3 ar   
     6    5    4 ar   
     7   10    4 1    
     8    6    5 ar   
     9    8    5 1    
    10    7    6 1    
    11   50    7 1    
    12   51    7 1    
    13    9    8 2    
    14   10    9 1    
    15   52    9 1    
    16   11   10 1    
    17   12   11 1    
    18   21   11 1    
    19   53   11 1    
    20   13   12 1    
    21   14   12 1    
    22   54   12 1    
    23   78   13 1    
    24   15   14 1    
    25   20   14 1    
    26   55   14 1    
    27   16   15 1    
    28   17   16 ar   
    29   18   16 ar   
    30   19   16 ar   
    31   21   20 1    
    32   22   20 1    
    33   56   20 1    
    34   23   22 1    
    35   57   22 1    
    36   58   22 1    
    37   24   23 1    
    38   25   24 ar   
    39   26   24 ar   
    40   27   24 1    
    41   28   27 1    
    42   29   28 ar   
    43   30   28 ar   
    44   31   28 1    
    45   33   31 1    
    46   33   32 1    
    47   34   32 1    
    48   35   32 1    
    49   36   32 1    
    50   59   33 1    
    51   60   33 1    
    52   72   34 1    
    53   73   34 1    
    54   74   34 1    
    55   75   35 1    
    56   76   35 1    
    57   77   35 1    
    58   37   36 1    
    59   38   36 1    
    60   61   36 1    
    61   79   37 1    
    62   39   38 2    
    63   40   38 am   
    64   41   40 1    
    65   62   40 1    
    66   42   41 1    
    67   63   41 1    
    68   64   41 1    
    69   43   42 1    
    70   65   42 1    
    71   66   42 1    
    72   44   43 2    
    73   45   43 am   
    74   46   45 1    
    75   67   45 1    
    76   47   46 1    
    77   68   46 1    
    78   69   46 1    
    79   48   47 1    
    80   70   47 1    
    81   71   47 1    
@<TRIPOS>SUBSTRUCTURE
     1 COA200      1 GROUP   
@<TRIPOS>SET

