#    Name: 4e0f_RBF_1_INTS_M
#    Modification time : Tue Mar 25 10:27:42 2014

@<TRIPOS>MOLECULE
4e0f_RBF_1_INTS_M
   49     0     9     0     0
SMALL
NO_CHARGES


@<TRIPOS>ATOM
      1 N         -16.0345    9.6255   31.0560 N.am      2 SEC2        0.0000 
      2 N         -14.8120    8.8440   31.0470 N.am      8 SEL2        0.0000 
      3 N         -17.2570   10.4070   31.0650 N.am      5 SEP2        0.0000 
      4 O         -15.6645    7.0115   32.8665 O.2       1 ALC1        0.0000 
      5 O         -14.4080    7.2980   32.6160 O.2       7 ALL1        0.0000 
      6 O         -16.9210    6.7250   33.1170 O.2       4 ALP1        0.0000 
      7 N         -13.7415    4.3275   34.1855 N.am      2 SEC2        0.0000 
      8 N         -14.0050    5.7370   34.1970 N.am      8 SEL2        0.0000 
      9 N         -13.4780    2.9180   34.1740 N.am      5 SEP2        0.0000 
     10 N         -11.3760    4.8080   34.7080 N.am      2 SEC2        0.0000 
     11 N         -11.2630    5.6030   33.4520 N.am      8 SEL2        0.0000 
     12 N         -11.4890    4.0130   35.9640 N.am      5 SEP2        0.0000 
     13 CA        -11.5720    4.2340   32.4090 C.3       3 GLC5        0.0000 
     14 CA         -9.9680    5.5810   33.0540 C.3       9 GLL5        0.0000 
     15 CA        -13.1760    2.8870   31.7640 C.3       6 GLP5        0.0000 
     16 CA         -7.7185    1.7770   33.9885 C.3       3 GLC5        0.0000 
     17 CA         -6.7940    3.7510   34.0380 C.3       9 GLL5        0.0000 
     18 CA         -8.6430   -0.1970   33.9390 C.3       6 GLP5        0.0000 
     19 CA         -4.9145    3.0275   34.1945 C.3       3 GLC5        0.0000 
     20 CA         -3.0350    2.3040   34.3510 C.3       6 GLP5        0.0000 
     21 CA        -11.8800    6.4030   27.6765 C.3       3 GLC5        0.0000 
     22 CA        -10.5730    7.6630   28.8610 C.3       9 GLL5        0.0000 
     23 CA        -13.1870    5.1430   26.4920 C.3       6 GLP5        0.0000 
     24 O         -10.6585    5.3670   29.4300 O.2       1 ALC1        0.0000 
     25 O         -10.0250    6.3630   28.5980 O.2       7 ALL1        0.0000 
     26 O         -11.2920    4.3710   30.2620 O.2       4 ALP1        0.0000 
     27 CA        -12.0020    6.6430   26.4300 C.3       3 GLC5        0.0000 
     28 CA        -10.8170    8.1430   26.3680 C.3       9 GLL5        0.0000 
     29 N          -9.1475    6.8165   24.7200 N.am      2 SEC2        0.0000 
     30 N         -10.2120    6.8980   25.9880 N.am      8 SEL2        0.0000 
     31 N          -8.0830    6.7350   23.4520 N.am      5 SEP2        0.0000 
     32 CA        -10.5100   10.9625   24.0780 C.3       3 GLC5        0.0000 
     33 CA        -10.5660    9.1730   25.2710 C.3       9 GLL5        0.0000 
     34 CA        -10.4540   12.7520   22.8850 C.3       6 GLP5        0.0000 
     35 O          -8.9360    9.2385   23.6835 O.2       1 ALC1        0.0000 
     36 O          -9.1690    9.2050   24.9540 O.2       7 ALL1        0.0000 
     37 O          -8.7030    9.2720   22.4130 O.2       4 ALP1        0.0000 
     38 CA         -9.0518    3.6770   32.2682 C.3       3 GLC5        0.0000 
     39 CA         -8.5830    2.1980   31.1590 C.3       6 GLP5        0.0000 
     40 CA         -7.9238    3.2083   32.4180 C.3       3 GLC5        0.0000 
     41 CA         -7.7350    4.6860   33.3160 C.3       9 GLL5        0.0000 
     42 CA         -7.5627    3.8710   31.5682 C.3       3 GLC5        0.0000 
     43 CA         -7.2620    5.5560   32.1970 C.3       9 GLL5        0.0000 
     44 CA         -8.7040    4.3160   31.4500 C.3       3 GLC5        0.0000 
     45 CA         -8.1540    6.4100   31.5480 C.3       9 GLL5        0.0000 
     46 CA        -12.2888    8.2095   24.6938 C.3       3 GLC5        0.0000 
     47 CA        -13.8860    7.7610   23.5680 C.3       6 GLP5        0.0000 
     48 CA        -10.8522    7.9125   23.9497 C.3       3 GLC5        0.0000 
     49 CA        -11.0130    7.1670   22.0800 C.3       6 GLP5        0.0000 
@<TRIPOS>BOND
@<TRIPOS>SUBSTRUCTURE
     1 ALC1        4 GROUP        1 X    ALC  0     ROOT ALC X 1
     2 SEC2        1 GROUP        1 X    SEC  0     **** SEC X 2
     3 GLC5       13 GROUP        1 X    GLC  0     **** GLC X 6
     4 ALP1        6 GROUP        1 Y    ALP  0     ROOT ALP Y 8
     5 SEP2        3 GROUP        1 Y    SEP  0     **** SEP Y 9
     6 GLP5       15 GROUP        1 Y    GLP  0     **** GLP Y 13
     7 ALL1        5 GROUP        1 Z    ALL  0     ROOT ALL Z 15
     8 SEL2        2 GROUP        1 Z    SEL  0     **** SEL Z 16
     9 GLL5       14 GROUP        1 Z    GLL  0     **** GLL Z 20
@<TRIPOS>SET

