#    Name: 4e0f_RBF_1_ligand
#    Modification time : Tue Mar 25 10:27:42 2014

@<TRIPOS>MOLECULE
4e0f_RBF_1_ligand
   47    49     1     0     0
SMALL
NO_CHARGES


@<TRIPOS>ATOM
      1 N1        -12.7070    8.1030   31.1750 N.2       1 RBF301      0.0000 
      2 C2        -13.9920    8.0890   31.6070 C.2       1 RBF301      0.0000 
      3 O2        -14.8120    8.8440   31.0470 O.2       1 RBF301      0.0000 
      4 N3        -14.4080    7.2980   32.6160 N.am      1 RBF301      0.0000 
      5 C4        -13.5850    6.4600   33.2680 C.2       1 RBF301      0.0000 
      6 O4        -14.0050    5.7370   34.1970 O.2       1 RBF301      0.0000 
      7 C4A       -12.1610    6.4160   32.8520 C.2       1 RBF301      0.0000 
      8 N5        -11.2630    5.6030   33.4520 N.2       1 RBF301      0.0000 
      9 C5A        -9.9680    5.5810   33.0540 C.ar      1 RBF301      0.0000 
     10 C6         -9.0730    4.7310   33.7010 C.ar      1 RBF301      0.0000 
     11 C7         -7.7350    4.6860   33.3160 C.ar      1 RBF301      0.0000 
     12 C7M        -6.7940    3.7510   34.0380 C.3       1 RBF301      0.0000 
     13 C8         -7.2620    5.5560   32.1970 C.ar      1 RBF301      0.0000 
     14 C8M        -5.8230    5.5320   31.7580 C.3       1 RBF301      0.0000 
     15 C9         -8.1540    6.4100   31.5480 C.ar      1 RBF301      0.0000 
     16 C9A        -9.4960    6.4580   31.9340 C.ar      1 RBF301      0.0000 
     17 N10       -10.4250    7.3170   31.2900 N.pl3     1 RBF301      0.0000 
     18 C10       -11.7630    7.3120   31.7360 C.2       1 RBF301      0.0000 
     19 C1'       -10.0230    8.1970   30.1850 C.3       1 RBF301      0.0000 
     20 C2'       -10.5730    7.6630   28.8610 C.3       1 RBF301      0.0000 
     21 O2'       -10.0250    6.3630   28.5980 O.3       1 RBF301      0.0000 
     22 C3'       -10.2620    8.6210   27.7120 C.3       1 RBF301      0.0000 
     23 O3'       -10.8080    9.9120   28.0160 O.3       1 RBF301      0.0000 
     24 C4'       -10.8170    8.1430   26.3680 C.3       1 RBF301      0.0000 
     25 O4'       -10.2120    6.8980   25.9880 O.3       1 RBF301      0.0000 
     26 C5'       -10.5660    9.1730   25.2710 C.3       1 RBF301      0.0000 
     27 O5'        -9.1690    9.2050   24.9540 O.3       1 RBF301      0.0000 
     28 H         -15.4285    7.3404   32.9060 H         1 RBF301      0.0000 
     29 H          -9.4042    4.1305   34.4711 H         1 RBF301      0.0000 
     30 H          -7.8222    7.0092   30.7794 H         1 RBF301      0.0000 
     31 H          -8.9347    8.2506   30.1083 H         1 RBF301      0.0000 
     32 H         -10.4086    9.2080   30.3344 H         1 RBF301      0.0000 
     33 H         -11.6581    7.6029   28.9586 H         1 RBF301      0.0000 
     34 H          -9.1776    8.6919   27.6193 H         1 RBF301      0.0000 
     35 H         -11.8924    8.0253   26.4720 H         1 RBF301      0.0000 
     36 H         -10.9204   10.1437   25.6331 H         1 RBF301      0.0000 
     37 H         -11.1710    8.8938   24.4022 H         1 RBF301      0.0000 
     38 H          -5.8648    3.8038   33.6722 H         1 RBF301      0.0000 
     39 H          -6.7372    3.9618   35.0139 H         1 RBF301      0.0000 
     40 H          -7.0858    2.7977   33.9606 H         1 RBF301      0.0000 
     41 H          -5.2043    5.7942   32.4986 H         1 RBF301      0.0000 
     42 H          -5.5435    4.6223   31.4509 H         1 RBF301      0.0000 
     43 H          -5.6556    6.1617   30.9994 H         1 RBF301      0.0000 
     44 H         -10.3068    5.8013   29.3759 H         1 RBF301      0.0000 
     45 H         -10.0458   10.4305   28.4036 H         1 RBF301      0.0000 
     46 H          -9.9794    6.4494   26.8509 H         1 RBF301      0.0000 
     47 H          -9.1136    9.6816   24.0767 H         1 RBF301      0.0000 
@<TRIPOS>BOND
     1    2    1 1    
     2   18    1 2    
     3    3    2 2    
     4    4    2 am   
     5    5    4 am   
     6   28    4 1    
     7    6    5 2    
     8    7    5 1    
     9    8    7 2    
    10   18    7 1    
    11    9    8 1    
    12   10    9 ar   
    13   16    9 ar   
    14   11   10 ar   
    15   29   10 1    
    16   12   11 1    
    17   13   11 ar   
    18   38   12 1    
    19   39   12 1    
    20   40   12 1    
    21   14   13 1    
    22   15   13 ar   
    23   41   14 1    
    24   42   14 1    
    25   43   14 1    
    26   16   15 ar   
    27   30   15 1    
    28   17   16 1    
    29   18   17 1    
    30   19   17 1    
    31   20   19 1    
    32   31   19 1    
    33   32   19 1    
    34   21   20 1    
    35   22   20 1    
    36   33   20 1    
    37   44   21 1    
    38   23   22 1    
    39   24   22 1    
    40   34   22 1    
    41   45   23 1    
    42   25   24 1    
    43   26   24 1    
    44   35   24 1    
    45   46   25 1    
    46   27   26 1    
    47   36   26 1    
    48   37   26 1    
    49   47   27 1    
@<TRIPOS>SUBSTRUCTURE
     1 RBF301      1 GROUP   
@<TRIPOS>SET

