#    Name: 3nwy_GTP_2_INTS_M
#    Modification time : Tue Mar 25 02:51:32 2014

@<TRIPOS>MOLECULE
3nwy_GTP_2_INTS_M
   59     0    12     0     0
SMALL
NO_CHARGES


@<TRIPOS>ATOM
      1 NZ         82.3900   27.5025   58.2070 N.4       3 LYC4        0.0000 
      2 NZ         83.8400   28.6220   57.9110 N.4      11 LYL4        0.0000 
      3 NZ         80.9400   26.3830   58.5030 N.4       7 LYP4        0.0000 
      4 N          85.0970   31.8250   60.1810 N.am      2 SEC2        0.0000 
      5 N          84.4770   30.6130   59.2840 N.am     10 SEL2        0.0000 
      6 N          85.7170   33.0370   61.0780 N.am      6 SEP2        0.0000 
      7 NZ         81.6825   27.8195   59.1550 N.4       3 LYC4        0.0000 
      8 NZ         82.4250   29.2560   59.8070 N.4      11 LYL4        0.0000 
      9 N          81.6825   27.8195   59.1550 N.am      2 SEC2        0.0000 
     10 N          82.4250   29.2560   59.8070 N.am     10 SEL2        0.0000 
     11 N          80.9400   26.3830   58.5030 N.am      6 SEP2        0.0000 
     12 NZ         79.5465   31.7140   57.1060 N.4       3 LYC4        0.0000 
     13 NZ         80.4490   30.7580   56.2420 N.4      11 LYL4        0.0000 
     14 NZ         77.7950   32.5260   56.9570 N.4       7 LYP4        0.0000 
     15 NZ         79.4505   30.1130   57.6865 N.4       3 LYC4        0.0000 
     16 NZ         78.4520   29.4680   59.1310 N.4       7 LYP4        0.0000 
     17 N          79.2970   31.2770   56.0705 N.am      2 SEC2        0.0000 
     18 N          80.4490   30.7580   56.2420 N.am     10 SEL2        0.0000 
     19 N          78.1450   31.7960   55.8990 N.am      6 SEP2        0.0000 
     20 N          79.5465   31.7140   57.1060 N.am      2 SEC2        0.0000 
     21 N          78.6440   32.6700   57.9700 N.am      6 SEP2        0.0000 
     22 NZ         81.3990   27.5290   57.4235 N.4       3 LYC4        0.0000 
     23 NZ         81.8580   28.6750   56.3440 N.4      11 LYL4        0.0000 
     24 N          80.5345   28.8975   57.2205 N.am      2 SEC2        0.0000 
     25 N          81.8580   28.6750   56.3440 N.am     10 SEL2        0.0000 
     26 N          79.2110   29.1200   58.0970 N.am      6 SEP2        0.0000 
     27 NZ         80.9660   30.2605   52.9610 N.4       3 LYC4        0.0000 
     28 NZ         81.6080   32.0560   53.5380 N.4      11 LYL4        0.0000 
     29 NZ         80.3240   28.4650   52.3840 N.4       7 LYP4        0.0000 
     30 N          85.3220   32.1785   53.2900 N.am      2 SEC2        0.0000 
     31 N          83.9640   32.6820   54.2070 N.am     10 SEL2        0.0000 
     32 N          86.6800   31.6750   52.3730 N.am      6 SEP2        0.0000 
     33 CA         83.6150   35.7700   54.7140 C.3       4 GLC5        0.0000 
     34 CA         82.1790   34.4960   55.8650 C.3      12 GLL5        0.0000 
     35 CA         85.0510   37.0440   53.5630 C.3       8 GLP5        0.0000 
     36 CA         83.8870   34.6760   57.0855 C.3       4 GLC5        0.0000 
     37 CA         85.5950   34.8560   58.3060 C.3       8 GLP5        0.0000 
     38 CA         77.4310   33.7325   54.9535 C.3       4 GLC5        0.0000 
     39 CA         79.2580   34.4530   53.9430 C.3      12 GLL5        0.0000 
     40 CA         75.6040   33.0120   55.9640 C.3       8 GLP5        0.0000 
     41 O          77.6935   33.0145   53.1890 O.2       1 ALC1        0.0000 
     42 O          77.8690   34.6320   53.7510 O.2       9 ALL1        0.0000 
     43 O          77.5180   31.3970   52.6270 O.2       5 ALP1        0.0000 
     44 CA         80.5905   37.1650   53.5850 C.3       4 GLC5        0.0000 
     45 CA         80.1280   35.3230   53.0350 C.3      12 GLL5        0.0000 
     46 CA         81.0530   39.0070   54.1350 C.3       8 GLP5        0.0000 
     47 O          78.2765   36.9040   46.9670 O.2       1 ALC1        0.0000 
     48 O          78.6390   36.0090   48.0290 O.2       9 ALL1        0.0000 
     49 O          77.9140   37.7990   45.9050 O.2       5 ALP1        0.0000 
     50 O          77.8160   37.8875   47.4040 O.2       1 ALC1        0.0000 
     51 O          77.7180   37.9760   48.9030 O.2       9 ALL1        0.0000 
     52 CA         80.7512   37.0697   54.6698 C.3       4 GLC5        0.0000 
     53 CA         81.1690   35.3570   55.1040 C.3      12 GLL5        0.0000 
     54 CA         78.2175   33.7190   50.3237 C.3       4 GLC5        0.0000 
     55 CA         79.5750   35.3640   50.5550 C.3      12 GLL5        0.0000 
     56 CA         76.7390   32.4950   50.6340 C.3       8 GLP5        0.0000 
     57 CA         81.3155   35.4085   48.9408 C.3       4 GLC5        0.0000 
     58 CA         79.8170   34.5220   49.4720 C.3      12 GLL5        0.0000 
     59 CA         82.9350   35.8740   47.8680 C.3       8 GLP5        0.0000 
@<TRIPOS>BOND
@<TRIPOS>SUBSTRUCTURE
     1 ALC1       41 GROUP        1 X    ALC  0     ROOT ALC X 1
     2 SEC2        4 GROUP        1 X    SEC  0     **** SEC X 2
     3 LYC4        1 GROUP        1 X    LYC  0     **** LYC X 4
     4 GLC5       33 GROUP        1 X    GLC  0     **** GLC X 6
     5 ALP1       43 GROUP        1 Y    ALP  0     ROOT ALP Y 8
     6 SEP2        6 GROUP        1 Y    SEP  0     **** SEP Y 9
     7 LYP4        3 GROUP        1 Y    LYP  0     **** LYP Y 11
     8 GLP5       35 GROUP        1 Y    GLP  0     **** GLP Y 13
     9 ALL1       42 GROUP        1 Z    ALL  0     ROOT ALL Z 15
    10 SEL2        5 GROUP        1 Z    SEL  0     **** SEL Z 16
    11 LYL4        2 GROUP        1 Z    LYL  0     **** LYL Z 18
    12 GLL5       34 GROUP        1 Z    GLL  0     **** GLL Z 20
@<TRIPOS>SET

