#    Name: 3nwy_GTP_2_ligand
#    Modification time : Tue Mar 25 02:51:32 2014

@<TRIPOS>MOLECULE
3nwy_GTP_2_ligand
   44    46     1     0     0
SMALL
NO_CHARGES


@<TRIPOS>ATOM
      1 PG         83.3270   29.7960   58.7150 P.3       1 GTP262      0.0000 
      2 O1G        83.8400   28.6220   57.9110 O.co2     1 GTP262      0.0000 
      3 O2G        84.4770   30.6130   59.2840 O.co2     1 GTP262      0.0000 
      4 O3G        82.4250   29.2560   59.8070 O.co2     1 GTP262      0.0000 
      5 O3B        82.4890   30.7640   57.7490 O.3       1 GTP262      0.0000 
      6 PB         81.8360   30.1850   56.4080 P.3       1 GTP262      0.0000 
      7 O1B        80.4490   30.7580   56.2420 O.co2     1 GTP262      0.0000 
      8 O2B        81.8580   28.6750   56.3440 O.co2     1 GTP262      0.0000 
      9 O3A        82.7910   30.7180   55.2540 O.3       1 GTP262      0.0000 
     10 PA         82.5980   32.1940   54.6620 P.3       1 GTP262      0.0000 
     11 O1A        81.6080   32.0560   53.5380 O.co2     1 GTP262      0.0000 
     12 O2A        83.9640   32.6820   54.2070 O.co2     1 GTP262      0.0000 
     13 O5'        81.9050   33.1120   55.8040 O.3       1 GTP262      0.0000 
     14 C5'        82.1790   34.4960   55.8650 C.3       1 GTP262      0.0000 
     15 C4'        81.1690   35.3570   55.1040 C.3       1 GTP262      0.0000 
     16 O4'        81.3880   35.3770   53.6970 O.3       1 GTP262      0.0000 
     17 C3'        79.7300   34.9080   55.3050 C.3       1 GTP262      0.0000 
     18 O3'        78.9810   36.0120   55.7290 O.3       1 GTP262      0.0000 
     19 C2'        79.2580   34.4530   53.9430 C.3       1 GTP262      0.0000 
     20 O2'        77.8690   34.6320   53.7510 O.3       1 GTP262      0.0000 
     21 C1'        80.1280   35.3230   53.0350 C.3       1 GTP262      0.0000 
     22 N9         80.1570   34.7820   51.6540 N.pl3     1 GTP262      0.0000 
     23 C8         80.7230   33.6090   51.2360 C.2       1 GTP262      0.0000 
     24 N7         80.5140   33.4620   49.9120 N.2       1 GTP262      0.0000 
     25 C5         79.8170   34.5220   49.4720 C.2       1 GTP262      0.0000 
     26 C6         79.3390   34.8460   48.2110 C.2       1 GTP262      0.0000 
     27 O6         79.5470   34.1070   47.2670 O.2       1 GTP262      0.0000 
     28 N1         78.6390   36.0090   48.0290 N.am      1 GTP262      0.0000 
     29 C2         78.4050   36.8470   49.1080 C.2       1 GTP262      0.0000 
     30 N2         77.7180   37.9760   48.9030 N.pl3     1 GTP262      0.0000 
     31 N3         78.8730   36.5140   50.3780 N.2       1 GTP262      0.0000 
     32 C4         79.5750   35.3640   50.5550 C.2       1 GTP262      0.0000 
     33 H          83.1868   34.7347   55.4528 H         1 GTP262      0.0000 
     34 H          82.1964   34.8663   56.9163 H         1 GTP262      0.0000 
     35 H          81.2327   36.3846   55.4986 H         1 GTP262      0.0000 
     36 H          79.7191   34.0945   55.9711 H         1 GTP262      0.0000 
     37 H          79.5939   33.4384   53.8153 H         1 GTP262      0.0000 
     38 H          79.6617   36.3119   53.0376 H         1 GTP262      0.0000 
     39 H          81.1966   32.9896   51.8090 H         1 GTP262      0.0000 
     40 H          78.2844   36.2668   47.0961 H         1 GTP262      0.0000 
     41 H          77.5753   38.5561   49.7050 H         1 GTP262      0.0000 
     42 H          77.4087   38.1389   47.9661 H         1 GTP262      0.0000 
     43 H          78.2707   36.1250   55.0342 H         1 GTP262      0.0000 
     44 H          77.4656   33.7341   53.9274 H         1 GTP262      0.0000 
@<TRIPOS>BOND
     1    2    1 ar   
     2    3    1 ar   
     3    4    1 ar   
     4    5    1 1    
     5    6    5 1    
     6    7    6 ar   
     7    8    6 ar   
     8    9    6 1    
     9   10    9 1    
    10   11   10 ar   
    11   12   10 ar   
    12   13   10 1    
    13   14   13 1    
    14   15   14 1    
    15   33   14 1    
    16   34   14 1    
    17   16   15 1    
    18   17   15 1    
    19   35   15 1    
    20   21   16 1    
    21   18   17 1    
    22   19   17 1    
    23   36   17 1    
    24   43   18 1    
    25   20   19 1    
    26   21   19 1    
    27   37   19 1    
    28   44   20 1    
    29   22   21 1    
    30   38   21 1    
    31   23   22 1    
    32   32   22 1    
    33   24   23 2    
    34   39   23 1    
    35   25   24 1    
    36   26   25 1    
    37   32   25 2    
    38   27   26 2    
    39   28   26 am   
    40   29   28 1    
    41   40   28 1    
    42   30   29 1    
    43   31   29 2    
    44   41   30 1    
    45   42   30 1    
    46   32   31 1    
@<TRIPOS>SUBSTRUCTURE
     1 GTP262      1 GROUP   
@<TRIPOS>SET

