#    Name: 4ks7_X4Z_1_INTS_M
#    Modification time : Tue Mar 25 08:51:57 2014

@<TRIPOS>MOLECULE
4ks7_X4Z_1_INTS_M
   80     0    12     0     0
SMALL
NO_CHARGES


@<TRIPOS>ATOM
      1 CA         29.5525   40.2000   30.3540 C.3       4 GLC5        0.0000 
      2 CA         30.4980   40.2870   28.5460 C.3      12 GLL5        0.0000 
      3 CA         28.6070   40.1130   32.1620 C.3       8 GLP5        0.0000 
      4 CA         32.2265   37.1890   29.5470 C.3       4 GLC5        0.0000 
      5 CA         31.4460   38.2010   27.7290 C.3      12 GLL5        0.0000 
      6 CA         33.0070   36.1770   31.3650 C.3       8 GLP5        0.0000 
      7 CA         31.5400   39.9275   26.3625 C.3       4 GLC5        0.0000 
      8 CA         31.6340   41.6540   24.9960 C.3       8 GLP5        0.0000 
      9 O          27.0190   39.3310   25.9360 O.2       1 ALC1        0.0000 
     10 O          27.9680   38.5520   26.7290 O.2       9 ALL1        0.0000 
     11 O          26.0700   40.1100   25.1430 O.2       5 ALP1        0.0000 
     12 N          27.2890   41.3230   27.6165 N.am      2 SEC2        0.0000 
     13 N          28.3730   40.4910   27.9350 N.am     10 SEL2        0.0000 
     14 N          26.2050   42.1550   27.2980 N.am      6 SEP2        0.0000 
     15 CA         32.2810   43.8910   28.5860 C.3       4 GLC5        0.0000 
     16 CA         32.5670   41.6710   28.6290 C.3      12 GLL5        0.0000 
     17 CA         31.9950   46.1110   28.5430 C.3       8 GLP5        0.0000 
     18 CA         33.1200   42.6385   30.1055 C.3       4 GLC5        0.0000 
     19 CA         33.6730   43.6060   31.5820 C.3       8 GLP5        0.0000 
     20 CA         32.4760   38.1555   30.9525 C.3       4 GLC5        0.0000 
     21 CA         31.9450   40.1340   30.5400 C.3      12 GLL5        0.0000 
     22 CA         30.2760   40.1235   31.3510 C.3       4 GLC5        0.0000 
     23 CA         33.4070   39.7900   31.8015 C.3       4 GLC5        0.0000 
     24 CA         34.8690   39.4460   33.0630 C.3       8 GLP5        0.0000 
     25 CA         32.1925   41.6525   31.6620 C.3       4 GLC5        0.0000 
     26 CA         32.4400   43.1710   32.7840 C.3       8 GLP5        0.0000 
     27 CA         27.5770   36.1720   28.3550 C.3       4 GLC5        0.0000 
     28 CA         28.1460   37.2380   26.4700 C.3      12 GLL5        0.0000 
     29 CA         27.0080   35.1060   30.2400 C.3       8 GLP5        0.0000 
     30 CA         24.6855   38.4715   24.6050 C.3       4 GLC5        0.0000 
     31 CA         25.9760   37.0570   24.6600 C.3      12 GLL5        0.0000 
     32 CA         23.3950   39.8860   24.5500 C.3       8 GLP5        0.0000 
     33 CA         28.0900   35.1510   28.7105 C.3       4 GLC5        0.0000 
     34 CA         29.1720   35.1960   27.1810 C.3      12 GLL5        0.0000 
     35 CA         28.9710   34.2370   29.4790 C.3       4 GLC5        0.0000 
     36 CA         30.2410   34.4970   27.9720 C.3      12 GLL5        0.0000 
     37 CA         27.7010   33.9770   30.9860 C.3       8 GLP5        0.0000 
     38 CA         30.8030   32.7685   28.9165 C.3       4 GLC5        0.0000 
     39 CA         31.3650   31.0400   29.8610 C.3       8 GLP5        0.0000 
     40 CA         30.4190   35.3815   29.8785 C.3       4 GLC5        0.0000 
     41 CA         30.5970   36.2660   31.7850 C.3       8 GLP5        0.0000 
     42 OD1        36.8020   38.8210   25.7395 O.co2     3 ASC3        0.0000 
     43 OD1        36.1850   37.5520   25.1470 O.co2    11 ASL3        0.0000 
     44 OD1        37.4190   40.0900   26.3320 O.co2     7 ASP3        0.0000 
     45 OD1        37.2240   38.3795   24.8455 O.co2     3 ASC3        0.0000 
     46 OD1        38.2630   39.2070   24.5440 O.co2     7 ASP3        0.0000 
     47 O          36.8020   38.8210   25.7395 O.2       1 ALC1        0.0000 
     48 O          36.1850   37.5520   25.1470 O.2       9 ALL1        0.0000 
     49 O          37.4190   40.0900   26.3320 O.2       5 ALP1        0.0000 
     50 O          37.2240   38.3795   24.8455 O.2       1 ALC1        0.0000 
     51 O          38.2630   39.2070   24.5440 O.2       5 ALP1        0.0000 
     52 CA         35.6095   34.1140   32.4675 C.3       4 GLC5        0.0000 
     53 CA         36.1030   35.5410   30.8600 C.3      12 GLL5        0.0000 
     54 CA         35.1160   32.6870   34.0750 C.3       8 GLP5        0.0000 
     55 CA         36.9890   36.7990   22.0595 C.3       4 GLC5        0.0000 
     56 CA         36.4900   36.6840   23.9770 C.3      12 GLL5        0.0000 
     57 CA         37.4880   36.9140   20.1420 C.3       8 GLP5        0.0000 
     58 CA         33.2795   39.2550   23.9260 C.3       4 GLC5        0.0000 
     59 CA         35.0480   38.4450   24.7890 C.3      12 GLL5        0.0000 
     60 CA         31.5110   40.0650   23.0630 C.3       8 GLP5        0.0000 
     61 CA         30.6099   40.5714   26.4262 C.3       4 GLC5        0.0000 
     62 CA         30.2270   39.0780   27.8380 C.3      12 GLL5        0.0000 
     63 CA         31.9352   41.3315   26.9087 C.3       4 GLC5        0.0000 
     64 CA         31.9060   40.3470   29.0140 C.3      12 GLL5        0.0000 
     65 CA         26.7934   37.0621   23.0998 C.3       4 GLC5        0.0000 
     66 CA         27.1950   36.4720   25.6660 C.3      12 GLL5        0.0000 
     67 CA         27.4660   38.0480   21.5300 C.3       8 GLP5        0.0000 
     68 CA         37.4250   34.9682   28.9905 C.3       4 GLC5        0.0000 
     69 CA         36.2460   36.8340   28.8360 C.3      12 GLL5        0.0000 
     70 CA         37.9210   33.0060   29.0080 C.3       8 GLP5        0.0000 
     71 CA         34.4393   36.3188   30.3200 C.3       4 GLC5        0.0000 
     72 CA         37.0390   38.1758   30.4600 C.3       4 GLC5        0.0000 
     73 CA         37.1490   39.4210   31.9470 C.3       8 GLP5        0.0000 
     74 CA         36.8605   34.4100   29.6475 C.3       4 GLC5        0.0000 
     75 CA         35.4970   36.0870   29.7140 C.3      12 GLL5        0.0000 
     76 CA         36.4745   37.6175   31.1170 C.3       4 GLC5        0.0000 
     77 CA         37.8852   34.5637   29.8427 C.3       4 GLC5        0.0000 
     78 CA         37.4690   35.7450   31.1200 C.3      12 GLL5        0.0000 
     79 CA         37.4992   37.7712   31.3122 C.3       4 GLC5        0.0000 
     80 CA         34.8965   35.9100   31.1775 C.3       4 GLC5        0.0000 
@<TRIPOS>BOND
@<TRIPOS>SUBSTRUCTURE
     1 ALC1        9 GROUP        1 X    ALC  0     ROOT ALC X 1
     2 SEC2       12 GROUP        1 X    SEC  0     **** SEC X 2
     3 ASC3       42 GROUP        1 X    ASC  0     **** ASC X 3
     4 GLC5        1 GROUP        1 X    GLC  0     **** GLC X 6
     5 ALP1       11 GROUP        1 Y    ALP  0     ROOT ALP Y 8
     6 SEP2       14 GROUP        1 Y    SEP  0     **** SEP Y 9
     7 ASP3       44 GROUP        1 Y    ASP  0     **** ASP Y 10
     8 GLP5        3 GROUP        1 Y    GLP  0     **** GLP Y 13
     9 ALL1       10 GROUP        1 Z    ALL  0     ROOT ALL Z 15
    10 SEL2       13 GROUP        1 Z    SEL  0     **** SEL Z 16
    11 ASL3       43 GROUP        1 Z    ASL  0     **** ASL Z 17
    12 GLL5        2 GROUP        1 Z    GLL  0     **** GLL Z 20
@<TRIPOS>SET

