#    Name: 4ks7_X4Z_1_ligand
#    Modification time : Tue Mar 25 08:51:57 2014

@<TRIPOS>MOLECULE
4ks7_X4Z_1_ligand
   65    69     1     0     0
SMALL
NO_CHARGES


@<TRIPOS>ATOM
      1 C1         30.2270   39.0780   27.8380 C.2       1 X4Z702      0.0000 
      2 C2         30.4980   40.2870   28.5460 C.2       1 X4Z702      0.0000 
      3 C3         28.8090   39.2950   27.5210 C.2       1 X4Z702      0.0000 
      4 C4         31.4460   38.2010   27.7290 C.3       1 X4Z702      0.0000 
      5 C5         31.9060   40.3470   29.0140 C.3       1 X4Z702      0.0000 
      6 N6         29.4270   41.1270   28.6230 N.2       1 X4Z702      0.0000 
      7 N7         27.9680   38.5520   26.7290 N.pl3     1 X4Z702      0.0000 
      8 N8         28.3730   40.4910   27.9350 N.2       1 X4Z702      0.0000 
      9 N9         32.4680   39.1150   28.3590 N.am      1 X4Z702      0.0000 
     10 C10        32.5670   41.6710   28.6290 C.3       1 X4Z702      0.0000 
     11 C11        31.9450   40.1340   30.5400 C.3       1 X4Z702      0.0000 
     12 C12        28.1460   37.2380   26.4700 C.ar      1 X4Z702      0.0000 
     13 C13        33.7780   38.8400   28.3290 C.2       1 X4Z702      0.0000 
     14 C14        27.1950   36.4720   25.6660 C.ar      1 X4Z702      0.0000 
     15 N15        29.0270   36.5310   27.2240 N.ar      1 X4Z702      0.0000 
     16 N16        34.1910   37.7470   27.6830 N.am      1 X4Z702      0.0000 
     17 O17        34.5890   39.5000   28.9910 O.2       1 X4Z702      0.0000 
     18 C18        27.4350   35.0500   25.6400 C.ar      1 X4Z702      0.0000 
     19 S19        25.9760   37.0570   24.6600 S.3       1 X4Z702      0.0000 
     20 C20        29.1720   35.1960   27.1810 C.ar      1 X4Z702      0.0000 
     21 C21        35.6330   37.4510   27.6110 C.3       1 X4Z702      0.0000 
     22 N22        28.4030   34.4560   26.3820 N.ar      1 X4Z702      0.0000 
     23 C23        26.5020   34.4180   24.7490 C.2       1 X4Z702      0.0000 
     24 C24        25.6560   35.3880   24.1760 C.2       1 X4Z702      0.0000 
     25 C25        30.2410   34.4970   27.9720 C.3       1 X4Z702      0.0000 
     26 C26        36.2460   36.8340   28.8360 C.ar      1 X4Z702      0.0000 
     27 C27        36.0470   36.6610   26.3360 C.3       1 X4Z702      0.0000 
     28 C28        37.6120   37.0270   29.1100 C.ar      1 X4Z702      0.0000 
     29 C29        35.4970   36.0870   29.7140 C.ar      1 X4Z702      0.0000 
     30 N30        36.1850   37.5520   25.1470 N.4       1 X4Z702      0.0000 
     31 C31        38.2300   36.4980   30.2350 C.ar      1 X4Z702      0.0000 
     32 C32        36.1030   35.5410   30.8600 C.ar      1 X4Z702      0.0000 
     33 C33        37.4690   35.7450   31.1200 C.ar      1 X4Z702      0.0000 
     34 C34        36.4900   36.6840   23.9770 C.3       1 X4Z702      0.0000 
     35 C35        35.0480   38.4450   24.7890 C.3       1 X4Z702      0.0000 
     36 H          31.6841   38.0321   26.7213 H         1 X4Z702      0.0000 
     37 H          31.3259   37.3367   28.3113 H         1 X4Z702      0.0000 
     38 H          27.1309   39.0482   26.2990 H         1 X4Z702      0.0000 
     39 H          33.5646   37.0842   27.2234 H         1 X4Z702      0.0000 
     40 H          36.1732   38.4612   27.4805 H         1 X4Z702      0.0000 
     41 H          26.4724   33.4866   24.5820 H         1 X4Z702      0.0000 
     42 H          24.9373   35.3270   23.5730 H         1 X4Z702      0.0000 
     43 H          35.2867   35.8947   26.1533 H         1 X4Z702      0.0000 
     44 H          36.9948   36.1550   26.5466 H         1 X4Z702      0.0000 
     45 H          38.1765   37.5910   28.4367 H         1 X4Z702      0.0000 
     46 H          34.4979   35.9200   29.5467 H         1 X4Z702      0.0000 
     47 H          37.0922   38.1819   25.2944 H         1 X4Z702      0.0000 
     48 H          39.2215   36.6586   30.4082 H         1 X4Z702      0.0000 
     49 H          35.5381   34.9848   31.5165 H         1 X4Z702      0.0000 
     50 H          37.8931   35.3385   31.9575 H         1 X4Z702      0.0000 
     51 H          33.5166   41.7160   28.9391 H         1 X4Z702      0.0000 
     52 H          32.5753   41.8077   27.6384 H         1 X4Z702      0.0000 
     53 H          32.0907   42.4540   29.0289 H         1 X4Z702      0.0000 
     54 H          32.8789   40.1678   30.8960 H         1 X4Z702      0.0000 
     55 H          31.4205   40.8330   31.0261 H         1 X4Z702      0.0000 
     56 H          31.5638   39.2472   30.8011 H         1 X4Z702      0.0000 
     57 H          31.1561   34.8087   27.7162 H         1 X4Z702      0.0000 
     58 H          30.1408   34.6568   28.9540 H         1 X4Z702      0.0000 
     59 H          30.2189   33.5070   27.8324 H         1 X4Z702      0.0000 
     60 H          36.5934   37.2162   23.1367 H         1 X4Z702      0.0000 
     61 H          37.3391   36.1718   24.1059 H         1 X4Z702      0.0000 
     62 H          35.7658   36.0143   23.8126 H         1 X4Z702      0.0000 
     63 H          34.8303   39.0833   25.5274 H         1 X4Z702      0.0000 
     64 H          35.2478   38.9933   23.9770 H         1 X4Z702      0.0000 
     65 H          34.2153   37.9264   24.5949 H         1 X4Z702      0.0000 
@<TRIPOS>BOND
     1    2    1 2    
     2    3    1 1    
     3    4    1 1    
     4    5    2 1    
     5    6    2 1    
     6    7    3 2    
     7    8    3 1    
     8    9    4 1    
     9   36    4 1    
    10   37    4 1    
    11    9    5 1    
    12   10    5 1    
    13   11    5 1    
    14    8    6 2    
    15   12    7 1    
    16   38    7 1    
    17   13    9 am   
    18   51   10 1    
    19   52   10 1    
    20   53   10 1    
    21   54   11 1    
    22   55   11 1    
    23   56   11 1    
    24   14   12 ar   
    25   15   12 ar   
    26   16   13 am   
    27   17   13 2    
    28   18   14 ar   
    29   19   14 1    
    30   20   15 ar   
    31   21   16 1    
    32   39   16 1    
    33   22   18 ar   
    34   23   18 1    
    35   24   19 1    
    36   22   20 ar   
    37   25   20 1    
    38   26   21 1    
    39   27   21 1    
    40   40   21 1    
    41   24   23 2    
    42   41   23 1    
    43   42   24 1    
    44   57   25 1    
    45   58   25 1    
    46   59   25 1    
    47   28   26 ar   
    48   29   26 ar   
    49   30   27 1    
    50   43   27 1    
    51   44   27 1    
    52   31   28 ar   
    53   45   28 1    
    54   32   29 ar   
    55   46   29 1    
    56   34   30 1    
    57   35   30 1    
    58   47   30 1    
    59   33   31 ar   
    60   48   31 1    
    61   33   32 ar   
    62   49   32 1    
    63   50   33 1    
    64   60   34 1    
    65   61   34 1    
    66   62   34 1    
    67   63   35 1    
    68   64   35 1    
    69   65   35 1    
@<TRIPOS>SUBSTRUCTURE
     1 X4Z702      1 GROUP   
@<TRIPOS>SET

