#    Name: 3e8d_G98_2_INTS_M
#    Modification time : Tue Mar 25 01:11:06 2014

@<TRIPOS>MOLECULE
3e8d_G98_2_INTS_M
   78     0     9     0     0
SMALL
NO_CHARGES


@<TRIPOS>ATOM
      1 CA         -4.0975  -37.2015   -3.6325 C.3       3 GLC5        0.0000 
      2 CA         -5.6750  -38.7120   -3.5820 C.3       9 GLL5        0.0000 
      3 CA         -2.5200  -35.6910   -3.6830 C.3       6 GLP5        0.0000 
      4 CA         -5.1665  -40.6555   -3.4535 C.3       3 GLC5        0.0000 
      5 CA         -4.6580  -42.5990   -3.3250 C.3       6 GLP5        0.0000 
      6 CA         -4.5000  -37.0190   -6.1220 C.3       3 GLC5        0.0000 
      7 CA         -5.3390  -37.4920   -4.4080 C.3       9 GLL5        0.0000 
      8 CA         -3.6610  -36.5460   -7.8360 C.3       6 GLP5        0.0000 
      9 CA         -6.3340  -35.9235   -5.3445 C.3       3 GLC5        0.0000 
     10 CA         -7.3290  -34.3550   -6.2810 C.3       6 GLP5        0.0000 
     11 CA         -4.4975  -36.0875   -3.9975 C.3       3 GLC5        0.0000 
     12 CA         -3.6560  -34.6830   -3.5870 C.3       6 GLP5        0.0000 
     13 CA         -0.4515  -39.2985   -1.5905 C.3       3 GLC5        0.0000 
     14 CA         -1.4900  -40.3530   -3.1800 C.3       9 GLL5        0.0000 
     15 CA          0.5870  -38.2440   -0.0010 C.3       6 GLP5        0.0000 
     16 CA         -0.4085  -42.1585    2.9320 C.3       3 GLC5        0.0000 
     17 CA         -0.8430  -40.4020    3.6930 C.3       9 GLL5        0.0000 
     18 CA          0.0260  -43.9150    2.1710 C.3       6 GLP5        0.0000 
     19 CA         -1.7505  -41.2640    5.3080 C.3       3 GLC5        0.0000 
     20 CA         -2.6580  -42.1260    6.9230 C.3       6 GLP5        0.0000 
     21 CA         -7.7865  -34.1070   -4.1935 C.3       3 GLC5        0.0000 
     22 CA         -8.2440  -33.8590   -2.1060 C.3       9 GLL5        0.0000 
     23 CA         -6.5540  -31.5450   -2.1605 C.3       3 GLC5        0.0000 
     24 CA         -7.7330  -32.8040   -1.3560 C.3       9 GLL5        0.0000 
     25 CA         -5.3750  -30.2860   -2.9650 C.3       6 GLP5        0.0000 
     26 O          -2.8965  -38.0280    5.6125 O.2       1 ALC1        0.0000 
     27 O          -2.1500  -38.9480    5.0910 O.2       7 ALL1        0.0000 
     28 O          -3.6430  -37.1080    6.1340 O.2       4 ALP1        0.0000 
     29 CA          0.5440  -36.4015    3.5905 C.3       3 GLC5        0.0000 
     30 CA         -0.3900  -37.9400    3.8130 C.3       9 GLL5        0.0000 
     31 CA          1.4780  -34.8630    3.3680 C.3       6 GLP5        0.0000 
     32 CA         -5.5340  -36.0870    1.7790 C.3       3 GLC5        0.0000 
     33 CA         -6.3710  -37.5350    0.7030 C.3       9 GLL5        0.0000 
     34 CA         -4.6970  -34.6390    2.8550 C.3       6 GLP5        0.0000 
     35 CA         -6.6880  -38.5220    2.4550 C.3       3 GLC5        0.0000 
     36 CA         -7.0050  -39.5090    4.2070 C.3       6 GLP5        0.0000 
     37 CA         -8.6400  -38.6290    3.0640 C.3       3 GLC5        0.0000 
     38 CA        -10.2750  -37.7490    1.9210 C.3       9 GLL5        0.0000 
     39 OD1       -10.0120  -37.9645    3.9725 O.co2     2 ASC3        0.0000 
     40 OD1       -11.0930  -37.6450    3.1120 O.co2     8 ASL3        0.0000 
     41 OD1        -8.9310  -38.2840    4.8330 O.co2     5 ASP3        0.0000 
     42 O         -10.0120  -37.9645    3.9725 O.2       1 ALC1        0.0000 
     43 O         -11.0930  -37.6450    3.1120 O.2       7 ALL1        0.0000 
     44 O          -8.9310  -38.2840    4.8330 O.2       4 ALP1        0.0000 
     45 CA         -2.6495  -37.7645   -3.5020 C.3       3 GLC5        0.0000 
     46 CA         -2.7790  -39.8380   -3.3210 C.3       9 GLL5        0.0000 
     47 CA         -0.5537  -39.1748   -3.6418 C.3       3 GLC5        0.0000 
     48 CA          1.0270  -38.2540   -4.0330 C.3       6 GLP5        0.0000 
     49 CA         -3.3963  -41.3473   -3.2878 C.3       3 GLC5        0.0000 
     50 CA         -2.3413  -40.6790    2.3657 C.3       3 GLC5        0.0000 
     51 CA         -3.5270  -41.6480    0.9680 C.3       6 GLP5        0.0000 
     52 CA         -3.7965  -39.3808    4.0593 C.3       3 GLC5        0.0000 
     53 CA         -2.4160  -38.7730    2.7310 C.3       9 GLL5        0.0000 
     54 CA         -5.6510  -39.8660    4.8360 C.3       6 GLP5        0.0000 
     55 CA         -6.3370  -34.5965   -2.0025 C.3       3 GLC5        0.0000 
     56 CA         -8.5400  -35.0710   -1.4940 C.3       9 GLL5        0.0000 
     57 CA         -4.2820  -34.7280   -2.2050 C.3       6 GLP5        0.0000 
     58 CA         -8.4413  -32.2497   -3.3550 C.3       3 GLC5        0.0000 
     59 CA         -8.8940  -31.1680   -4.9790 C.3       6 GLP5        0.0000 
     60 CA         -9.6173  -31.9677   -1.8905 C.3       3 GLC5        0.0000 
     61 CA        -11.2460  -30.6040   -2.0500 C.3       6 GLP5        0.0000 
     62 CA         -5.9535  -33.8038   -1.4392 C.3       3 GLC5        0.0000 
     63 CA         -6.1810  -34.1000    1.5857 C.3       3 GLC5        0.0000 
     64 CA         -7.5170  -32.9550    0.0090 C.3       9 GLL5        0.0000 
     65 CA         -0.0509  -39.1935    5.4051 C.3       3 GLC5        0.0000 
     66 CA          0.6710  -39.5620    7.0220 C.3       6 GLP5        0.0000 
     67 CA          0.4541  -38.8445    2.5351 C.3       3 GLC5        0.0000 
     68 CA          1.6810  -38.8640    1.2820 C.3       6 GLP5        0.0000 
     69 CA         -1.2677  -37.6365    1.4612 C.3       3 GLC5        0.0000 
     70 CA          0.2910  -36.5930    0.6080 C.3       6 GLP5        0.0000 
     71 CA         -3.1768  -40.1640    1.6412 C.3       3 GLC5        0.0000 
     72 CA         -4.2043  -36.5570    2.1662 C.3       3 GLC5        0.0000 
     73 CA         -3.2370  -38.5870    1.8980 C.3       9 GLL5        0.0000 
     74 CA         -4.6813  -39.1705    3.1568 C.3       3 GLC5        0.0000 
     75 CA         -4.1860  -38.3630    1.0570 C.3       9 GLL5        0.0000 
     76 CA         -3.9606  -40.0538    0.5662 C.3       3 GLC5        0.0000 
     77 CA         -4.8641  -36.4647   -1.4478 C.3       3 GLC5        0.0000 
     78 CA         -5.1350  -38.4250   -1.1610 C.3       9 GLL5        0.0000 
@<TRIPOS>BOND
@<TRIPOS>SUBSTRUCTURE
     1 ALC1       26 GROUP        1 X    ALC  0     ROOT ALC X 1
     2 ASC3       39 GROUP        1 X    ASC  0     **** ASC X 3
     3 GLC5        1 GROUP        1 X    GLC  0     **** GLC X 6
     4 ALP1       28 GROUP        1 Y    ALP  0     ROOT ALP Y 8
     5 ASP3       41 GROUP        1 Y    ASP  0     **** ASP Y 10
     6 GLP5        3 GROUP        1 Y    GLP  0     **** GLP Y 13
     7 ALL1       27 GROUP        1 Z    ALL  0     ROOT ALL Z 15
     8 ASL3       40 GROUP        1 Z    ASL  0     **** ASL Z 17
     9 GLL5        2 GROUP        1 Z    GLL  0     **** GLL Z 20
@<TRIPOS>SET

