#    Name: 3e8d_G98_2_ligand
#    Modification time : Tue Mar 25 01:11:06 2014

@<TRIPOS>MOLECULE
3e8d_G98_2_ligand
   67    70     1     0     0
SMALL
NO_CHARGES


@<TRIPOS>ATOM
      1 N1         -5.3240  -37.8020    1.5140 N.ar      1 G981        0.0000 
      2 N3         -3.0820  -39.2450   -1.0240 N.2       1 G981        0.0000 
      3 C4         -3.5600  -39.3100   -2.2780 C.2       1 G981        0.0000 
      4 C5         -4.0700  -38.6870   -0.2950 C.ar      1 G981        0.0000 
      5 C6         -5.1350  -38.4250   -1.1610 C.ar      1 G981        0.0000 
      6 C7         -5.6750  -38.7120   -3.5820 C.3       1 G981        0.0000 
      7 C8         -5.3390  -37.4920   -4.4080 C.3       1 G981        0.0000 
      8 C10        -1.4900  -40.3530   -3.1800 C.2       1 G981        0.0000 
      9 C13        -1.4680  -39.0180    3.8340 C.3       1 G981        0.0000 
     10 C15        -0.8430  -40.4020    3.6930 C.3       1 G981        0.0000 
     11 C17        -9.7970  -36.3650    1.4980 C.3       1 G981        0.0000 
     12 C20        -8.5400  -35.0710   -1.4940 C.ar      1 G981        0.0000 
     13 C21        -8.2440  -33.8590   -2.1060 C.ar      1 G981        0.0000 
     14 C22        -7.7330  -32.8040   -1.3560 C.ar      1 G981        0.0000 
     15 C24        -7.8130  -34.1670    0.6240 C.ar      1 G981        0.0000 
     16 O2         -2.1500  -38.9480    5.0910 O.3       1 G981        0.0000 
     17 C14        -0.3900  -37.9400    3.8130 C.3       1 G981        0.0000 
     18 C12        -2.4160  -38.7730    2.7310 C.2       1 G981        0.0000 
     19 C11        -3.2370  -38.5870    1.8980 C.2       1 G981        0.0000 
     20 C3         -4.1860  -38.3630    1.0570 C.ar      1 G981        0.0000 
     21 C1         -6.3710  -37.5350    0.7030 C.ar      1 G981        0.0000 
     22 O3         -7.4870  -36.9630    1.2660 O.3       1 G981        0.0000 
     23 C16        -8.6330  -36.5150    0.5330 C.3       1 G981        0.0000 
     24 C19        -8.3270  -35.2240   -0.1250 C.ar      1 G981        0.0000 
     25 C23        -7.5170  -32.9550    0.0090 C.ar      1 G981        0.0000 
     26 C18       -10.2750  -37.7490    1.9210 C.3       1 G981        0.0000 
     27 N7        -11.0930  -37.6450    3.1120 N.4       1 G981        0.0000 
     28 C2         -6.2900  -37.8470   -0.6530 C.ar      1 G981        0.0000 
     29 N2         -4.8040  -38.8170   -2.4030 N.pl3     1 G981        0.0000 
     30 C9         -2.7790  -39.8380   -3.3210 C.2       1 G981        0.0000 
     31 N6         -0.7750  -40.4110   -2.0280 N.4       1 G981        0.0000 
     32 N5         -0.9740  -40.8040   -4.3410 N.pl3     1 G981        0.0000 
     33 O1         -2.0590  -40.5330   -5.2410 O.3       1 G981        0.0000 
     34 N4         -3.1970  -39.9270   -4.6020 N.pl3     1 G981        0.0000 
     35 H          -5.5705  -39.6050   -4.2148 H         1 G981        0.0000 
     36 H          -6.7286  -38.6491   -3.2741 H         1 G981        0.0000 
     37 H         -10.6075  -35.8386    1.0098 H         1 G981        0.0000 
     38 H          -9.4747  -35.8134    2.3722 H         1 G981        0.0000 
     39 H          -8.9138  -35.8510   -2.0457 H         1 G981        0.0000 
     40 H          -8.4027  -33.7405   -3.1160 H         1 G981        0.0000 
     41 H          -7.5142  -31.9081   -1.8145 H         1 G981        0.0000 
     42 H          -7.6527  -34.2846    1.6331 H         1 G981        0.0000 
     43 H          -1.2815  -38.5895    1.8254 H         1 G981        0.0000 
     44 H          -2.3232  -38.9428    0.8114 H         1 G981        0.0000 
     45 H          -8.9112  -37.2433   -0.2148 H         1 G981        0.0000 
     46 H          -7.1408  -32.1758    0.5609 H         1 G981        0.0000 
     47 H          -9.3947  -38.3745    2.0987 H         1 G981        0.0000 
     48 H         -10.8391  -38.1840    1.0900 H         1 G981        0.0000 
     49 H          -7.0847  -37.6486   -1.2727 H         1 G981        0.0000 
     50 H          -0.1817  -41.1780   -4.5528 H         1 G981        0.0000 
     51 H          -3.9714  -39.6874   -5.0073 H         1 G981        0.0000 
     52 H          -4.3941  -37.5134   -4.7347 H         1 G981        0.0000 
     53 H          -5.9261  -37.4159   -5.2139 H         1 G981        0.0000 
     54 H          -5.4490  -36.6472   -3.8844 H         1 G981        0.0000 
     55 H          -0.3532  -40.5018    2.8269 H         1 G981        0.0000 
     56 H          -0.1869  -40.5895    4.4240 H         1 G981        0.0000 
     57 H          -1.5323  -41.1258    3.7251 H         1 G981        0.0000 
     58 H           0.2647  -38.0549    4.5601 H         1 G981        0.0000 
     59 H           0.1326  -37.9540    2.9606 H         1 G981        0.0000 
     60 H          -0.7796  -37.0234    3.9030 H         1 G981        0.0000 
     61 H         -12.0173  -37.9947    2.9594 H         1 G981        0.0000 
     62 H         -10.7059  -38.1630    3.8748 H         1 G981        0.0000 
     63 H         -11.1848  -36.6974    3.4179 H         1 G981        0.0000 
     64 H          -0.6209  -39.5021   -1.6403 H         1 G981        0.0000 
     65 H          -1.2409  -40.9529   -1.3286 H         1 G981        0.0000 
     66 H           0.1240  -40.8256   -2.1694 H         1 G981        0.0000 
     67 H          -2.5712  -38.0411    5.1067 H         1 G981        0.0000 
@<TRIPOS>BOND
     1   20    1 ar   
     2   21    1 ar   
     3    3    2 2    
     4    4    2 1    
     5   29    3 1    
     6   30    3 1    
     7    5    4 ar   
     8   20    4 ar   
     9   28    5 ar   
    10   29    5 1    
    11    7    6 1    
    12   29    6 1    
    13   35    6 1    
    14   36    6 1    
    15   52    7 1    
    16   53    7 1    
    17   54    7 1    
    18   30    8 2    
    19   31    8 1    
    20   32    8 1    
    21   10    9 1    
    22   16    9 1    
    23   17    9 1    
    24   18    9 1    
    25   55   10 1    
    26   56   10 1    
    27   57   10 1    
    28   23   11 1    
    29   26   11 1    
    30   37   11 1    
    31   38   11 1    
    32   13   12 ar   
    33   24   12 ar   
    34   39   12 1    
    35   14   13 ar   
    36   40   13 1    
    37   25   14 ar   
    38   41   14 1    
    39   24   15 ar   
    40   25   15 ar   
    41   42   15 1    
    42   67   16 1    
    43   58   17 1    
    44   59   17 1    
    45   60   17 1    
    46   19   18 2    
    47   43   18 1    
    48   20   19 1    
    49   44   19 1    
    50   22   21 1    
    51   28   21 ar   
    52   23   22 1    
    53   24   23 1    
    54   45   23 1    
    55   46   25 1    
    56   27   26 1    
    57   47   26 1    
    58   48   26 1    
    59   61   27 1    
    60   62   27 1    
    61   63   27 1    
    62   49   28 1    
    63   34   30 1    
    64   64   31 1    
    65   65   31 1    
    66   66   31 1    
    67   33   32 1    
    68   50   32 1    
    69   34   33 1    
    70   51   34 1    
@<TRIPOS>SUBSTRUCTURE
     1 G981        1 GROUP   
@<TRIPOS>SET

