#    Name: 3umv_FAD_2_INTS_M
#    Modification time : Mon Mar 24 23:01:28 2014

@<TRIPOS>MOLECULE
3umv_FAD_2_INTS_M
   89     0    12     0     0
SMALL
NO_CHARGES


@<TRIPOS>ATOM
      1 N           9.3065   57.4745   32.8815 N.am      2 SEC2        0.0000 
      2 N          10.0560   58.4100   32.1980 N.am     10 SEL2        0.0000 
      3 N           8.5570   56.5390   33.5650 N.am      6 SEP2        0.0000 
      4 N           8.1015   61.3455   32.2070 N.am      2 SEC2        0.0000 
      5 N           9.0350   60.5660   32.9510 N.am     10 SEL2        0.0000 
      6 N           7.1680   62.1250   31.4630 N.am      6 SEP2        0.0000 
      7 N           8.7980   61.7575   33.4850 N.am      2 SEC2        0.0000 
      8 N           8.5610   62.9490   34.0190 N.am      6 SEP2        0.0000 
      9 CA          8.7345   60.3225   36.1665 C.3       4 GLC5        0.0000 
     10 CA         10.4640   60.2210   35.4960 C.3      12 GLL5        0.0000 
     11 CA          7.0050   60.4240   36.8370 C.3       8 GLP5        0.0000 
     12 CA         11.3680   59.3790   38.2230 C.3       4 GLC5        0.0000 
     13 CA         11.6900   60.3860   36.3880 C.3      12 GLL5        0.0000 
     14 CA         11.0460   58.3720   40.0580 C.3       8 GLP5        0.0000 
     15 CA         13.8720   62.6290   34.6390 C.3       4 GLC5        0.0000 
     16 CA         12.9020   60.9560   35.6610 C.3      12 GLL5        0.0000 
     17 CA         14.8420   64.3020   33.6170 C.3       8 GLP5        0.0000 
     18 CA         12.2540   57.3180   36.8055 C.3       4 GLC5        0.0000 
     19 CA         13.5260   59.1220   36.9620 C.3      12 GLL5        0.0000 
     20 CA         10.9820   55.5140   36.6490 C.3       8 GLP5        0.0000 
     21 CA         12.2860   58.7470   38.5100 C.3       4 GLC5        0.0000 
     22 CA         14.6600   58.9850   38.7485 C.3       4 GLC5        0.0000 
     23 CA         15.7940   58.8480   40.5350 C.3       8 GLP5        0.0000 
     24 CA         16.6585   55.3195   37.1755 C.3       4 GLC5        0.0000 
     25 CA         17.4900   57.0750   36.9240 C.3      12 GLL5        0.0000 
     26 CA         15.8270   53.5640   37.4270 C.3       8 GLP5        0.0000 
     27 CA         17.0890   57.3380   38.6995 C.3       4 GLC5        0.0000 
     28 CA         16.6880   57.6010   40.4750 C.3       8 GLP5        0.0000 
     29 CA         18.8490   58.3095   36.8045 C.3       4 GLC5        0.0000 
     30 CA         20.2080   59.5440   36.6850 C.3       8 GLP5        0.0000 
     31 O          20.5515   63.7540   33.7015 O.2       1 ALC1        0.0000 
     32 O          20.2290   62.4040   33.5530 O.2       9 ALL1        0.0000 
     33 O          20.8740   65.1040   33.8500 O.2       5 ALP1        0.0000 
     34 N          23.3200   62.3005   31.4200 N.am      2 SEC2        0.0000 
     35 N          22.0770   62.3590   32.2400 N.am     10 SEL2        0.0000 
     36 N          24.5630   62.2420   30.6000 N.am      6 SEP2        0.0000 
     37 N          20.3670   60.6995   30.4725 N.am      2 SEC2        0.0000 
     38 N          21.5590   59.8500   31.2880 N.am     10 SEL2        0.0000 
     39 N          19.1750   61.5490   29.6570 N.am      6 SEP2        0.0000 
     40 CA         24.2225   57.7030   29.8705 C.3       4 GLC5        0.0000 
     41 CA         22.0390   57.8950   29.9790 C.3      12 GLL5        0.0000 
     42 CA         26.4060   57.5110   29.7620 C.3       8 GLP5        0.0000 
     43 CA         23.2025   56.6930   26.6150 C.3       4 GLC5        0.0000 
     44 CA         22.6220   55.9190   28.5700 C.3      12 GLL5        0.0000 
     45 CA         23.7830   57.4670   24.6600 C.3       8 GLP5        0.0000 
     46 CA         23.7030   55.0060   27.3535 C.3       4 GLC5        0.0000 
     47 CA         24.7840   54.0930   26.1370 C.3       8 GLP5        0.0000 
     48 CA         24.2810   55.4340   29.6700 C.3       4 GLC5        0.0000 
     49 CA         25.9400   54.9490   30.7700 C.3       8 GLP5        0.0000 
     50 CA         19.2150   53.2515   28.8635 C.3       4 GLC5        0.0000 
     51 CA         20.2180   54.5950   29.5850 C.3      12 GLL5        0.0000 
     52 CA         18.2120   51.9080   28.1420 C.3       8 GLP5        0.0000 
     53 CA         14.5895   62.8525   32.7385 C.3       4 GLC5        0.0000 
     54 CA         14.3370   61.4030   31.8600 C.3      12 GLL5        0.0000 
     55 CA         13.6505   62.9240   30.6420 C.3       4 GLC5        0.0000 
     56 CA         12.9640   64.4450   29.4240 C.3       8 GLP5        0.0000 
     57 N          12.3165   64.1720   33.6720 N.am      2 SEC2        0.0000 
     58 N          11.8860   62.8610   33.0730 N.am     10 SEL2        0.0000 
     59 N          12.7470   65.4830   34.2710 N.am      6 SEP2        0.0000 
     60 NZ         11.4895   62.8555   29.8260 N.4       3 LYC4        0.0000 
     61 NZ         10.6760   62.4150   30.9340 N.4      11 LYL4        0.0000 
     62 NZ         12.3030   63.2960   28.7180 N.4       7 LYP4        0.0000 
     63 N           9.6970   63.4165   31.1620 N.am      2 SEC2        0.0000 
     64 N          10.6760   62.4150   30.9340 N.am     10 SEL2        0.0000 
     65 N           8.7180   64.4180   31.3900 N.am      6 SEP2        0.0000 
     66 N          11.4895   62.8555   29.8260 N.am      2 SEC2        0.0000 
     67 N          12.3030   63.2960   28.7180 N.am      6 SEP2        0.0000 
     68 CA         12.7455   62.3372   37.4129 C.3       4 GLC5        0.0000 
     69 CA         12.3260   64.0950   38.5420 C.3       8 GLP5        0.0000 
     70 CA         15.7395   55.2242   36.5305 C.3       4 GLC5        0.0000 
     71 CA         15.4170   56.5940   35.1560 C.3      12 GLL5        0.0000 
     72 CA         20.1983   58.7258   29.2800 C.3       4 GLC5        0.0000 
     73 CA         21.2220   58.5640   30.8810 C.3      12 GLL5        0.0000 
     74 CA         18.7660   59.2220   28.1300 C.3       8 GLP5        0.0000 
     75 CA         22.6583   59.0618   32.0285 C.3       4 GLC5        0.0000 
     76 CA         23.6860   59.8940   33.6270 C.3       8 GLP5        0.0000 
     77 CA         22.1797   56.6988   31.5875 C.3       4 GLC5        0.0000 
     78 CA         22.7290   55.1680   32.7450 C.3       8 GLP5        0.0000 
     79 CA         20.6225   56.6262   28.0308 C.3       4 GLC5        0.0000 
     80 CA         21.7200   56.6080   29.5550 C.3      12 GLL5        0.0000 
     81 CA         19.0740   56.9890   26.9990 C.3       8 GLP5        0.0000 
     82 CA         22.4500   55.7157   30.9037 C.3       4 GLC5        0.0000 
     83 CA         19.7335   56.1393   28.4053 C.3       4 GLC5        0.0000 
     84 CA         20.5680   55.9840   30.0380 C.3      12 GLL5        0.0000 
     85 CA         21.5610   55.2288   31.2782 C.3       4 GLC5        0.0000 
     86 CA         19.3357   58.2593   29.6437 C.3       4 GLC5        0.0000 
     87 CA         19.7440   56.6520   30.9470 C.3      12 GLL5        0.0000 
     88 CA         21.3173   56.2323   31.9512 C.3       4 GLC5        0.0000 
     89 CA         20.0670   57.9410   31.3680 C.3      12 GLL5        0.0000 
@<TRIPOS>BOND
@<TRIPOS>SUBSTRUCTURE
     1 ALC1       31 GROUP        1 X    ALC  0     ROOT ALC X 1
     2 SEC2        1 GROUP        1 X    SEC  0     **** SEC X 2
     3 LYC4       60 GROUP        1 X    LYC  0     **** LYC X 4
     4 GLC5        9 GROUP        1 X    GLC  0     **** GLC X 6
     5 ALP1       33 GROUP        1 Y    ALP  0     ROOT ALP Y 8
     6 SEP2        3 GROUP        1 Y    SEP  0     **** SEP Y 9
     7 LYP4       62 GROUP        1 Y    LYP  0     **** LYP Y 11
     8 GLP5       11 GROUP        1 Y    GLP  0     **** GLP Y 13
     9 ALL1       32 GROUP        1 Z    ALL  0     ROOT ALL Z 15
    10 SEL2        2 GROUP        1 Z    SEL  0     **** SEL Z 16
    11 LYL4       61 GROUP        1 Z    LYL  0     **** LYL Z 18
    12 GLL5       10 GROUP        1 Z    GLL  0     **** GLL Z 20
@<TRIPOS>SET

