#    Name: 3umv_FAD_2_ligand
#    Modification time : Mon Mar 24 23:01:28 2014

@<TRIPOS>MOLECULE
3umv_FAD_2_ligand
   84    89     1     0     0
SMALL
NO_CHARGES


@<TRIPOS>ATOM
      1 PA         10.2680   59.6930   32.9630 P.3       1 FAD801      0.0000 
      2 O1A        10.0560   58.4100   32.1980 O.co2     1 FAD801      0.0000 
      3 O2A         9.0350   60.5660   32.9510 O.co2     1 FAD801      0.0000 
      4 O5B        10.7490   59.3240   34.4430 O.3       1 FAD801      0.0000 
      5 C5B        10.4640   60.2210   35.4960 C.3       1 FAD801      0.0000 
      6 C4B        11.6900   60.3860   36.3880 C.3       1 FAD801      0.0000 
      7 O4B        12.1170   59.1290   36.8630 O.3       1 FAD801      0.0000 
      8 C3B        12.9020   60.9560   35.6610 C.3       1 FAD801      0.0000 
      9 O3B        12.8570   62.3550   35.5490 O.3       1 FAD801      0.0000 
     10 C2B        14.0340   60.4880   36.5430 C.3       1 FAD801      0.0000 
     11 O2B        14.1280   61.3160   37.6890 O.3       1 FAD801      0.0000 
     12 C1B        13.5260   59.1220   36.9620 C.3       1 FAD801      0.0000 
     13 N9A        14.0510   58.0790   36.0690 N.pl3     1 FAD801      0.0000 
     14 C8A        13.4140   57.4890   35.0110 C.2       1 FAD801      0.0000 
     15 N7A        14.2570   56.5790   34.4580 N.2       1 FAD801      0.0000 
     16 C5A        15.4170   56.5940   35.1560 C.ar      1 FAD801      0.0000 
     17 C6A        16.6050   55.8880   35.0440 C.ar      1 FAD801      0.0000 
     18 N6A        16.7200   54.8730   34.2060 N.pl3     1 FAD801      0.0000 
     19 N1A        17.6390   56.1400   35.9220 N.ar      1 FAD801      0.0000 
     20 C2A        17.4900   57.0750   36.9240 C.ar      1 FAD801      0.0000 
     21 N3A        16.3050   57.7660   37.0290 N.ar      1 FAD801      0.0000 
     22 C4A        15.2930   57.5280   36.1680 C.ar      1 FAD801      0.0000 
     23 N1         18.7760   60.5110   33.5860 N.2       1 FAD801      0.0000 
     24 C2         19.0850   61.7830   34.0240 C.2       1 FAD801      0.0000 
     25 O2         18.3440   62.3570   34.8400 O.2       1 FAD801      0.0000 
     26 N3         20.2290   62.4040   33.5530 N.am      1 FAD801      0.0000 
     27 C4         21.0680   61.7790   32.6520 C.2       1 FAD801      0.0000 
     28 O4         22.0770   62.3590   32.2400 O.2       1 FAD801      0.0000 
     29 C4X        20.7480   60.5000   32.2000 C.2       1 FAD801      0.0000 
     30 N5         21.5590   59.8500   31.2880 N.2       1 FAD801      0.0000 
     31 C5X        21.2220   58.5640   30.8810 C.ar      1 FAD801      0.0000 
     32 C6         22.0390   57.8950   29.9790 C.ar      1 FAD801      0.0000 
     33 C7         21.7200   56.6080   29.5550 C.ar      1 FAD801      0.0000 
     34 C7M        22.6220   55.9190   28.5700 C.3       1 FAD801      0.0000 
     35 C8         20.5680   55.9840   30.0380 C.ar      1 FAD801      0.0000 
     36 C8M        20.2180   54.5950   29.5850 C.3       1 FAD801      0.0000 
     37 C9         19.7440   56.6520   30.9470 C.ar      1 FAD801      0.0000 
     38 C9A        20.0670   57.9410   31.3680 C.ar      1 FAD801      0.0000 
     39 N10        19.2440   58.6100   32.2620 N.pl3     1 FAD801      0.0000 
     40 C10        19.6000   59.8710   32.6850 C.2       1 FAD801      0.0000 
     41 C1'        17.9860   57.9810   32.8290 C.3       1 FAD801      0.0000 
     42 C2'        16.6780   58.3090   32.0600 C.3       1 FAD801      0.0000 
     43 O2'        16.7820   58.0240   30.6660 O.3       1 FAD801      0.0000 
     44 C3'        16.1500   59.7350   32.2370 C.3       1 FAD801      0.0000 
     45 O3'        16.0980   60.0540   33.6220 O.3       1 FAD801      0.0000 
     46 C4'        14.7510   59.9500   31.6460 C.3       1 FAD801      0.0000 
     47 O4'        14.7120   59.6060   30.2670 O.3       1 FAD801      0.0000 
     48 C5'        14.3370   61.4030   31.8600 C.3       1 FAD801      0.0000 
     49 O5'        13.1970   61.8160   31.1350 O.3       1 FAD801      0.0000 
     50 P          11.7660   61.9480   31.8680 P.3       1 FAD801      0.0000 
     51 O1P        11.8860   62.8610   33.0730 O.co2     1 FAD801      0.0000 
     52 O2P        10.6760   62.4150   30.9340 O.co2     1 FAD801      0.0000 
     53 O3P        11.5730   60.4370   32.3720 O.3       1 FAD801      0.0000 
     54 H           9.6386   59.8656   36.1298 H         1 FAD801      0.0000 
     55 H          10.1871   61.2187   35.1256 H         1 FAD801      0.0000 
     56 H          11.4525   61.0422   37.2068 H         1 FAD801      0.0000 
     57 H          12.9841   60.4395   34.7272 H         1 FAD801      0.0000 
     58 H          14.8957   60.3822   35.9884 H         1 FAD801      0.0000 
     59 H          13.8439   58.9369   37.9697 H         1 FAD801      0.0000 
     60 H          12.5231   57.6886   34.7151 H         1 FAD801      0.0000 
     61 H          15.9005   54.6394   33.6828 H         1 FAD801      0.0000 
     62 H          17.6161   54.4306   34.1711 H         1 FAD801      0.0000 
     63 H          18.2567   57.2531   37.5849 H         1 FAD801      0.0000 
     64 H          20.4603   63.3626   33.8861 H         1 FAD801      0.0000 
     65 H          22.8903   58.3546   29.6191 H         1 FAD801      0.0000 
     66 H          18.8983   56.1911   31.3053 H         1 FAD801      0.0000 
     67 H          17.8551   58.3028   33.8797 H         1 FAD801      0.0000 
     68 H          18.1028   56.8807   32.8519 H         1 FAD801      0.0000 
     69 H          15.8866   57.6344   32.4925 H         1 FAD801      0.0000 
     70 H          16.8323   60.4141   31.7245 H         1 FAD801      0.0000 
     71 H          14.0610   59.3299   32.2250 H         1 FAD801      0.0000 
     72 H          15.2293   62.0362   31.6141 H         1 FAD801      0.0000 
     73 H          14.1922   61.5420   32.9633 H         1 FAD801      0.0000 
     74 H          23.5500   55.8133   28.9272 H         1 FAD801      0.0000 
     75 H          22.2905   55.0041   28.3398 H         1 FAD801      0.0000 
     76 H          22.6942   56.4289   27.7128 H         1 FAD801      0.0000 
     77 H          20.9327   53.9364   29.8205 H         1 FAD801      0.0000 
     78 H          19.3703   54.2701   30.0044 H         1 FAD801      0.0000 
     79 H          20.0914   54.5484   28.5941 H         1 FAD801      0.0000 
     80 H          12.5100   62.5297   34.6275 H         1 FAD801      0.0000 
     81 H          14.0436   62.2497   37.3411 H         1 FAD801      0.0000 
     82 H          16.0564   58.5621   30.2371 H         1 FAD801      0.0000 
     83 H          17.0335   60.3119   33.8633 H         1 FAD801      0.0000 
     84 H          14.3439   60.4151   29.8089 H         1 FAD801      0.0000 
@<TRIPOS>BOND
     1    2    1 ar   
     2    3    1 ar   
     3    4    1 1    
     4   53    1 1    
     5    5    4 1    
     6    6    5 1    
     7   54    5 1    
     8   55    5 1    
     9    7    6 1    
    10    8    6 1    
    11   56    6 1    
    12   12    7 1    
    13    9    8 1    
    14   10    8 1    
    15   57    8 1    
    16   80    9 1    
    17   11   10 1    
    18   12   10 1    
    19   58   10 1    
    20   81   11 1    
    21   13   12 1    
    22   59   12 1    
    23   14   13 1    
    24   22   13 1    
    25   15   14 2    
    26   60   14 1    
    27   16   15 1    
    28   17   16 ar   
    29   22   16 ar   
    30   18   17 1    
    31   19   17 ar   
    32   61   18 1    
    33   62   18 1    
    34   20   19 ar   
    35   21   20 ar   
    36   63   20 1    
    37   22   21 ar   
    38   24   23 1    
    39   40   23 2    
    40   25   24 2    
    41   26   24 am   
    42   27   26 am   
    43   64   26 1    
    44   28   27 2    
    45   29   27 1    
    46   30   29 2    
    47   40   29 1    
    48   31   30 1    
    49   32   31 ar   
    50   38   31 ar   
    51   33   32 ar   
    52   65   32 1    
    53   34   33 1    
    54   35   33 ar   
    55   74   34 1    
    56   75   34 1    
    57   76   34 1    
    58   36   35 1    
    59   37   35 ar   
    60   77   36 1    
    61   78   36 1    
    62   79   36 1    
    63   38   37 ar   
    64   66   37 1    
    65   39   38 1    
    66   40   39 1    
    67   41   39 1    
    68   42   41 1    
    69   67   41 1    
    70   68   41 1    
    71   43   42 1    
    72   44   42 1    
    73   69   42 1    
    74   82   43 1    
    75   45   44 1    
    76   46   44 1    
    77   70   44 1    
    78   83   45 1    
    79   47   46 1    
    80   48   46 1    
    81   71   46 1    
    82   84   47 1    
    83   49   48 1    
    84   72   48 1    
    85   73   48 1    
    86   50   49 1    
    87   51   50 ar   
    88   52   50 ar   
    89   53   50 1    
@<TRIPOS>SUBSTRUCTURE
     1 FAD801      1 GROUP   
@<TRIPOS>SET

