#    Name: 2xyn_VX6_1_INTS_M
#    Modification time : Tue Mar 25 07:07:43 2014

@<TRIPOS>MOLECULE
2xyn_VX6_1_INTS_M
   75     0     6     0     0
SMALL
NO_CHARGES


@<TRIPOS>ATOM
      1 CA        -50.2925   44.9430   -7.4940 C.3       2 GLC5        0.0000 
      2 CA        -51.6330   43.5970   -6.8230 C.3       6 GLL5        0.0000 
      3 CA        -48.9520   46.2890   -8.1650 C.3       4 GLP5        0.0000 
      4 CA        -50.7040   46.1080   -7.2620 C.3       2 GLC5        0.0000 
      5 CA        -52.4560   45.9270   -6.3590 C.3       6 GLL5        0.0000 
      6 CA        -54.5295   48.8500   -5.8245 C.3       2 GLC5        0.0000 
      7 CA        -52.6510   48.3060   -6.0360 C.3       6 GLL5        0.0000 
      8 CA        -56.4080   49.3940   -5.6130 C.3       4 GLP5        0.0000 
      9 CA        -51.6905   47.2115   -8.5060 C.3       2 GLC5        0.0000 
     10 CA        -53.5520   47.2930   -7.9260 C.3       6 GLL5        0.0000 
     11 CA        -49.8290   47.1300   -9.0860 C.3       4 GLP5        0.0000 
     12 CA        -54.3300   46.5920   -6.0555 C.3       2 GLC5        0.0000 
     13 CA        -55.1080   45.8910   -4.1850 C.3       4 GLP5        0.0000 
     14 CA        -54.9800   48.3435   -6.7695 C.3       2 GLC5        0.0000 
     15 O         -52.4000   48.9535   -3.9450 O.2       1 ALC1        0.0000 
     16 O         -52.4080   49.3950   -5.3280 O.2       5 ALL1        0.0000 
     17 O         -52.3920   48.5120   -2.5620 O.2       3 ALP1        0.0000 
     18 CA        -53.3725   50.6830   -3.7865 C.3       2 GLC5        0.0000 
     19 CA        -52.7520   50.6360   -5.6910 C.3       6 GLL5        0.0000 
     20 CA        -53.9930   50.7300   -1.8820 C.3       4 GLP5        0.0000 
     21 CA        -54.5800   50.0150   -5.6520 C.3       2 GLC5        0.0000 
     22 CA        -55.0720   51.4675   -6.1250 C.3       2 GLC5        0.0000 
     23 CA        -53.4740   51.0730   -6.7330 C.3       6 GLL5        0.0000 
     24 CA        -56.6700   51.8620   -5.5170 C.3       4 GLP5        0.0000 
     25 CA        -52.1105   53.2355   -7.5895 C.3       2 GLC5        0.0000 
     26 CA        -54.1680   53.4520   -7.4550 C.3       6 GLL5        0.0000 
     27 CA        -50.0530   53.0190   -7.7240 C.3       4 GLP5        0.0000 
     28 CA        -54.7395   54.9020   -6.1110 C.3       2 GLC5        0.0000 
     29 CA        -55.3110   56.3520   -4.7670 C.3       4 GLP5        0.0000 
     30 CA        -53.2755   55.3665   -7.1175 C.3       2 GLC5        0.0000 
     31 CA        -52.3830   57.2810   -6.7800 C.3       4 GLP5        0.0000 
     32 CA        -55.4190   52.6570   -6.4860 C.3       2 GLC5        0.0000 
     33 CA        -53.6875   45.9320  -10.7525 C.3       2 GLC5        0.0000 
     34 CA        -54.4410   47.4720   -9.4250 C.3       6 GLL5        0.0000 
     35 CA        -52.9340   44.3920  -12.0800 C.3       4 GLP5        0.0000 
     36 CA        -55.6555   47.0185  -10.8160 C.3       2 GLC5        0.0000 
     37 CA        -56.8700   46.5650  -12.2070 C.3       4 GLP5        0.0000 
     38 CA        -56.6010   51.3645   -7.6545 C.3       2 GLC5        0.0000 
     39 CA        -56.5320   50.8670   -9.7920 C.3       6 GLL5        0.0000 
     40 O         -57.3130   53.1490  -10.5885 O.2       1 ALC1        0.0000 
     41 O         -56.0640   53.0670  -10.6490 O.2       5 ALL1        0.0000 
     42 O         -58.5620   53.2310  -10.5280 O.2       3 ALP1        0.0000 
     43 CA        -55.1030   55.2820  -13.3560 C.3       2 GLC5        0.0000 
     44 CA        -55.8010   55.4020  -11.3480 C.3       6 GLL5        0.0000 
     45 CA        -54.4050   55.1620  -15.3640 C.3       4 GLP5        0.0000 
     46 CA        -58.7135   55.5820  -10.5025 C.3       2 GLC5        0.0000 
     47 CA        -56.8270   56.0930  -10.4400 C.3       6 GLL5        0.0000 
     48 CA        -60.6000   55.0710  -10.5650 C.3       4 GLP5        0.0000 
     49 CA        -54.0090   58.0785  -11.1290 C.3       2 GLC5        0.0000 
     50 CA        -55.3700   56.5740  -10.4880 C.3       6 GLL5        0.0000 
     51 CA        -52.6480   59.5830  -11.7700 C.3       4 GLP5        0.0000 
     52 CA        -54.3425   57.3645   -9.0490 C.3       2 GLC5        0.0000 
     53 CA        -53.3150   58.1550   -7.6100 C.3       4 GLP5        0.0000 
     54 CA        -52.7030   44.3937   -2.5020 C.3       2 GLC5        0.0000 
     55 CA        -51.6150   44.5170   -4.4570 C.3       6 GLL5        0.0000 
     56 CA        -53.6250   44.9760   -0.7840 C.3       4 GLP5        0.0000 
     57 CA        -53.4445   44.8513   -4.2025 C.3       2 GLC5        0.0000 
     58 CA        -51.9470   43.1060   -3.9830 C.3       6 GLL5        0.0000 
     59 CA        -51.1575   48.1450   -7.2157 C.3       2 GLC5        0.0000 
     60 CA        -52.2030   47.0700   -5.5970 C.3       6 GLL5        0.0000 
     61 CA        -49.8880   48.6020   -8.6150 C.3       4 GLP5        0.0000 
     62 CA        -53.7991   46.6466   -5.0960 C.3       2 GLC5        0.0000 
     63 CA        -51.5830   51.9368   -6.9680 C.3       2 GLC5        0.0000 
     64 CA        -55.3125   49.1100  -11.7505 C.3       2 GLC5        0.0000 
     65 CA        -54.0210   49.9980  -10.3630 C.3       6 GLL5        0.0000 
     66 CA        -56.1650   48.6600  -13.4390 C.3       4 GLP5        0.0000 
     67 CA        -55.9712   49.3665   -7.6217 C.3       2 GLC5        0.0000 
     68 CA        -54.8990   49.1220   -9.7610 C.3       6 GLL5        0.0000 
     69 CA        -55.5915   50.1040  -11.9768 C.3       2 GLC5        0.0000 
     70 CA        -54.3830   51.3100  -10.6610 C.3       6 GLL5        0.0000 
     71 CA        -53.2293   51.3500  -11.2760 C.3       2 GLC5        0.0000 
     72 CA        -51.5310   51.4800  -12.1120 C.3       4 GLP5        0.0000 
     73 CA        -56.2580   49.4357  -11.5425 C.3       2 GLC5        0.0000 
     74 CA        -56.2818   58.2343  -10.1515 C.3       2 GLC5        0.0000 
     75 CA        -56.4650   60.1350   -9.8390 C.3       4 GLP5        0.0000 
@<TRIPOS>BOND
@<TRIPOS>SUBSTRUCTURE
     1 ALC1       15 GROUP        1 X    ALC  0     ROOT ALC X 1
     2 GLC5        1 GROUP        1 X    GLC  0     **** GLC X 6
     3 ALP1       17 GROUP        1 Y    ALP  0     ROOT ALP Y 8
     4 GLP5        3 GROUP        1 Y    GLP  0     **** GLP Y 13
     5 ALL1       16 GROUP        1 Z    ALL  0     ROOT ALL Z 15
     6 GLL5        2 GROUP        1 Z    GLL  0     **** GLL Z 20
@<TRIPOS>SET

