#    Name: 2xyn_VX6_1_ligand
#    Modification time : Tue Mar 25 07:07:43 2014

@<TRIPOS>MOLECULE
2xyn_VX6_1_ligand
   62    66     1     0     0
SMALL
NO_CHARGES


@<TRIPOS>ATOM
      1 N1        -51.2240   42.1360   -4.8280 N.4       1 VX6547      0.0000 
      2 C2        -51.7580   42.2110   -6.1940 C.3       1 VX6547      0.0000 
      3 C3        -51.6330   43.5970   -6.8230 C.3       1 VX6547      0.0000 
      4 N4        -51.9760   44.6770   -5.8840 N.3       1 VX6547      0.0000 
      5 C5        -51.6150   44.5170   -4.4570 C.3       1 VX6547      0.0000 
      6 C6        -51.9470   43.1060   -3.9830 C.3       1 VX6547      0.0000 
      7 C7        -51.4290   40.7620   -4.2950 C.3       1 VX6547      0.0000 
      8 C8        -52.4560   45.9270   -6.3590 C.ar      1 VX6547      0.0000 
      9 C9        -52.2030   47.0700   -5.5970 C.ar      1 VX6547      0.0000 
     10 C10       -52.6510   48.3060   -6.0360 C.ar      1 VX6547      0.0000 
     11 N11       -53.3170   48.3800   -7.1790 N.ar      1 VX6547      0.0000 
     12 C12       -53.5520   47.2930   -7.9260 C.ar      1 VX6547      0.0000 
     13 N13       -53.1220   46.0640   -7.5300 N.ar      1 VX6547      0.0000 
     14 N14       -52.4080   49.3950   -5.3280 N.pl3     1 VX6547      0.0000 
     15 C15       -52.7520   50.6360   -5.6910 C.2       1 VX6547      0.0000 
     16 C17       -53.4740   51.0730   -6.7330 C.2       1 VX6547      0.0000 
     17 C18       -53.4960   52.3960   -6.5730 C.2       1 VX6547      0.0000 
     18 N19       -52.8220   52.7000   -5.4710 N.2       1 VX6547      0.0000 
     19 N20       -52.3810   51.6710   -4.9480 N.pl3     1 VX6547      0.0000 
     20 C21       -54.1680   53.4520   -7.4550 C.3       1 VX6547      0.0000 
     21 S23       -54.4410   47.4720   -9.4250 S.3       1 VX6547      0.0000 
     22 C24       -54.8990   49.1220   -9.7610 C.ar      1 VX6547      0.0000 
     23 C25       -54.0210   49.9980  -10.3630 C.ar      1 VX6547      0.0000 
     24 C26       -54.3830   51.3100  -10.6610 C.ar      1 VX6547      0.0000 
     25 C27       -55.6530   51.7860  -10.3680 C.ar      1 VX6547      0.0000 
     26 C28       -56.5320   50.8670   -9.7920 C.ar      1 VX6547      0.0000 
     27 C29       -56.1700   49.5560   -9.5000 C.ar      1 VX6547      0.0000 
     28 N30       -56.0640   53.0670  -10.6490 N.am      1 VX6547      0.0000 
     29 C31       -55.2220   54.0660  -10.9320 C.2       1 VX6547      0.0000 
     30 O32       -54.0190   53.9320  -11.0030 O.2       1 VX6547      0.0000 
     31 C33       -55.8010   55.4020  -11.3480 C.3       1 VX6547      0.0000 
     32 C34       -56.8270   56.0930  -10.4400 C.3       1 VX6547      0.0000 
     33 C35       -55.3700   56.5740  -10.4880 C.3       1 VX6547      0.0000 
     34 H         -50.1774   42.3669   -4.8313 H         1 VX6547      0.0000 
     35 H         -52.8277   41.9250   -6.2053 H         1 VX6547      0.0000 
     36 H         -51.2365   41.4883   -6.8513 H         1 VX6547      0.0000 
     37 H         -52.2904   43.6339   -7.7077 H         1 VX6547      0.0000 
     38 H         -50.5989   43.7179   -7.1864 H         1 VX6547      0.0000 
     39 H         -52.1676   45.2305   -3.8421 H         1 VX6547      0.0000 
     40 H         -50.5466   44.6911   -4.3126 H         1 VX6547      0.0000 
     41 H         -51.6461   43.0083   -2.9432 H         1 VX6547      0.0000 
     42 H         -53.0208   42.9565   -4.0601 H         1 VX6547      0.0000 
     43 H         -51.6853   46.9896   -4.7134 H         1 VX6547      0.0000 
     44 H         -51.8930   49.2817   -4.3837 H         1 VX6547      0.0000 
     45 H         -53.8710   50.5601   -7.4163 H         1 VX6547      0.0000 
     46 H         -51.8407   51.5772   -4.1212 H         1 VX6547      0.0000 
     47 H         -53.0595   49.6763  -10.6041 H         1 VX6547      0.0000 
     48 H         -53.6915   51.9380  -11.1083 H         1 VX6547      0.0000 
     49 H         -57.5069   51.1806   -9.5706 H         1 VX6547      0.0000 
     50 H         -56.8682   48.9181   -9.0863 H         1 VX6547      0.0000 
     51 H         -57.1106   53.2579  -10.6367 H         1 VX6547      0.0000 
     52 H         -55.9284   55.7377  -12.2286 H         1 VX6547      0.0000 
     53 H         -56.9200   55.5609   -9.6677 H         1 VX6547      0.0000 
     54 H         -57.3315   56.6763  -10.9816 H         1 VX6547      0.0000 
     55 H         -55.3466   57.3454  -11.0354 H         1 VX6547      0.0000 
     56 H         -54.9350   56.2299   -9.7215 H         1 VX6547      0.0000 
     57 H         -50.9685   40.0737   -4.8555 H         1 VX6547      0.0000 
     58 H         -51.0742   40.6677   -3.3648 H         1 VX6547      0.0000 
     59 H         -52.3978   40.5158   -4.2656 H         1 VX6547      0.0000 
     60 H         -54.0293   54.3761   -7.0990 H         1 VX6547      0.0000 
     61 H         -53.8082   53.4402   -8.3880 H         1 VX6547      0.0000 
     62 H         -55.1555   53.3080   -7.5198 H         1 VX6547      0.0000 
@<TRIPOS>BOND
     1    2    1 1    
     2    6    1 1    
     3    7    1 1    
     4   34    1 1    
     5    3    2 1    
     6   35    2 1    
     7   36    2 1    
     8    4    3 1    
     9   37    3 1    
    10   38    3 1    
    11    5    4 1    
    12    8    4 1    
    13    6    5 1    
    14   39    5 1    
    15   40    5 1    
    16   41    6 1    
    17   42    6 1    
    18   57    7 1    
    19   58    7 1    
    20   59    7 1    
    21    9    8 ar   
    22   13    8 ar   
    23   10    9 ar   
    24   43    9 1    
    25   11   10 ar   
    26   14   10 1    
    27   12   11 ar   
    28   13   12 ar   
    29   21   12 1    
    30   15   14 1    
    31   44   14 1    
    32   16   15 2    
    33   19   15 1    
    34   17   16 1    
    35   45   16 1    
    36   18   17 2    
    37   20   17 1    
    38   19   18 1    
    39   46   19 1    
    40   60   20 1    
    41   61   20 1    
    42   62   20 1    
    43   22   21 1    
    44   23   22 ar   
    45   27   22 ar   
    46   24   23 ar   
    47   47   23 1    
    48   25   24 ar   
    49   48   24 1    
    50   26   25 ar   
    51   28   25 1    
    52   27   26 ar   
    53   49   26 1    
    54   50   27 1    
    55   29   28 am   
    56   51   28 1    
    57   30   29 2    
    58   31   29 1    
    59   32   31 1    
    60   33   31 1    
    61   52   31 1    
    62   33   32 1    
    63   53   32 1    
    64   54   32 1    
    65   55   33 1    
    66   56   33 1    
@<TRIPOS>SUBSTRUCTURE
     1 VX6547      1 GROUP   
@<TRIPOS>SET

