#    Name: 2g0e_CGQ_1_INTS_M
#    Modification time : Tue Mar 25 13:19:52 2014

@<TRIPOS>MOLECULE
2g0e_CGQ_1_INTS_M
   27     0     6     0     0
SMALL
NO_CHARGES


@<TRIPOS>ATOM
      1 CA        -63.8325  -47.2015   -1.4305 C.3       2 GLC5        0.0000 
      2 CA        -62.2720  -46.4140   -0.5700 C.3       6 GLL5        0.0000 
      3 CA        -65.3930  -47.9890   -2.2910 C.3       4 GLP5        0.0000 
      4 CA        -60.9180  -44.8700   -2.7225 C.3       2 GLC5        0.0000 
      5 CA        -59.1410  -45.0320   -1.9340 C.3       6 GLL5        0.0000 
      6 CA        -62.6950  -44.7080   -3.5110 C.3       4 GLP5        0.0000 
      7 N         -63.5305  -45.1700    7.2255 N.am      1 SEC2        0.0000 
      8 N         -63.6710  -46.5410    7.3860 N.am      5 SEL2        0.0000 
      9 N         -63.3900  -43.7990    7.0650 N.am      3 SEP2        0.0000 
     10 CA        -62.0885  -45.3923   -2.2089 C.3       2 GLC5        0.0000 
     11 CA        -62.1471  -48.0911   -0.6339 C.3       2 GLC5        0.0000 
     12 CA        -61.2710  -46.0540   -1.4670 C.3       6 GLL5        0.0000 
     13 CA        -62.5640  -50.0150   -0.5880 C.3       4 GLP5        0.0000 
     14 CA        -63.2862  -47.3928   10.7820 C.3       2 GLC5        0.0000 
     15 CA        -64.5890  -46.5840    9.5480 C.3       6 GLL5        0.0000 
     16 CA        -62.0770  -48.2030   11.3270 C.3       4 GLP5        0.0000 
     17 CA        -64.5602  -45.3513   11.3530 C.3       2 GLC5        0.0000 
     18 CA        -64.4020  -46.5810   10.9260 C.3       6 GLL5        0.0000 
     19 CA        -64.6250  -44.1200   12.4690 C.3       4 GLP5        0.0000 
     20 CA        -65.1002  -48.2742   11.2942 C.3       2 GLC5        0.0000 
     21 CA        -65.4840  -46.7780   11.7810 C.3       6 GLL5        0.0000 
     22 CA        -64.0800  -49.6740   11.0700 C.3       4 GLP5        0.0000 
     23 CA        -67.3918  -47.6617   12.8697 C.3       2 GLC5        0.0000 
     24 CA        -68.6630  -48.4490   14.2210 C.3       4 GLP5        0.0000 
     25 CA        -65.2445  -48.2743   10.2610 C.3       2 GLC5        0.0000 
     26 CA        -66.9510  -46.9690    9.8770 C.3       6 GLL5        0.0000 
     27 CA        -65.5804  -45.5209   11.5834 C.3       2 GLC5        0.0000 
@<TRIPOS>BOND
@<TRIPOS>SUBSTRUCTURE
     1 SEC2        7 GROUP        1 X    SEC  0     ROOT SEC X 2
     2 GLC5        1 GROUP        1 X    GLC  0     **** GLC X 6
     3 SEP2        9 GROUP        1 Y    SEP  0     ROOT SEP Y 9
     4 GLP5        3 GROUP        1 Y    GLP  0     **** GLP Y 13
     5 SEL2        8 GROUP        1 Z    SEL  0     ROOT SEL Z 16
     6 GLL5        2 GROUP        1 Z    GLL  0     **** GLL Z 20
@<TRIPOS>SET

