#    Name: 2g0e_CGQ_1_ligand
#    Modification time : Tue Mar 25 13:19:52 2014

@<TRIPOS>MOLECULE
2g0e_CGQ_1_ligand
   48    49     1     0     0
SMALL
NO_CHARGES


@<TRIPOS>ATOM
      1 C1        -60.1130  -45.4240   -1.0200 C.ar      1 CGQ3025     0.0000 
      2 C2        -59.9510  -45.1620    0.3380 C.ar      1 CGQ3025     0.0000 
      3 C3        -60.9460  -45.5290    1.2400 C.ar      1 CGQ3025     0.0000 
      4 C4        -62.1070  -46.1470    0.7850 C.ar      1 CGQ3025     0.0000 
      5 C5        -62.2720  -46.4140   -0.5700 C.ar      1 CGQ3025     0.0000 
      6 C6        -61.2710  -46.0540   -1.4670 C.ar      1 CGQ3025     0.0000 
      7 C7        -60.7580  -45.3490    2.6060 C.2       1 CGQ3025     0.0000 
      8 N8        -61.7010  -45.7760    3.4240 N.2       1 CGQ3025     0.0000 
      9 C9        -59.1410  -45.0320   -1.9340 C.2       1 CGQ3025     0.0000 
     10 N10       -58.0580  -44.3790   -1.5240 N.pl3     1 CGQ3025     0.0000 
     11 N11       -59.2880  -45.3050   -3.2280 N.pl3     1 CGQ3025     0.0000 
     12 N12       -61.6100  -45.6730    4.6460 N.pl3     1 CGQ3025     0.0000 
     13 C13       -62.6220  -46.1290    5.3790 C.cat     1 CGQ3025     0.0000 
     14 N15       -63.6800  -46.6580    4.7730 N.pl3     1 CGQ3025     0.0000 
     15 N19       -62.5930  -46.0660    6.7060 N.pl3     1 CGQ3025     0.0000 
     16 N20       -63.6710  -46.5410    7.3860 N.2       1 CGQ3025     0.0000 
     17 C21       -63.4940  -46.4590    8.7010 C.2       1 CGQ3025     0.0000 
     18 C22       -64.5890  -46.5840    9.5480 C.ar      1 CGQ3025     0.0000 
     19 C23       -64.4020  -46.5810   10.9260 C.ar      1 CGQ3025     0.0000 
     20 C24       -65.4840  -46.7780   11.7810 C.ar      1 CGQ3025     0.0000 
     21 C25       -66.7570  -46.9710   11.2560 C.ar      1 CGQ3025     0.0000 
     22 C26       -66.9510  -46.9690    9.8770 C.ar      1 CGQ3025     0.0000 
     23 C27       -65.8670  -46.7800    9.0270 C.ar      1 CGQ3025     0.0000 
     24 C28       -68.2330  -47.1230    9.3570 C.2       1 CGQ3025     0.0000 
     25 N29       -69.2840  -47.1580   10.1710 N.pl3     1 CGQ3025     0.0000 
     26 N30       -68.4150  -47.2390    8.0450 N.pl3     1 CGQ3025     0.0000 
     27 H         -59.0981  -44.6984    0.6739 H         1 CGQ3025     0.0000 
     28 H         -62.8454  -46.4070    1.4533 H         1 CGQ3025     0.0000 
     29 H         -63.1248  -46.8727   -0.9057 H         1 CGQ3025     0.0000 
     30 H         -61.3879  -46.2557   -2.4722 H         1 CGQ3025     0.0000 
     31 H         -59.8981  -44.8929    2.9352 H         1 CGQ3025     0.0000 
     32 H         -57.3879  -44.1511   -2.2304 H         1 CGQ3025     0.0000 
     33 H         -58.0112  -44.1746   -0.5462 H         1 CGQ3025     0.0000 
     34 H         -60.1354  -45.7689   -3.4863 H         1 CGQ3025     0.0000 
     35 H         -58.5378  -45.0217   -3.8255 H         1 CGQ3025     0.0000 
     36 H         -60.7853  -45.2489    5.1395 H         1 CGQ3025     0.0000 
     37 H         -63.6598  -46.6586    3.7732 H         1 CGQ3025     0.0000 
     38 H         -64.4007  -47.0077    5.3715 H         1 CGQ3025     0.0000 
     39 H         -61.7900  -45.6743    7.2155 H         1 CGQ3025     0.0000 
     40 H         -62.5591  -46.3037    9.1181 H         1 CGQ3025     0.0000 
     41 H         -63.4612  -46.4328   11.3167 H         1 CGQ3025     0.0000 
     42 H         -65.3404  -46.7805   12.7983 H         1 CGQ3025     0.0000 
     43 H         -67.5570  -47.1155   11.8861 H         1 CGQ3025     0.0000 
     44 H         -66.0075  -46.7846    8.0064 H         1 CGQ3025     0.0000 
     45 H         -69.0904  -47.0397   11.1449 H         1 CGQ3025     0.0000 
     46 H         -70.1731  -47.2995    9.7358 H         1 CGQ3025     0.0000 
     47 H         -67.5879  -47.2249    7.4831 H         1 CGQ3025     0.0000 
     48 H         -69.3625  -47.3299    7.7385 H         1 CGQ3025     0.0000 
@<TRIPOS>BOND
     1    2    1 ar   
     2    6    1 ar   
     3    9    1 1    
     4    3    2 ar   
     5   27    2 1    
     6    4    3 ar   
     7    7    3 1    
     8    5    4 ar   
     9   28    4 1    
    10    6    5 ar   
    11   29    5 1    
    12   30    6 1    
    13    8    7 2    
    14   31    7 1    
    15   12    8 1    
    16   10    9 2    
    17   11    9 1    
    18   32   10 1    
    19   33   10 1    
    20   34   11 1    
    21   35   11 1    
    22   13   12 ar   
    23   36   12 1    
    24   14   13 ar   
    25   15   13 ar   
    26   37   14 1    
    27   38   14 1    
    28   16   15 1    
    29   39   15 1    
    30   17   16 2    
    31   18   17 1    
    32   40   17 1    
    33   19   18 ar   
    34   23   18 ar   
    35   20   19 ar   
    36   41   19 1    
    37   21   20 ar   
    38   42   20 1    
    39   22   21 ar   
    40   43   21 1    
    41   23   22 ar   
    42   24   22 1    
    43   44   23 1    
    44   25   24 2    
    45   26   24 1    
    46   45   25 1    
    47   46   25 1    
    48   47   26 1    
    49   48   26 1    
@<TRIPOS>SUBSTRUCTURE
     1 CGQ3025     1 GROUP   
@<TRIPOS>SET

