#    Name: 1ht2_ADP_1_INTS_M
#    Modification time : Tue Mar 25 05:49:45 2014

@<TRIPOS>MOLECULE
1ht2_ADP_1_INTS_M
   66     0    12     0     0
SMALL
NO_CHARGES


@<TRIPOS>ATOM
      1 NZ        -12.8450  129.2035   31.3335 N.4       3 LYC4        0.0000 
      2 NZ        -14.1430  128.6900   31.3000 N.4      11 LYL4        0.0000 
      3 NZ        -11.1310  129.8100   30.1130 N.4       7 LYP4        0.0000 
      4 N         -14.3250  129.4175   29.9790 N.am      2 SEC2        0.0000 
      5 N         -14.1430  128.6900   31.3000 N.am     10 SEL2        0.0000 
      6 N         -14.5070  130.1450   28.6580 N.am      6 SEP2        0.0000 
      7 N         -12.8450  129.2035   31.3335 N.am      2 SEC2        0.0000 
      8 N         -11.5470  129.7170   31.3670 N.am      6 SEP2        0.0000 
      9 N         -12.9720  128.9400   30.2170 N.am      2 SEC2        0.0000 
     10 N         -11.8010  129.1900   29.1340 N.am      6 SEP2        0.0000 
     11 N         -15.6705  126.9575   33.9760 N.am      2 SEC2        0.0000 
     12 N         -15.8540  127.5720   32.7630 N.am     10 SEL2        0.0000 
     13 N         -15.4870  126.3430   35.1890 N.am      6 SEP2        0.0000 
     14 N         -16.8765  127.7210   33.8760 N.am      2 SEC2        0.0000 
     15 N         -17.8990  127.8700   34.9890 N.am      6 SEP2        0.0000 
     16 NZ        -17.4140  127.8630   29.9105 N.4       3 LYC4        0.0000 
     17 NZ        -16.5370  128.7240   30.6700 N.4      11 LYL4        0.0000 
     18 NZ        -18.2910  127.0020   29.1510 N.4       7 LYP4        0.0000 
     19 N         -16.6870  130.2990   30.1015 N.am      2 SEC2        0.0000 
     20 N         -16.5370  128.7240   30.6700 N.am     10 SEL2        0.0000 
     21 N         -16.8370  131.8740   29.5330 N.am      6 SEP2        0.0000 
     22 N         -17.4140  127.8630   29.9105 N.am      2 SEC2        0.0000 
     23 N         -18.2910  127.0020   29.1510 N.am      6 SEP2        0.0000 
     24 N         -16.2250  129.5740   35.8825 N.am      2 SEC2        0.0000 
     25 N         -14.8980  129.3510   34.8070 N.am     10 SEL2        0.0000 
     26 N         -17.5520  129.7970   36.9580 N.am      6 SEP2        0.0000 
     27 N         -16.9830  131.0590   32.2730 N.am      2 SEC2        0.0000 
     28 N         -15.7670  129.9940   32.6700 N.am     10 SEL2        0.0000 
     29 N         -18.1990  132.1240   31.8760 N.am      6 SEP2        0.0000 
     30 CA        -13.8335  131.7220   31.2390 C.3       4 GLC5        0.0000 
     31 CA        -13.2250  132.1150   32.9910 C.3      12 GLL5        0.0000 
     32 CA        -14.4420  131.3290   29.4870 C.3       8 GLP5        0.0000 
     33 CA        -14.0910  136.0030   32.4595 C.3       4 GLC5        0.0000 
     34 CA        -14.0150  135.3330   34.1710 C.3      12 GLL5        0.0000 
     35 CA        -14.1670  136.6730   30.7480 C.3       8 GLP5        0.0000 
     36 CA        -17.5515  136.1195   31.1915 C.3       4 GLC5        0.0000 
     37 CA        -17.5910  135.7030   33.3210 C.3      12 GLL5        0.0000 
     38 CA        -17.5120  136.5360   29.0620 C.3       8 GLP5        0.0000 
     39 CA        -20.4140  135.8610   34.5765 C.3       4 GLC5        0.0000 
     40 CA        -18.8540  136.3450   33.6200 C.3      12 GLL5        0.0000 
     41 CA        -21.9740  135.3770   35.5330 C.3       8 GLP5        0.0000 
     42 O         -21.2815  136.7745   32.8555 O.2       1 ALC1        0.0000 
     43 O         -19.9800  136.0720   32.9010 O.2       9 ALL1        0.0000 
     44 O         -22.5830  137.4770   32.8100 O.2       5 ALP1        0.0000 
     45 O         -19.8965  134.7280   31.9295 O.2       1 ALC1        0.0000 
     46 O         -19.8130  133.3840   30.9580 O.2       5 ALP1        0.0000 
     47 N         -20.2020  137.8610   34.9635 N.am      2 SEC2        0.0000 
     48 N         -18.9020  137.2630   34.6770 N.am     10 SEL2        0.0000 
     49 N         -21.5020  138.4590   35.2500 N.am      6 SEP2        0.0000 
     50 CA        -19.4635  137.2960   36.2865 C.3       4 GLC5        0.0000 
     51 CA        -17.7880  137.5300   35.3890 C.3      12 GLL5        0.0000 
     52 CA        -21.1390  137.0620   37.1840 C.3       8 GLP5        0.0000 
     53 CA        -17.7305  138.9650   34.0855 C.3       4 GLC5        0.0000 
     54 CA        -17.6730  140.4000   32.7820 C.3       8 GLP5        0.0000 
     55 CA        -11.4597  132.6453   32.3210 C.3       4 GLC5        0.0000 
     56 CA        -12.7160  133.2360   33.9470 C.3      12 GLL5        0.0000 
     57 CA         -9.9490  132.6150   31.1730 C.3       8 GLP5        0.0000 
     58 CA        -14.9600  133.3870   36.5348 C.3       4 GLC5        0.0000 
     59 CA        -13.2810  133.2940   35.3960 C.3      12 GLL5        0.0000 
     60 CA        -16.2470  132.8170   37.5860 C.3       8 GLP5        0.0000 
     61 CA        -18.5378  134.0420   33.3222 C.3       4 GLC5        0.0000 
     62 CA        -18.8530  132.0600   33.1740 C.3       8 GLP5        0.0000 
     63 CA        -15.6143  136.2785   32.2355 C.3       4 GLC5        0.0000 
     64 CA        -17.3856  137.6497   32.8394 C.3       4 GLC5        0.0000 
     65 CA        -16.5320  136.0650   34.1250 C.3      12 GLL5        0.0000 
     66 CA        -17.3940  139.2550   31.8810 C.3       8 GLP5        0.0000 
@<TRIPOS>BOND
@<TRIPOS>SUBSTRUCTURE
     1 ALC1       42 GROUP        1 X    ALC  0     ROOT ALC X 1
     2 SEC2        4 GROUP        1 X    SEC  0     **** SEC X 2
     3 LYC4        1 GROUP        1 X    LYC  0     **** LYC X 4
     4 GLC5       30 GROUP        1 X    GLC  0     **** GLC X 6
     5 ALP1       44 GROUP        1 Y    ALP  0     ROOT ALP Y 8
     6 SEP2        6 GROUP        1 Y    SEP  0     **** SEP Y 9
     7 LYP4        3 GROUP        1 Y    LYP  0     **** LYP Y 11
     8 GLP5       32 GROUP        1 Y    GLP  0     **** GLP Y 13
     9 ALL1       43 GROUP        1 Z    ALL  0     ROOT ALL Z 15
    10 SEL2        5 GROUP        1 Z    SEL  0     **** SEL Z 16
    11 LYL4        2 GROUP        1 Z    LYL  0     **** LYL Z 18
    12 GLL5       31 GROUP        1 Z    GLL  0     **** GLL Z 20
@<TRIPOS>SET

