#    Name: 1ht2_ADP_1_ligand
#    Modification time : Tue Mar 25 05:49:45 2014

@<TRIPOS>MOLECULE
1ht2_ADP_1_ligand
   39    41     1     0     0
SMALL
NO_CHARGES


@<TRIPOS>ATOM
      1 PB        -15.5640  128.7340   31.7840 P.3       1 ADP450      0.0000 
      2 O1B       -14.1430  128.6900   31.3000 O.co2     1 ADP450      0.0000 
      3 O2B       -15.8540  127.5720   32.7630 O.co2     1 ADP450      0.0000 
      4 O3B       -16.5370  128.7240   30.6700 O.co2     1 ADP450      0.0000 
      5 PA        -15.0340  130.5460   33.9930 P.3       1 ADP450      0.0000 
      6 O1A       -15.6640  131.7340   34.4540 O.co2     1 ADP450      0.0000 
      7 O2A       -14.8980  129.3510   34.8070 O.co2     1 ADP450      0.0000 
      8 O3A       -15.7670  129.9940   32.6700 O.3       1 ADP450      0.0000 
      9 O5'       -13.5590  130.9280   33.6910 O.3       1 ADP450      0.0000 
     10 C5'       -13.2250  132.1150   32.9910 C.3       1 ADP450      0.0000 
     11 C4'       -12.7160  133.2360   33.9470 C.3       1 ADP450      0.0000 
     12 O4'       -13.2270  134.4660   33.3360 O.3       1 ADP450      0.0000 
     13 C3'       -13.2810  133.2940   35.3960 C.3       1 ADP450      0.0000 
     14 O3'       -12.2490  133.2790   36.3730 O.3       1 ADP450      0.0000 
     15 C2'       -14.0650  134.6200   35.5710 C.3       1 ADP450      0.0000 
     16 O2'       -13.4800  135.4550   36.6180 O.3       1 ADP450      0.0000 
     17 C1'       -14.0150  135.3330   34.1710 C.3       1 ADP450      0.0000 
     18 N9        -15.4700  135.3250   33.6340 N.pl3     1 ADP450      0.0000 
     19 C8        -15.9460  134.6020   32.6110 C.2       1 ADP450      0.0000 
     20 N7        -17.1790  134.7820   32.3880 N.2       1 ADP450      0.0000 
     21 C5        -17.5910  135.7030   33.3210 C.ar      1 ADP450      0.0000 
     22 C6        -18.8540  136.3450   33.6200 C.ar      1 ADP450      0.0000 
     23 N6        -19.9800  136.0720   32.9010 N.pl3     1 ADP450      0.0000 
     24 N1        -18.9020  137.2630   34.6770 N.ar      1 ADP450      0.0000 
     25 C2        -17.7880  137.5300   35.3890 C.ar      1 ADP450      0.0000 
     26 N3        -16.5680  136.9710   35.1740 N.ar      1 ADP450      0.0000 
     27 C4        -16.5320  136.0650   34.1250 C.ar      1 ADP450      0.0000 
     28 H         -14.0881  132.5343   32.4441 H         1 ADP450      0.0000 
     29 H         -12.4272  131.9497   32.2453 H         1 ADP450      0.0000 
     30 H         -11.6665  133.2648   33.9575 H         1 ADP450      0.0000 
     31 H         -13.9767  132.4917   35.5207 H         1 ADP450      0.0000 
     32 H         -15.0869  134.3746   35.7653 H         1 ADP450      0.0000 
     33 H         -13.6617  136.2772   34.2755 H         1 ADP450      0.0000 
     34 H         -15.3393  133.9759   32.0852 H         1 ADP450      0.0000 
     35 H         -19.8828  135.3952   32.1713 H         1 ADP450      0.0000 
     36 H         -20.8039  136.5726   33.1667 H         1 ADP450      0.0000 
     37 H         -17.8673  138.2420   36.1924 H         1 ADP450      0.0000 
     38 H         -12.2272  134.2087   36.7406 H         1 ADP450      0.0000 
     39 H         -13.1397  136.2660   36.1421 H         1 ADP450      0.0000 
@<TRIPOS>BOND
     1    2    1 ar   
     2    3    1 ar   
     3    4    1 ar   
     4    8    1 1    
     5    6    5 ar   
     6    7    5 ar   
     7    8    5 1    
     8    9    5 1    
     9   10    9 1    
    10   11   10 1    
    11   28   10 1    
    12   29   10 1    
    13   12   11 1    
    14   13   11 1    
    15   30   11 1    
    16   17   12 1    
    17   14   13 1    
    18   15   13 1    
    19   31   13 1    
    20   38   14 1    
    21   16   15 1    
    22   17   15 1    
    23   32   15 1    
    24   39   16 1    
    25   18   17 1    
    26   33   17 1    
    27   19   18 1    
    28   27   18 1    
    29   20   19 2    
    30   34   19 1    
    31   21   20 1    
    32   22   21 ar   
    33   27   21 ar   
    34   23   22 1    
    35   24   22 ar   
    36   35   23 1    
    37   36   23 1    
    38   25   24 ar   
    39   26   25 ar   
    40   37   25 1    
    41   27   26 ar   
@<TRIPOS>SUBSTRUCTURE
     1 ADP450      1 GROUP   
@<TRIPOS>SET

