#    Name: 2c47_5ID_3_INTS_M
#    Modification time : Mon Mar 24 22:34:14 2014

@<TRIPOS>MOLECULE
2c47_5ID_3_INTS_M
   44     0     9     0     0
SMALL
NO_CHARGES


@<TRIPOS>ATOM
      1 N          50.4605   24.8200   62.7360 N.am      2 SEC2        0.0000 
      2 N          49.7060   25.7780   62.4670 N.am      8 SEL2        0.0000 
      3 N          51.2150   23.8620   63.0050 N.am      5 SEP2        0.0000 
      4 CA         50.6860   25.9055   60.4780 C.3       3 GLC5        0.0000 
      5 CA         49.0040   25.7590   61.1820 C.3       9 GLL5        0.0000 
      6 CA         52.3680   26.0520   59.7740 C.3       6 GLP5        0.0000 
      7 CA         48.8535   23.7070   60.4650 C.3       3 GLC5        0.0000 
      8 CA         48.7030   21.6550   59.7480 C.3       6 GLP5        0.0000 
      9 CA         43.1900   25.6895   60.0255 C.3       3 GLC5        0.0000 
     10 CA         45.2720   25.5750   60.5070 C.3       9 GLL5        0.0000 
     11 CA         41.1080   25.8040   59.5440 C.3       6 GLP5        0.0000 
     12 CA         43.9860   19.4215   58.6130 C.3       3 GLC5        0.0000 
     13 CA         43.2120   21.4850   58.4850 C.3       9 GLL5        0.0000 
     14 CA         44.7600   17.3580   58.7410 C.3       6 GLP5        0.0000 
     15 N          42.8745   19.1665   59.5590 N.am      2 SEC2        0.0000 
     16 N          43.2820   20.7320   59.6000 N.am      8 SEL2        0.0000 
     17 N          42.4670   17.6010   59.5180 N.am      5 SEP2        0.0000 
     18 CA         41.7985   20.5195   61.1200 C.3       3 GLC5        0.0000 
     19 CA         43.8000   21.2290   60.7200 C.3       9 GLL5        0.0000 
     20 CA         39.7970   19.8100   61.5200 C.3       6 GLP5        0.0000 
     21 CA         43.7725   19.0935   60.2625 C.3       3 GLC5        0.0000 
     22 CA         43.7450   16.9580   59.8050 C.3       6 GLP5        0.0000 
     23 CA         45.1815   21.0180   59.7655 C.3       3 GLC5        0.0000 
     24 CA         46.5630   20.8070   58.8110 C.3       6 GLP5        0.0000 
     25 O          41.6335   19.7480   56.9045 O.2       1 ALC1        0.0000 
     26 O          42.6810   20.9340   57.3860 O.2       7 ALL1        0.0000 
     27 O          40.5860   18.5620   56.4230 O.2       4 ALP1        0.0000 
     28 CA         47.7840   23.0050   60.6860 C.3       3 GLC5        0.0000 
     29 CA         46.8650   24.3550   61.6240 C.3       9 GLL5        0.0000 
     30 CA         41.5150   24.9765   56.5330 C.3       3 GLC5        0.0000 
     31 CA         43.2340   23.9950   55.5930 C.3       9 GLL5        0.0000 
     32 CA         39.7960   25.9580   57.4730 C.3       6 GLP5        0.0000 
     33 CA         41.2220   23.5405   54.7835 C.3       3 GLC5        0.0000 
     34 CA         39.2100   23.0860   53.9740 C.3       6 GLP5        0.0000 
     35 CA         45.1630   23.3565   54.9560 C.3       3 GLC5        0.0000 
     36 CA         47.0920   22.7180   54.3190 C.3       6 GLP5        0.0000 
     37 CA         45.2122   21.8357   58.9068 C.3       3 GLC5        0.0000 
     38 CA         44.2390   23.3100   59.7220 C.3       9 GLL5        0.0000 
     39 CA         49.2641   24.0724   61.6358 C.3       3 GLC5        0.0000 
     40 CA         50.9800   23.0920   61.8320 C.3       6 GLP5        0.0000 
     41 CA         42.5694   24.7699   59.0408 C.3       3 GLC5        0.0000 
     42 CA         44.3720   24.9270   58.2660 C.3       9 GLL5        0.0000 
     43 CA         45.7129   23.7599   57.5643 C.3       3 GLC5        0.0000 
     44 CA         47.3950   23.7840   56.5910 C.3       6 GLP5        0.0000 
@<TRIPOS>BOND
@<TRIPOS>SUBSTRUCTURE
     1 ALC1       25 GROUP        1 X    ALC  0     ROOT ALC X 1
     2 SEC2        1 GROUP        1 X    SEC  0     **** SEC X 2
     3 GLC5        4 GROUP        1 X    GLC  0     **** GLC X 6
     4 ALP1       27 GROUP        1 Y    ALP  0     ROOT ALP Y 8
     5 SEP2        3 GROUP        1 Y    SEP  0     **** SEP Y 9
     6 GLP5        6 GROUP        1 Y    GLP  0     **** GLP Y 13
     7 ALL1       26 GROUP        1 Z    ALL  0     ROOT ALL Z 15
     8 SEL2        2 GROUP        1 Z    SEL  0     **** SEL Z 16
     9 GLL5        5 GROUP        1 Z    GLL  0     **** GLL Z 20
@<TRIPOS>SET

