#    Name: 2c47_5ID_3_ligand
#    Modification time : Mon Mar 24 22:34:14 2014

@<TRIPOS>MOLECULE
2c47_5ID_3_ligand
   33    35     1     0     0
SMALL
NO_CHARGES


@<TRIPOS>ATOM
      1 O5'        49.7060   25.7780   62.4670 O.3       1 5ID1300     0.0000 
      2 C5'        49.0040   25.7590   61.1820 C.3       1 5ID1300     0.0000 
      3 C4'        47.4590   25.7420   61.3280 C.3       1 5ID1300     0.0000 
      4 O4'        46.6190   26.1390   60.1710 O.3       1 5ID1300     0.0000 
      5 C1'        45.2720   25.5750   60.5070 C.3       1 5ID1300     0.0000 
      6 N9         44.6450   24.5940   59.5260 N.pl3     1 5ID1300     0.0000 
      7 C8         44.3720   24.9270   58.2660 C.2       1 5ID1300     0.0000 
      8 C7         43.8140   23.8900   57.6350 C.2       1 5ID1300     0.0000 
      9 C5         43.6980   22.8160   58.5270 C.ar      1 5ID1300     0.0000 
     10 C6         43.2120   21.4850   58.4850 C.ar      1 5ID1300     0.0000 
     11 N1         43.2820   20.7320   59.6000 N.ar      1 5ID1300     0.0000 
     12 C2         43.8000   21.2290   60.7200 C.ar      1 5ID1300     0.0000 
     13 N3         44.2680   22.4720   60.7850 N.ar      1 5ID1300     0.0000 
     14 C4         44.2390   23.3100   59.7220 C.ar      1 5ID1300     0.0000 
     15 N6         42.6810   20.9340   57.3860 N.pl3     1 5ID1300     0.0000 
     16 C2'        45.4530   24.8540   61.8530 C.3       1 5ID1300     0.0000 
     17 O2'        45.4010   25.8160   62.9250 O.3       1 5ID1300     0.0000 
     18 C3'        46.8650   24.3550   61.6240 C.3       1 5ID1300     0.0000 
     19 O3'        47.4110   23.7090   62.7860 O.3       1 5ID1300     0.0000 
     20 IAE        43.2340   23.9950   55.5930 I         1 5ID1300     0.0000 
     21 H          49.2896   24.8713   60.5908 H         1 5ID1300     0.0000 
     22 H          49.2687   26.6432   60.5760 H         1 5ID1300     0.0000 
     23 H          47.1617   26.3672   62.1863 H         1 5ID1300     0.0000 
     24 H          44.5755   26.3895   60.7004 H         1 5ID1300     0.0000 
     25 H          44.5523   25.8010   57.8600 H         1 5ID1300     0.0000 
     26 H          43.8408   20.6166   61.5852 H         1 5ID1300     0.0000 
     27 H          42.4173   19.9722   57.4594 H         1 5ID1300     0.0000 
     28 H          42.5957   21.5337   56.5904 H         1 5ID1300     0.0000 
     29 H          44.8023   24.0694   61.9016 H         1 5ID1300     0.0000 
     30 H          46.8731   23.8077   60.7353 H         1 5ID1300     0.0000 
     31 H          49.9647   26.7338   62.6064 H         1 5ID1300     0.0000 
     32 H          46.3218   25.8188   63.3150 H         1 5ID1300     0.0000 
     33 H          48.2806   24.1729   62.9552 H         1 5ID1300     0.0000 
@<TRIPOS>BOND
     1    2    1 1    
     2   31    1 1    
     3    3    2 1    
     4   21    2 1    
     5   22    2 1    
     6    4    3 1    
     7   18    3 1    
     8   23    3 1    
     9    5    4 1    
    10    6    5 1    
    11   16    5 1    
    12   24    5 1    
    13    7    6 1    
    14   14    6 1    
    15    8    7 2    
    16   25    7 1    
    17    9    8 1    
    18   20    8 1    
    19   10    9 ar   
    20   14    9 ar   
    21   11   10 ar   
    22   15   10 1    
    23   12   11 ar   
    24   13   12 ar   
    25   26   12 1    
    26   14   13 ar   
    27   27   15 1    
    28   28   15 1    
    29   17   16 1    
    30   18   16 1    
    31   29   16 1    
    32   32   17 1    
    33   19   18 1    
    34   30   18 1    
    35   33   19 1    
@<TRIPOS>SUBSTRUCTURE
     1 5ID1300     1 GROUP   
@<TRIPOS>SET

