#    Name: 1yzt_GNP_1_INTS_M
#    Modification time : Tue Mar 25 11:23:28 2014

@<TRIPOS>MOLECULE
1yzt_GNP_1_INTS_M
   79     0    15     0     0
SMALL
NO_CHARGES


@<TRIPOS>ATOM
      1 N           3.7245   -8.2935   26.7080 N.am      2 SEC2        0.0000 
      2 N           3.5140   -9.0100   27.7710 N.am     12 SEL2        0.0000 
      3 N           3.9350   -7.5770   25.6450 N.am      7 SEP2        0.0000 
      4 N           3.9955  -10.0695   27.2915 N.am      2 SEC2        0.0000 
      5 N           4.4770  -11.1290   26.8120 N.am      7 SEP2        0.0000 
      6 Zn          5.6580   -7.9040   30.1930 Zn        4 ZIC7        0.0000 
      7 Zn          4.9860   -8.5110   29.6940 Zn       14 ZIL7        0.0000 
      8 Zn          6.3300   -7.2970   30.6920 Zn        9 ZIP7        0.0000 
      9 N           6.0035   -9.5095   29.1985 N.am      2 SEC2        0.0000 
     10 N           4.9860   -8.5110   29.6940 N.am     12 SEL2        0.0000 
     11 N           7.0210  -10.5080   28.7030 N.am      7 SEP2        0.0000 
     12 NZ          1.9410   -7.9650   30.9465 N.4       3 LYC4        0.0000 
     13 NZ          2.4890   -8.8480   29.9200 N.4      13 LYL4        0.0000 
     14 NZ          1.3930   -7.0820   31.9730 N.4       8 LYP4        0.0000 
     15 N           1.9410   -7.9650   30.9465 N.am      2 SEC2        0.0000 
     16 N           2.4890   -8.8480   29.9200 N.am     12 SEL2        0.0000 
     17 N           1.3930   -7.0820   31.9730 N.am      7 SEP2        0.0000 
     18 NZ          2.0065   -6.0640   31.3270 N.4       3 LYC4        0.0000 
     19 NZ          2.6200   -5.0460   30.6810 N.4      13 LYL4        0.0000 
     20 N           2.2900   -3.5220   30.3940 N.am      2 SEC2        0.0000 
     21 N           2.6200   -5.0460   30.6810 N.am     12 SEL2        0.0000 
     22 N           1.9600   -1.9980   30.1070 N.am      7 SEP2        0.0000 
     23 N           3.1325   -3.9630   31.4695 N.am      2 SEC2        0.0000 
     24 N           3.6450   -2.8800   32.2580 N.am      7 SEP2        0.0000 
     25 N           2.0065   -6.0640   31.3270 N.am      2 SEC2        0.0000 
     26 Zn          5.6635   -6.5675   30.5970 Zn        4 ZIC7        0.0000 
     27 Zn          4.9970   -5.8380   30.5020 Zn       14 ZIL7        0.0000 
     28 N           5.6560   -4.8620   31.5475 N.am      2 SEC2        0.0000 
     29 N           4.9970   -5.8380   30.5020 N.am     12 SEL2        0.0000 
     30 N           6.3150   -3.8860   32.5930 N.am      7 SEP2        0.0000 
     31 N           2.9585   -3.1160   29.4770 N.am      2 SEC2        0.0000 
     32 N           3.9570   -4.2340   28.8470 N.am     12 SEL2        0.0000 
     33 N           6.7410   -2.2500   30.3155 N.am      2 SEC2        0.0000 
     34 N           5.9310   -2.7520   29.2570 N.am     12 SEL2        0.0000 
     35 N           7.5510   -1.7480   31.3740 N.am      7 SEP2        0.0000 
     36 N           6.5095   -1.6125   29.0085 N.am      2 SEC2        0.0000 
     37 N           7.0880   -0.4730   28.7600 N.am      7 SEP2        0.0000 
     38 CA          1.7975   -3.6050   26.4040 C.3       5 GLC5        0.0000 
     39 CA          3.7670   -2.8480   26.1810 C.3      15 GLL5        0.0000 
     40 CA         -0.1720   -4.3620   26.6270 C.3      10 GLP5        0.0000 
     41 CA          4.1785   -4.6275   25.7675 C.3       5 GLC5        0.0000 
     42 CA          4.5900   -6.4070   25.3540 C.3      10 GLP5        0.0000 
     43 CA          1.8050   -2.3230   24.6735 C.3       5 GLC5        0.0000 
     44 CA          3.6580   -1.7460   25.1310 C.3      15 GLL5        0.0000 
     45 CA         -0.0480   -2.9000   24.2160 C.3      10 GLP5        0.0000 
     46 N           1.7435    0.0000   25.7375 N.am      2 SEC2        0.0000 
     47 N           3.1280   -0.5520   25.7660 N.am     12 SEL2        0.0000 
     48 N           0.3590    0.5520   25.7090 N.am      7 SEP2        0.0000 
     49 O           7.4985    0.7300   24.6315 O.2       1 ALC1        0.0000 
     50 O           6.1940    0.8230   24.5470 O.2      11 ALL1        0.0000 
     51 O           8.8030    0.6370   24.7160 O.2       6 ALP1        0.0000 
     52 CA          2.1380    0.8815   26.2405 C.3       5 GLC5        0.0000 
     53 CA          3.9850    0.5210   25.4620 C.3      15 GLL5        0.0000 
     54 CA          0.2910    1.2420   27.0190 C.3      10 GLP5        0.0000 
     55 N           3.1675    2.2260   29.8695 N.am      2 SEC2        0.0000 
     56 N           4.1150    2.1240   28.6830 N.am     12 SEL2        0.0000 
     57 N           2.2200    2.3280   31.0560 N.am      7 SEP2        0.0000 
     58 CA          1.8285    3.2765   28.0390 C.3       5 GLC5        0.0000 
     59 CA          3.7170    3.1810   27.8710 C.3      15 GLL5        0.0000 
     60 CA         -0.0600    3.3720   28.2070 C.3      10 GLP5        0.0000 
     61 CA          5.0730    3.3815   29.4615 C.3       5 GLC5        0.0000 
     62 CA          6.4290    3.5820   31.0520 C.3      10 GLP5        0.0000 
     63 N           5.0165    5.6575   29.2440 N.am      2 SEC2        0.0000 
     64 N           3.4830    5.1170   29.2790 N.am     12 SEL2        0.0000 
     65 N           6.5500    6.1980   29.2090 N.am      7 SEP2        0.0000 
     66 O           2.6845    6.5265   27.3670 O.2       1 ALC1        0.0000 
     67 O           3.0560    5.2530   27.0580 O.2      11 ALL1        0.0000 
     68 O           2.3130    7.8000   27.6760 O.2       6 ALP1        0.0000 
     69 O           2.7835    6.7090   26.2895 O.2       1 ALC1        0.0000 
     70 O           2.5110    8.1650   25.5210 O.2       6 ALP1        0.0000 
     71 O           2.5550    6.8875   25.1815 O.2       1 ALC1        0.0000 
     72 O           2.5990    5.6100   24.8420 O.2      11 ALL1        0.0000 
     73 CA          1.9495    2.0070   26.7905 C.3       5 GLC5        0.0000 
     74 CA          3.6080    2.7720   26.5620 C.3      15 GLL5        0.0000 
     75 CA          4.7105   -3.3623   23.9655 C.3       5 GLC5        0.0000 
     76 CA          5.1020   -5.1730   23.1250 C.3      10 GLP5        0.0000 
     77 CA          5.9220    1.8913   25.6050 C.3       5 GLC5        0.0000 
     78 CA          5.3570   -0.0900   25.2340 C.3      15 GLL5        0.0000 
     79 CA          7.1730    3.5670   25.8620 C.3      10 GLP5        0.0000 
@<TRIPOS>BOND
@<TRIPOS>SUBSTRUCTURE
     1 ALC1       49 GROUP        1 X    ALC  0     ROOT ALC X 1
     2 SEC2        1 GROUP        1 X    SEC  0     **** SEC X 2
     3 LYC4       12 GROUP        1 X    LYC  0     **** LYC X 4
     4 ZIC7        6 GROUP        1 X    ZIC  0     **** ZIC X 5
     5 GLC5       38 GROUP        1 X    GLC  0     **** GLC X 6
     6 ALP1       51 GROUP        1 Y    ALP  0     ROOT ALP Y 8
     7 SEP2        3 GROUP        1 Y    SEP  0     **** SEP Y 9
     8 LYP4       14 GROUP        1 Y    LYP  0     **** LYP Y 11
     9 ZIP7        8 GROUP        1 Y    ZIP  0     **** ZIP Y 12
    10 GLP5       40 GROUP        1 Y    GLP  0     **** GLP Y 13
    11 ALL1       50 GROUP        1 Z    ALL  0     ROOT ALL Z 15
    12 SEL2        2 GROUP        1 Z    SEL  0     **** SEL Z 16
    13 LYL4       13 GROUP        1 Z    LYL  0     **** LYL Z 18
    14 ZIL7        7 GROUP        1 Z    ZIL  0     **** ZIL Z 19
    15 GLL5       39 GROUP        1 Z    GLL  0     **** GLL Z 20
@<TRIPOS>SET

