#    Name: 1yzt_GNP_1_ligand
#    Modification time : Tue Mar 25 11:23:29 2014

@<TRIPOS>MOLECULE
1yzt_GNP_1_ligand
   44    46     1     0     0
SMALL
NO_CHARGES


@<TRIPOS>ATOM
      1 PG          3.6130   -8.3020   29.1060 P.3       1 GNP701      0.0000 
      2 O1G         3.5140   -9.0100   27.7710 O.co2     1 GNP701      0.0000 
      3 O2G         4.9860   -8.5110   29.6940 O.co2     1 GNP701      0.0000 
      4 O3G         2.4890   -8.8480   29.9200 O.co2     1 GNP701      0.0000 
      5 N3B         3.3430   -6.7240   28.8550 N.4       1 GNP701      0.0000 
      6 PB          3.7350   -5.4780   29.8040 P.3       1 GNP701      0.0000 
      7 O1B         2.6200   -5.0460   30.6810 O.co2     1 GNP701      0.0000 
      8 O2B         4.9970   -5.8380   30.5020 O.co2     1 GNP701      0.0000 
      9 O3A         3.9570   -4.2340   28.8470 O.3       1 GNP701      0.0000 
     10 PA          5.2340   -3.5760   28.2320 P.3       1 GNP701      0.0000 
     11 O1A         5.9310   -2.7520   29.2570 O.co2     1 GNP701      0.0000 
     12 O2A         6.0830   -4.5160   27.4830 O.co2     1 GNP701      0.0000 
     13 O5'         4.7470   -2.5140   27.1780 O.3       1 GNP701      0.0000 
     14 C5'         3.7670   -2.8480   26.1810 C.3       1 GNP701      0.0000 
     15 C4'         3.6580   -1.7460   25.1310 C.3       1 GNP701      0.0000 
     16 O4'         3.1280   -0.5520   25.7660 O.3       1 GNP701      0.0000 
     17 C3'         4.9800   -1.3570   24.4810 C.3       1 GNP701      0.0000 
     18 O3'         4.8530   -1.1280   23.0770 O.3       1 GNP701      0.0000 
     19 C2'         5.3570   -0.0900   25.2340 C.3       1 GNP701      0.0000 
     20 O2'         6.1940    0.8230   24.5470 O.3       1 GNP701      0.0000 
     21 C1'         3.9850    0.5210   25.4620 C.3       1 GNP701      0.0000 
     22 N9          3.9490    1.4330   26.5890 N.pl3     1 GNP701      0.0000 
     23 C8          4.2390    1.1160   27.8860 C.2       1 GNP701      0.0000 
     24 N7          4.1150    2.1240   28.6830 N.2       1 GNP701      0.0000 
     25 C5          3.7170    3.1810   27.8710 C.2       1 GNP701      0.0000 
     26 C6          3.4440    4.5360   28.1860 C.2       1 GNP701      0.0000 
     27 O6          3.4830    5.1170   29.2790 O.2       1 GNP701      0.0000 
     28 N1          3.0560    5.2530   27.0580 N.am      1 GNP701      0.0000 
     29 C2          2.9630    4.7480   25.7850 C.2       1 GNP701      0.0000 
     30 N2          2.5990    5.6100   24.8420 N.pl3     1 GNP701      0.0000 
     31 N3          3.2420    3.4980   25.4640 N.2       1 GNP701      0.0000 
     32 C4          3.6080    2.7720   26.5620 C.2       1 GNP701      0.0000 
     33 H           2.7713   -2.9869   26.6280 H         1 GNP701      0.0000 
     34 H           4.0254   -3.7832   25.6621 H         1 GNP701      0.0000 
     35 H           2.9745   -2.0679   24.3550 H         1 GNP701      0.0000 
     36 H           5.6984   -2.1082   24.7307 H         1 GNP701      0.0000 
     37 H           5.7229   -0.3807   26.2012 H         1 GNP701      0.0000 
     38 H           3.6754    1.0080   24.5605 H         1 GNP701      0.0000 
     39 H           4.5143    0.1901   28.1489 H         1 GNP701      0.0000 
     40 H           2.8110    6.2845   27.2031 H         1 GNP701      0.0000 
     41 H           2.8852    6.5583   24.9786 H         1 GNP701      0.0000 
     42 H           2.0717    5.2327   24.0807 H         1 GNP701      0.0000 
     43 H           5.2509   -0.2232   22.9254 H         1 GNP701      0.0000 
     44 H           7.1258    0.5169   24.7421 H         1 GNP701      0.0000 
@<TRIPOS>BOND
     1    2    1 ar   
     2    3    1 ar   
     3    4    1 ar   
     4    5    1 1    
     5    6    5 1    
     6    7    6 ar   
     7    8    6 ar   
     8    9    6 1    
     9   10    9 1    
    10   11   10 ar   
    11   12   10 ar   
    12   13   10 1    
    13   14   13 1    
    14   15   14 1    
    15   33   14 1    
    16   34   14 1    
    17   16   15 1    
    18   17   15 1    
    19   35   15 1    
    20   21   16 1    
    21   18   17 1    
    22   19   17 1    
    23   36   17 1    
    24   43   18 1    
    25   20   19 1    
    26   21   19 1    
    27   37   19 1    
    28   44   20 1    
    29   22   21 1    
    30   38   21 1    
    31   23   22 1    
    32   32   22 1    
    33   24   23 2    
    34   39   23 1    
    35   25   24 1    
    36   26   25 1    
    37   32   25 2    
    38   27   26 2    
    39   28   26 am   
    40   29   28 1    
    41   40   28 1    
    42   30   29 1    
    43   31   29 2    
    44   41   30 1    
    45   42   30 1    
    46   32   31 1    
@<TRIPOS>SUBSTRUCTURE
     1 GNP701      1 GROUP   
@<TRIPOS>SET

