#    Name: 4j02_1JE_2_INTS_M
#    Modification time : Tue Mar 25 04:56:55 2014

@<TRIPOS>MOLECULE
4j02_1JE_2_INTS_M
   59     0     6     0     0
SMALL
NO_CHARGES


@<TRIPOS>ATOM
      1 CA        -25.2200  -26.7520  -18.4755 C.3       2 GLC5        0.0000 
      2 CA        -24.7470  -25.6300  -16.7610 C.3       6 GLL5        0.0000 
      3 CA        -25.6930  -27.8740  -20.1900 C.3       4 GLP5        0.0000 
      4 CA        -22.2280  -22.7705  -15.2125 C.3       2 GLC5        0.0000 
      5 CA        -21.4630  -24.1510  -13.8190 C.3       6 GLL5        0.0000 
      6 CA        -22.9930  -21.3900  -16.6060 C.3       4 GLP5        0.0000 
      7 CA        -21.2140  -23.6945  -16.8465 C.3       2 GLC5        0.0000 
      8 CA        -20.0400  -25.0150  -15.7040 C.3       6 GLL5        0.0000 
      9 CA        -22.3880  -22.3740  -17.9890 C.3       4 GLP5        0.0000 
     10 CA        -19.3840  -25.7705  -17.3480 C.3       2 GLC5        0.0000 
     11 CA        -18.7280  -26.5260  -18.9920 C.3       4 GLP5        0.0000 
     12 CA        -26.2720  -22.1475  -13.0430 C.3       2 GLC5        0.0000 
     13 CA        -25.9580  -23.9970  -13.2550 C.3       6 GLL5        0.0000 
     14 CA        -26.5860  -20.2980  -12.8310 C.3       4 GLP5        0.0000 
     15 CA        -26.9805  -24.0525  -11.5400 C.3       2 GLC5        0.0000 
     16 CA        -28.0030  -24.1080   -9.8250 C.3       4 GLP5        0.0000 
     17 CA        -26.5030  -22.8715  -14.8080 C.3       2 GLC5        0.0000 
     18 CA        -27.0480  -21.7460  -16.3610 C.3       4 GLP5        0.0000 
     19 CA        -22.4005  -24.2670  -17.9945 C.3       2 GLC5        0.0000 
     20 CA        -22.4130  -26.1600  -18.0000 C.3       6 GLL5        0.0000 
     21 CA        -23.4550  -26.0180  -19.6330 C.3       2 GLC5        0.0000 
     22 CA        -24.4970  -25.8760  -21.2660 C.3       4 GLP5        0.0000 
     23 CA        -20.5705  -26.3430  -18.4960 C.3       2 GLC5        0.0000 
     24 CA        -19.6255  -24.1895   -9.7475 C.3       2 GLC5        0.0000 
     25 CA        -20.1570  -24.5330  -11.6350 C.3       6 GLL5        0.0000 
     26 CA        -19.0940  -23.8460   -7.8600 C.3       4 GLP5        0.0000 
     27 N         -21.6090  -24.7680   -8.4215 N.am      1 SEC2        0.0000 
     28 N         -21.2510  -25.4140   -9.7100 N.am      5 SEL2        0.0000 
     29 N         -21.9670  -24.1220   -7.1330 N.am      3 SEP2        0.0000 
     30 CA        -21.3325  -21.1030  -11.2200 C.3       2 GLC5        0.0000 
     31 CA        -20.2700  -22.1690  -12.6830 C.3       6 GLL5        0.0000 
     32 CA        -22.3950  -20.0370   -9.7570 C.3       4 GLP5        0.0000 
     33 CA        -18.3375  -21.7670  -13.4245 C.3       2 GLC5        0.0000 
     34 CA        -16.4050  -21.3650  -14.1660 C.3       4 GLP5        0.0000 
     35 CA        -19.1675  -21.4750  -15.4395 C.3       2 GLC5        0.0000 
     36 CA        -20.1560  -21.2500  -13.9210 C.3       6 GLL5        0.0000 
     37 CA        -18.1790  -21.7000  -16.9580 C.3       4 GLP5        0.0000 
     38 CA        -19.6015  -18.0295  -12.9340 C.3       2 GLC5        0.0000 
     39 CA        -20.1420  -19.7780  -13.5260 C.3       6 GLL5        0.0000 
     40 CA        -19.0610  -16.2810  -12.3420 C.3       4 GLP5        0.0000 
     41 CA        -21.2685  -19.9075  -11.6415 C.3       2 GLC5        0.0000 
     42 CA        -18.4205  -20.0725  -14.3985 C.3       2 GLC5        0.0000 
     43 CA        -16.6990  -20.3670  -15.2710 C.3       4 GLP5        0.0000 
     44 CA        -24.1913  -22.5230  -13.8370 C.3       2 GLC5        0.0000 
     45 CA        -23.5710  -24.5040  -14.4580 C.3       6 GLL5        0.0000 
     46 CA        -24.1100  -20.5050  -13.1790 C.3       4 GLP5        0.0000 
     47 CA        -23.6328  -22.9655  -15.5505 C.3       2 GLC5        0.0000 
     48 CA        -26.1600  -23.3032  -15.7370 C.3       2 GLC5        0.0000 
     49 CA        -24.9740  -24.5780  -14.5320 C.3       6 GLL5        0.0000 
     50 CA        -23.2112  -23.9827  -17.3543 C.3       2 GLC5        0.0000 
     51 CA        -25.1492  -24.1628  -17.6212 C.3       2 GLC5        0.0000 
     52 CA        -23.3220  -25.5530  -16.6780 C.3       6 GLL5        0.0000 
     53 CA        -26.2640  -22.7340  -18.5230 C.3       4 GLP5        0.0000 
     54 CA        -22.2138  -23.6180  -16.6355 C.3       2 GLC5        0.0000 
     55 CA        -22.7320  -24.9920  -15.5160 C.3       6 GLL5        0.0000 
     56 CA        -18.8280  -23.3685  -16.0675 C.3       2 GLC5        0.0000 
     57 CA        -21.0420  -20.2225  -15.2523 C.3       2 GLC5        0.0000 
     58 CA        -21.9350  -19.9310  -16.7810 C.3       4 GLP5        0.0000 
     59 CA        -22.1437  -20.6244  -13.2965 C.3       2 GLC5        0.0000 
@<TRIPOS>BOND
@<TRIPOS>SUBSTRUCTURE
     1 SEC2       27 GROUP        1 X    SEC  0     ROOT SEC X 2
     2 GLC5        1 GROUP        1 X    GLC  0     **** GLC X 6
     3 SEP2       29 GROUP        1 Y    SEP  0     ROOT SEP Y 9
     4 GLP5        3 GROUP        1 Y    GLP  0     **** GLP Y 13
     5 SEL2       28 GROUP        1 Z    SEL  0     ROOT SEL Z 16
     6 GLL5        2 GROUP        1 Z    GLL  0     **** GLL Z 20
@<TRIPOS>SET

