#    Name: 4j02_1JE_2_ligand
#    Modification time : Tue Mar 25 04:56:55 2014

@<TRIPOS>MOLECULE
4j02_1JE_2_ligand
   38    40     1     0     0
SMALL
NO_CHARGES


@<TRIPOS>ATOM
      1 C1        -23.5710  -24.5040  -14.4580 C.ar      1 1JE601      0.0000 
      2 C2        -24.9740  -24.5780  -14.5320 C.ar      1 1JE601      0.0000 
      3 C3        -25.5700  -25.1430  -15.6940 C.ar      1 1JE601      0.0000 
      4 C4        -24.7470  -25.6300  -16.7610 C.ar      1 1JE601      0.0000 
      5 C5        -23.3220  -25.5530  -16.6780 C.ar      1 1JE601      0.0000 
      6 C6        -22.7320  -24.9920  -15.5160 C.ar      1 1JE601      0.0000 
      7 N7        -22.7710  -24.0010  -13.4370 N.pl3     1 1JE601      0.0000 
      8 C8        -21.4630  -24.1510  -13.8190 C.2       1 1JE601      0.0000 
      9 C9        -21.3470  -24.7320  -15.0480 C.2       1 1JE601      0.0000 
     10 C10       -20.2570  -23.7170  -12.9670 C.3       1 1JE601      0.0000 
     11 O11       -18.9770  -23.9310  -13.7150 O.3       1 1JE601      0.0000 
     12 C12       -18.9140  -25.0590  -14.6500 C.3       1 1JE601      0.0000 
     13 C13       -20.0400  -25.0150  -15.7040 C.3       1 1JE601      0.0000 
     14 CL1       -25.9580  -23.9970  -13.2550 Cl        1 1JE601      0.0000 
     15 CL2       -22.4130  -26.1600  -18.0000 Cl        1 1JE601      0.0000 
     16 C16       -20.1570  -24.5330  -11.6350 C.3       1 1JE601      0.0000 
     17 C17       -21.3320  -24.4660  -10.6650 C.2       1 1JE601      0.0000 
     18 O18       -22.2640  -23.6700  -10.7000 O.co2     1 1JE601      0.0000 
     19 O19       -21.2510  -25.4140   -9.7100 O.co2     1 1JE601      0.0000 
     20 C20       -20.2700  -22.1690  -12.6830 C.3       1 1JE601      0.0000 
     21 C21       -20.1560  -21.2500  -13.9210 C.3       1 1JE601      0.0000 
     22 C22       -20.1420  -19.7780  -13.5260 C.3       1 1JE601      0.0000 
     23 H         -26.5823  -25.2033  -15.7716 H         1 1JE601      0.0000 
     24 H         -25.1842  -26.0359  -17.5884 H         1 1JE601      0.0000 
     25 H         -23.0861  -23.6237  -12.6253 H         1 1JE601      0.0000 
     26 H         -18.9947  -26.0169  -14.1126 H         1 1JE601      0.0000 
     27 H         -17.9523  -25.0684  -15.1866 H         1 1JE601      0.0000 
     28 H         -19.8011  -24.2382  -16.4285 H         1 1JE601      0.0000 
     29 H         -20.0698  -25.9765  -16.2140 H         1 1JE601      0.0000 
     30 H         -19.2293  -24.2030  -11.1075 H         1 1JE601      0.0000 
     31 H         -19.9695  -25.5999  -11.9077 H         1 1JE601      0.0000 
     32 H         -19.4389  -21.9438  -11.9903 H         1 1JE601      0.0000 
     33 H         -21.2043  -21.9306  -12.1431 H         1 1JE601      0.0000 
     34 H         -21.0034  -21.4434  -14.5791 H         1 1JE601      0.0000 
     35 H         -19.2366  -21.4938  -14.4538 H         1 1JE601      0.0000 
     36 H         -19.3727  -19.5621  -12.9246 H         1 1JE601      0.0000 
     37 H         -20.0670  -19.1800  -14.3240 H         1 1JE601      0.0000 
     38 H         -20.9760  -19.5158  -13.0406 H         1 1JE601      0.0000 
@<TRIPOS>BOND
     1    2    1 ar   
     2    6    1 ar   
     3    7    1 1    
     4    3    2 ar   
     5   14    2 1    
     6    4    3 ar   
     7   23    3 1    
     8    5    4 ar   
     9   24    4 1    
    10    6    5 ar   
    11   15    5 1    
    12    9    6 1    
    13    8    7 1    
    14   25    7 1    
    15    9    8 2    
    16   10    8 1    
    17   13    9 1    
    18   11   10 1    
    19   16   10 1    
    20   20   10 1    
    21   12   11 1    
    22   13   12 1    
    23   26   12 1    
    24   27   12 1    
    25   28   13 1    
    26   29   13 1    
    27   17   16 1    
    28   30   16 1    
    29   31   16 1    
    30   18   17 ar   
    31   19   17 ar   
    32   21   20 1    
    33   32   20 1    
    34   33   20 1    
    35   22   21 1    
    36   34   21 1    
    37   35   21 1    
    38   36   22 1    
    39   37   22 1    
    40   38   22 1    
@<TRIPOS>SUBSTRUCTURE
     1 1JE601      1 GROUP   
@<TRIPOS>SET

