#    Name: 2L2S_1_CAVITY_N1_ALL.mol2
#    Modification time : Mon Mar 10 23:44:30 2014

@<TRIPOS>MOLECULE
2L2S_1_CAVITY_N1_ALL.mol2
   63     0     7     0     0
SMALL
NO_CHARGES


@<TRIPOS>ATOM
      1 CZ         -4.0036   36.7027   -4.9184 C.ar      5 PHE5        0.0000 
      2 CZ         -4.8212   35.8992   -3.9511 C.ar      5 PHE5        0.0000 
      3 DU         -5.0032   36.4179   -6.0000 H         7 CUB7        0.0000 
      4 NZ         -6.6385   34.8108   -4.0653 N.2       4 LYS4        0.0000 
      5 OD1        -1.4233   36.5569   -5.1845 O.3       3 ASP3        0.0000 
      6 CZ         -2.2409   35.7534   -4.2172 C.ar      5 PHE5        0.0000 
      7 N          -1.6052   37.0756   -7.2334 N.2       2 ALA2        0.0000 
      8 DU         -2.4229   36.2721   -6.2660 H         7 CUB7        0.0000 
      9 CZ         -3.2405   35.4685   -5.2987 C.ar      5 PHE5        0.0000 
     10 OG         -4.0582   34.6650   -4.3313 O.2       1 SER1        0.0000 
     11 DU         -3.4225   35.9872   -7.3475 H         7 CUB7        0.0000 
     12 DU         -4.2401   35.1837   -6.3802 H         7 CUB7        0.0000 
     13 NZ         -5.0578   34.3801   -5.4128 N.2       4 LYS4        0.0000 
     14 CA         -3.6044   36.5059   -9.3964 C.3       6 GLY6        0.0000 
     15 DU         -4.4221   35.7024   -8.4290 H         7 CUB7        0.0000 
     16 NZ         -6.0574   34.0953   -6.4943 N.2       4 LYS4        0.0000 
     17 DU         -5.4217   35.4175   -9.5105 H         7 CUB7        0.0000 
     18 NZ         -7.0570   33.8105   -7.5758 N.2       4 LYS4        0.0000 
     19 NZ         -7.8746   33.0069   -6.6085 N.2       4 LYS4        0.0000 
     20 OD1        -0.6602   35.3228   -5.5647 O.3       3 ASP3        0.0000 
     21 CZ         -1.4779   34.5192   -4.5974 C.ar      5 PHE5        0.0000 
     22 CA         -0.8422   35.8415   -7.6136 C.3       6 GLY6        0.0000 
     23 CA         -1.6598   35.0379   -6.6462 C.3       6 GLY6        0.0000 
     24 CZ         -2.4775   34.2344   -5.6789 C.ar      5 PHE5        0.0000 
     25 CZ         -3.2951   33.4308   -4.7115 C.ar      5 PHE5        0.0000 
     26 CA         -2.6594   34.7531   -7.7277 C.3       6 GLY6        0.0000 
     27 DU         -3.4771   33.9495   -6.7604 H         7 CUB7        0.0000 
     28 CZ         -4.2947   33.1460   -5.7930 C.ar      5 PHE5        0.0000 
     29 CZ         -5.1123   32.3424   -4.8257 C.ar      5 PHE5        0.0000 
     30 CA         -2.8414   35.2718   -9.7766 C.3       6 GLY6        0.0000 
     31 CA         -3.6590   34.4682   -8.8093 C.3       6 GLY6        0.0000 
     32 DU         -4.4766   33.6647   -7.8419 H         7 CUB7        0.0000 
     33 NZ         -5.2943   32.8611   -6.8745 N.2       4 LYS4        0.0000 
     34 NZ         -6.1119   32.0576   -5.9072 N.2       4 LYS4        0.0000 
     35 CA         -3.0233   35.7905  -11.8255 C.3       6 GLY6        0.0000 
     36 CA         -3.8410   34.9869  -10.8581 C.3       6 GLY6        0.0000 
     37 DU         -4.6586   34.1834   -9.8908 H         7 CUB7        0.0000 
     38 DU         -5.4762   33.3798   -8.9234 H         7 CUB7        0.0000 
     39 CZ         -6.2939   32.5763   -7.9561 C.ar      5 PHE5        0.0000 
     40 CZ         -7.1115   31.7727   -6.9887 C.ar      5 PHE5        0.0000 
     41 N          -4.8406   34.7021  -11.9396 N.2       2 ALA2        0.0000 
     42 N          -5.6582   33.8985  -10.9723 N.2       2 ALA2        0.0000 
     43 DU         -6.4758   33.0950  -10.0049 H         7 CUB7        0.0000 
     44 CZ         -7.2935   32.2914   -9.0376 C.ar      5 PHE5        0.0000 
     45 CZ         -7.4754   32.8101  -11.0864 C.ar      5 PHE5        0.0000 
     46 CA          0.1029   34.0886   -5.9449 C.3       6 GLY6        0.0000 
     47 CZ         -0.7148   33.2850   -4.9776 C.ar      5 PHE5        0.0000 
     48 CA         -0.8967   33.8037   -7.0264 C.3       6 GLY6        0.0000 
     49 CZ         -1.7144   33.0002   -6.0591 C.ar      5 PHE5        0.0000 
     50 CA         -1.8963   33.5189   -8.1080 C.3       6 GLY6        0.0000 
     51 CZ         -2.7140   32.7153   -7.1406 C.ar      5 PHE5        0.0000 
     52 CZ         -3.5316   31.9118   -6.1732 C.ar      5 PHE5        0.0000 
     53 CA         -2.8959   33.2340   -9.1895 C.3       6 GLY6        0.0000 
     54 CZ         -3.7136   32.4305   -8.2221 C.ar      5 PHE5        0.0000 
     55 CZ         -4.5312   31.6270   -7.2548 C.ar      5 PHE5        0.0000 
     56 CZ         -5.3489   30.8234   -6.2874 C.ar      5 PHE5        0.0000 
     57 CA         -3.0779   33.7528  -11.2383 C.3       6 GLY6        0.0000 
     58 CZ         -3.8955   32.9492  -10.2710 C.ar      5 PHE5        0.0000 
     59 CZ         -4.7132   32.1457   -9.3036 C.ar      5 PHE5        0.0000 
     60 CZ         -5.5308   31.3421   -8.3363 C.ar      5 PHE5        0.0000 
     61 O          -4.8951   32.6644  -11.3525 O.2       2 ALA2        0.0000 
     62 O          -5.7128   31.8608  -10.3851 O.2       2 ALA2        0.0000 
     63 CZ         -6.5304   31.0573   -9.4178 C.ar      5 PHE5        0.0000 
@<TRIPOS>BOND
@<TRIPOS>SUBSTRUCTURE
     1 SER1       10 GROUP   
     2 ALA2        7 GROUP   
     3 ASP3        5 GROUP   
     4 LYS4        4 GROUP   
     5 PHE5        1 GROUP   
     6 GLY6       14 GROUP   
     7 CUB7        3 GROUP   
@<TRIPOS>SET

