#    Name: 2l2s_L2S_1_INTS_M
#    Modification time : Tue Mar 25 21:16:37 2014

@<TRIPOS>MOLECULE
2l2s_L2S_1_INTS_M
   14     0     3     0     0
SMALL
NO_CHARGES


@<TRIPOS>ATOM
      1 CA         -4.4210   30.6800   -9.5600 C.3       1 GLC5        0.0000 
      2 CA         -5.2630   32.1880   -9.8700 C.3       3 GLL5        0.0000 
      3 CA         -3.5790   29.1720   -9.2500 C.3       2 GLP5        0.0000 
      4 CA         -3.7500   31.4370  -10.3200 C.3       1 GLC5        0.0000 
      5 CA         -4.3660   33.4000  -10.1050 C.3       3 GLL5        0.0000 
      6 CA         -3.1340   29.4740  -10.5350 C.3       2 GLP5        0.0000 
      7 CA         -7.6615   31.6390   -7.4125 C.3       1 GLC5        0.0000 
      8 CA         -6.5670   33.4500   -8.1250 C.3       3 GLL5        0.0000 
      9 CA         -8.7560   29.8280   -6.7000 C.3       2 GLP5        0.0000 
     10 CA         -8.1495   31.3790   -8.5680 C.3       1 GLC5        0.0000 
     11 CA         -6.6620   32.6280   -9.4190 C.3       3 GLL5        0.0000 
     12 CA         -9.6370   30.1300   -7.7170 C.3       2 GLP5        0.0000 
     13 CA         -2.2412   34.3743   -9.6685 C.3       1 GLC5        0.0000 
     14 CA         -0.1780   34.9350   -9.8790 C.3       2 GLP5        0.0000 
@<TRIPOS>BOND
@<TRIPOS>SUBSTRUCTURE
     1 GLC5        1 GROUP        1 X    GLC  0     ROOT GLC X 6
     2 GLP5        3 GROUP        1 Y    GLP  0     ROOT GLP Y 13
     3 GLL5        2 GROUP        1 Z    GLL  0     ROOT GLL Z 20
@<TRIPOS>SET

