#    Name: 2l2s_L2S_1_ligand
#    Modification time : Tue Mar 25 21:16:37 2014

@<TRIPOS>MOLECULE
2l2s_L2S_1_ligand
   36    37     1     0     0
SMALL
NO_CHARGES


@<TRIPOS>ATOM
      1 C1         -5.2630   32.1880   -9.8700 C.3       1 L2S130      0.0000 
      2 N1         -5.5790   34.5610   -8.2350 N.am      1 L2S130      0.0000 
      3 O1         -4.8510   36.6040   -7.5220 O.2       1 L2S130      0.0000 
      4 S1         -7.0480   37.6240   -6.0250 S.3       1 L2S130      0.0000 
      5 C2         -4.3660   33.4000  -10.1050 C.3       1 L2S130      0.0000 
      6 C3         -4.2430   34.2270   -8.8110 C.3       1 L2S130      0.0000 
      7 C4         -6.5670   33.4500   -8.1250 C.3       1 L2S130      0.0000 
      8 C5         -6.6620   32.6280   -9.4190 C.3       1 L2S130      0.0000 
      9 C6         -5.7550   35.7710   -7.6430 C.2       1 L2S130      0.0000 
     10 C7         -7.1500   36.1490   -7.1260 C.3       1 L2S130      0.0000 
     11 C8         -7.6990   37.0830   -4.4860 C.ar      1 L2S130      0.0000 
     12 C9         -6.8310   36.3400   -3.6520 C.ar      1 L2S130      0.0000 
     13 C10        -7.3370   35.7110   -2.4980 C.ar      1 L2S130      0.0000 
     14 C11        -8.7150   35.8460   -2.1910 C.ar      1 L2S130      0.0000 
     15 C12        -9.5840   36.5840   -3.0160 C.ar      1 L2S130      0.0000 
     16 C13        -9.0780   37.2130   -4.1700 C.ar      1 L2S130      0.0000 
     17 C14        -9.2190   35.2220   -1.0460 C.3       1 L2S130      0.0000 
     18 H          -4.8236   31.5565   -9.1011 H         1 L2S130      0.0000 
     19 H          -5.3495   31.6178  -10.7922 H         1 L2S130      0.0000 
     20 H          -4.7935   34.0232  -10.8829 H         1 L2S130      0.0000 
     21 H          -3.3786   33.0683  -10.4071 H         1 L2S130      0.0000 
     22 H          -3.6533   33.6504   -8.0893 H         1 L2S130      0.0000 
     23 H          -3.6900   35.1448   -9.0408 H         1 L2S130      0.0000 
     24 H          -7.5631   33.8515   -7.8971 H         1 L2S130      0.0000 
     25 H          -6.2861   32.7743   -7.3066 H         1 L2S130      0.0000 
     26 H          -7.2736   31.7505   -9.2407 H         1 L2S130      0.0000 
     27 H          -7.1145   33.2349  -10.1953 H         1 L2S130      0.0000 
     28 H          -7.8119   36.4873   -7.8815 H         1 L2S130      0.0000 
     29 H          -7.5805   35.4261   -6.4814 H         1 L2S130      0.0000 
     30 H          -5.8418   36.2617   -3.8882 H         1 L2S130      0.0000 
     31 H          -6.7299   35.1697   -1.8938 H         1 L2S130      0.0000 
     32 H         -10.5724   36.6630   -2.7805 H         1 L2S130      0.0000 
     33 H          -9.6884   37.7554   -4.7740 H         1 L2S130      0.0000 
     34 H          -9.0887   34.2310   -1.0753 H         1 L2S130      0.0000 
     35 H          -8.7707   35.5521   -0.2153 H         1 L2S130      0.0000 
     36 H         -10.1993   35.3856   -0.9349 H         1 L2S130      0.0000 
@<TRIPOS>BOND
     1    5    1 1    
     2    8    1 1    
     3   18    1 1    
     4   19    1 1    
     5    6    2 1    
     6    7    2 1    
     7    9    2 am   
     8    9    3 2    
     9   10    4 1    
    10   11    4 1    
    11    6    5 1    
    12   20    5 1    
    13   21    5 1    
    14   22    6 1    
    15   23    6 1    
    16    8    7 1    
    17   24    7 1    
    18   25    7 1    
    19   26    8 1    
    20   27    8 1    
    21   10    9 1    
    22   28   10 1    
    23   29   10 1    
    24   12   11 ar   
    25   16   11 ar   
    26   13   12 ar   
    27   30   12 1    
    28   14   13 ar   
    29   31   13 1    
    30   15   14 ar   
    31   17   14 1    
    32   16   15 ar   
    33   32   15 1    
    34   33   16 1    
    35   34   17 1    
    36   35   17 1    
    37   36   17 1    
@<TRIPOS>SUBSTRUCTURE
     1 L2S130      1 GROUP   
@<TRIPOS>SET

