#    Name: 2tpr_FAD_1_INTS_M
#    Modification time : Tue Mar 25 00:07:15 2014

@<TRIPOS>MOLECULE
2tpr_FAD_1_INTS_M
  133     0     9     0     0
SMALL
NO_CHARGES


@<TRIPOS>ATOM
      1 N          27.1840  -27.0555   16.6750 N.am      2 SEC2        0.0000 
      2 N          28.4260  -27.5240   17.0610 N.am      8 SEL2        0.0000 
      3 N          25.9420  -26.5870   16.2890 N.am      5 SEP2        0.0000 
      4 N          31.2645  -27.2135   14.0590 N.am      2 SEC2        0.0000 
      5 N          29.9810  -27.0070   15.0850 N.am      8 SEL2        0.0000 
      6 N          32.5480  -27.4200   13.0330 N.am      5 SEP2        0.0000 
      7 N          28.5165  -26.8000   14.4045 N.am      2 SEC2        0.0000 
      8 N          27.0520  -26.5930   13.7240 N.am      5 SEP2        0.0000 
      9 CA         29.2170  -29.7420   18.4350 C.3       3 GLC5        0.0000 
     10 CA         28.9780  -30.4120   16.4830 C.3       9 GLL5        0.0000 
     11 CA         29.4560  -29.0720   20.3870 C.3       6 GLP5        0.0000 
     12 CA         29.5940  -32.9765   15.5390 C.3       3 GLC5        0.0000 
     13 CA         28.4050  -31.4710   15.6190 C.3       9 GLL5        0.0000 
     14 CA         30.7830  -34.4820   15.4590 C.3       6 GLP5        0.0000 
     15 CA         27.5345  -29.6200   13.7625 C.3       3 GLC5        0.0000 
     16 CA         26.9490  -31.0800   15.2450 C.3       9 GLL5        0.0000 
     17 CA         28.1200  -28.1600   12.2800 C.3       6 GLP5        0.0000 
     18 O          26.3105  -32.5425   13.3250 O.2       1 ALC1        0.0000 
     19 O          26.7790  -31.0320   13.8210 O.2       7 ALL1        0.0000 
     20 O          25.8420  -34.0530   12.8290 O.2       4 ALP1        0.0000 
     21 O          27.3375  -32.2685   13.2545 O.2       1 ALC1        0.0000 
     22 O          27.8960  -33.5050   12.6880 O.2       4 ALP1        0.0000 
     23 O          25.4185  -33.2985   13.9645 O.2       1 ALC1        0.0000 
     24 O          24.9950  -32.5440   15.1000 O.2       7 ALL1        0.0000 
     25 CA         28.9425  -33.9195   15.7500 C.3       3 GLC5        0.0000 
     26 CA         27.1020  -33.3570   16.0410 C.3       9 GLL5        0.0000 
     27 CA         27.5140  -37.7240   20.5385 C.3       3 GLC5        0.0000 
     28 CA         26.5270  -37.4550   18.5930 C.3       9 GLL5        0.0000 
     29 CA         28.5010  -37.9930   22.4840 C.3       6 GLP5        0.0000 
     30 O          26.8805  -39.5840   20.0640 O.2       1 ALC1        0.0000 
     31 O          26.2180  -38.0290   19.7620 O.2       7 ALL1        0.0000 
     32 O          27.5430  -41.1390   20.3660 O.2       4 ALP1        0.0000 
     33 N          26.8565  -39.7700   17.6105 N.am      2 SEC2        0.0000 
     34 N          26.8550  -38.2280   17.5580 N.am      8 SEL2        0.0000 
     35 N          26.8580  -41.3120   17.6630 N.am      5 SEP2        0.0000 
     36 CA         28.6705  -37.9685   17.2995 C.3       3 GLC5        0.0000 
     37 CA         27.0960  -37.6540   16.3840 C.3       9 GLL5        0.0000 
     38 CA         30.2450  -38.2830   18.2150 C.3       6 GLP5        0.0000 
     39 CA         27.8535  -39.0765   15.2335 C.3       3 GLC5        0.0000 
     40 CA         28.6110  -40.4990   14.0830 C.3       6 GLP5        0.0000 
     41 CA         27.1245  -37.2220   14.4895 C.3       3 GLC5        0.0000 
     42 CA         27.1530  -36.7900   12.5950 C.3       6 GLP5        0.0000 
     43 CA         25.3495  -37.6345   16.1770 C.3       3 GLC5        0.0000 
     44 CA         23.6030  -37.6150   15.9700 C.3       6 GLP5        0.0000 
     45 CA         25.8100  -39.4370   16.7240 C.3       3 GLC5        0.0000 
     46 CA         24.5240  -41.2200   17.0640 C.3       6 GLP5        0.0000 
     47 CA         28.8100  -35.0535   16.2895 C.3       3 GLC5        0.0000 
     48 CA         26.8370  -35.6250   17.1200 C.3       9 GLL5        0.0000 
     49 CA         25.1400  -35.9125   16.3045 C.3       3 GLC5        0.0000 
     50 CA         23.4430  -36.2000   15.4890 C.3       6 GLP5        0.0000 
     51 N          32.0310  -19.5615   16.4270 N.am      2 SEC2        0.0000 
     52 N          30.6080  -18.6340   16.4400 N.am      8 SEL2        0.0000 
     53 N          33.4540  -20.4890   16.4140 N.am      5 SEP2        0.0000 
     54 N          32.9990  -19.1505   16.0640 N.am      2 SEC2        0.0000 
     55 N          32.5440  -17.8120   15.7140 N.am      8 SEL2        0.0000 
     56 O          31.2365  -15.7610   14.0390 O.2       1 ALC1        0.0000 
     57 O          30.7060  -16.6730   15.0560 O.2       7 ALL1        0.0000 
     58 O          31.7670  -14.8490   13.0220 O.2       4 ALP1        0.0000 
     59 N          27.8435  -14.9485   13.7010 N.am      2 SEC2        0.0000 
     60 N          28.8550  -15.5930   14.3530 N.am      8 SEL2        0.0000 
     61 N          26.8320  -14.3040   13.0490 N.am      5 SEP2        0.0000 
     62 CA         26.7355  -18.2180   14.3445 C.3       3 GLC5        0.0000 
     63 CA         26.5590  -18.3470   16.4670 C.3       9 GLL5        0.0000 
     64 CA         26.9120  -18.0890   12.2220 C.3       6 GLP5        0.0000 
     65 CA         24.6370  -16.9485   14.8540 C.3       3 GLC5        0.0000 
     66 CA         25.1430  -18.2760   16.4590 C.3       9 GLL5        0.0000 
     67 CA         24.1310  -15.6210   13.2490 C.3       6 GLP5        0.0000 
     68 CA         24.4140  -17.5825   18.3795 C.3       3 GLC5        0.0000 
     69 CA         23.6850  -16.8890   20.3000 C.3       6 GLP5        0.0000 
     70 CA         20.9010  -19.6005   17.6565 C.3       3 GLC5        0.0000 
     71 CA         22.8400  -19.1690   16.8830 C.3       9 GLL5        0.0000 
     72 CA         18.9620  -20.0320   18.4300 C.3       6 GLP5        0.0000 
     73 CA         21.4105  -19.6150   15.4215 C.3       3 GLC5        0.0000 
     74 CA         19.9810  -20.0610   13.9600 C.3       6 GLP5        0.0000 
     75 CA         24.2985  -21.7780   20.2760 C.3       3 GLC5        0.0000 
     76 CA         24.1690  -21.4970   18.2180 C.3       9 GLL5        0.0000 
     77 CA         24.4280  -22.0590   22.3340 C.3       6 GLP5        0.0000 
     78 CA         31.3760  -20.0420   18.2665 C.3       3 GLC5        0.0000 
     79 CA         29.2950  -20.5220   17.8260 C.3       9 GLL5        0.0000 
     80 CA         33.4570  -19.5620   18.7070 C.3       6 GLP5        0.0000 
     81 CA         29.5055  -21.9610   14.6595 C.3       3 GLC5        0.0000 
     82 CA         29.7390  -21.5580   16.8160 C.3       9 GLL5        0.0000 
     83 CA         29.2720  -22.3640   12.5030 C.3       6 GLP5        0.0000 
     84 CA         29.5515  -20.4480   14.9835 C.3       3 GLC5        0.0000 
     85 CA         29.3640  -19.3380   13.1510 C.3       6 GLP5        0.0000 
     86 CA         31.4265  -21.3145   15.4195 C.3       3 GLC5        0.0000 
     87 CA         33.1140  -21.0710   14.0230 C.3       6 GLP5        0.0000 
     88 O          31.5095  -23.1185   19.6790 O.2       1 ALC1        0.0000 
     89 O          31.2150  -22.3190   18.5750 O.2       7 ALL1        0.0000 
     90 O          31.8040  -23.9180   20.7830 O.2       4 ALP1        0.0000 
     91 O          30.4660  -23.3185   19.5415 O.2       1 ALC1        0.0000 
     92 O          29.7170  -24.3180   20.5080 O.2       4 ALP1        0.0000 
     93 CA         32.2885  -24.5435   15.0835 C.3       3 GLC5        0.0000 
     94 CA         31.0970  -23.8370   16.7650 C.3       9 GLL5        0.0000 
     95 CA         33.4800  -25.2500   13.4020 C.3       6 GLP5        0.0000 
     96 CA         32.5290  -22.5870   16.0455 C.3       3 GLC5        0.0000 
     97 CA         33.9610  -21.3370   15.3260 C.3       6 GLP5        0.0000 
     98 N          31.2665  -24.5700   14.4060 N.am      2 SEC2        0.0000 
     99 N          30.3250  -24.4400   15.7410 N.am      8 SEL2        0.0000 
    100 N          32.2080  -24.7000   13.0710 N.am      5 SEP2        0.0000 
    101 CA         31.2250  -25.3645   19.8050 C.3       3 GLC5        0.0000 
    102 CA         31.6030  -24.9660   17.6460 C.3       9 GLL5        0.0000 
    103 CA         30.8470  -25.7630   21.9640 C.3       6 GLP5        0.0000 
    104 CA         33.6525  -25.0060   17.4700 C.3       3 GLC5        0.0000 
    105 CA         35.7020  -25.0460   17.2940 C.3       6 GLP5        0.0000 
    106 N          34.1765  -27.9850   15.4255 N.am      2 SEC2        0.0000 
    107 N          33.2280  -28.1660   16.5140 N.am      8 SEL2        0.0000 
    108 N          35.1250  -27.8040   14.3370 N.am      5 SEP2        0.0000 
    109 N          32.8430  -26.9055   20.1630 N.am      2 SEC2        0.0000 
    110 N          32.5880  -27.3870   18.8550 N.am      8 SEL2        0.0000 
    111 N          33.0980  -26.4240   21.4710 N.am      5 SEP2        0.0000 
    112 CA         29.9558  -30.1837   14.5060 C.3       3 GLC5        0.0000 
    113 CA         31.2200  -29.4260   12.9610 C.3       6 GLP5        0.0000 
    114 CA         29.3032  -31.8608   17.8350 C.3       3 GLC5        0.0000 
    115 CA         29.9150  -32.7800   19.6190 C.3       6 GLP5        0.0000 
    116 CA         25.1992  -30.3933   14.8878 C.3       3 GLC5        0.0000 
    117 CA         23.8660  -29.1490   14.2040 C.3       6 GLP5        0.0000 
    118 CA         25.0640  -37.1880   17.2270 C.3       3 GLC5        0.0000 
    119 CA         28.4630  -37.2380   18.0085 C.3       3 GLC5        0.0000 
    120 CA         26.5230  -36.0670   18.3750 C.3       9 GLL5        0.0000 
    121 CA         28.2045  -35.7295   18.9320 C.3       3 GLC5        0.0000 
    122 CA         29.7280  -35.2660   20.0620 C.3       6 GLP5        0.0000 
    123 CA         25.1475  -19.5027   15.0390 C.3       3 GLC5        0.0000 
    124 CA         24.4440  -20.6940   13.6150 C.3       6 GLP5        0.0000 
    125 CA         24.0172  -19.9560   15.2750 C.3       3 GLC5        0.0000 
    126 CA         24.3410  -19.2670   16.9870 C.3       9 GLL5        0.0000 
    127 CA         23.7848  -18.7710   18.8700 C.3       3 GLC5        0.0000 
    128 CA         23.9790  -18.3240   20.8050 C.3       6 GLP5        0.0000 
    129 CA         25.0553  -20.5542   15.6235 C.3       3 GLC5        0.0000 
    130 CA         24.9800  -20.3810   17.6160 C.3       9 GLL5        0.0000 
    131 CA         25.4649  -22.4558   17.0057 C.3       3 GLC5        0.0000 
    132 CA         25.4660  -24.2180   16.2290 C.3       6 GLP5        0.0000 
    133 CA         24.7214  -19.5087   19.2937 C.3       3 GLC5        0.0000 
@<TRIPOS>BOND
@<TRIPOS>SUBSTRUCTURE
     1 ALC1       18 GROUP        1 X    ALC  0     ROOT ALC X 1
     2 SEC2        1 GROUP        1 X    SEC  0     **** SEC X 2
     3 GLC5        9 GROUP        1 X    GLC  0     **** GLC X 6
     4 ALP1       20 GROUP        1 Y    ALP  0     ROOT ALP Y 8
     5 SEP2        3 GROUP        1 Y    SEP  0     **** SEP Y 9
     6 GLP5       11 GROUP        1 Y    GLP  0     **** GLP Y 13
     7 ALL1       19 GROUP        1 Z    ALL  0     ROOT ALL Z 15
     8 SEL2        2 GROUP        1 Z    SEL  0     **** SEL Z 16
     9 GLL5       10 GROUP        1 Z    GLL  0     **** GLL Z 20
@<TRIPOS>SET

