#    Name: 2tpr_FAD_1_ligand
#    Modification time : Tue Mar 25 00:07:15 2014

@<TRIPOS>MOLECULE
2tpr_FAD_1_ligand
   84    89     1     0     0
SMALL
NO_CHARGES


@<TRIPOS>ATOM
      1 PA         29.6030  -27.8740   16.2340 P.3       1 FAD500      0.0000 
      2 O1A        28.4260  -27.5240   17.0610 O.co2     1 FAD500      0.0000 
      3 O2A        29.9810  -27.0070   15.0850 O.co2     1 FAD500      0.0000 
      4 O5B        29.3050  -29.3140   15.6570 O.3       1 FAD500      0.0000 
      5 C5B        28.9780  -30.4120   16.4830 C.3       1 FAD500      0.0000 
      6 C4B        28.4050  -31.4710   15.6190 C.3       1 FAD500      0.0000 
      7 O4B        28.3370  -32.6920   16.3730 O.3       1 FAD500      0.0000 
      8 C3B        26.9490  -31.0800   15.2450 C.3       1 FAD500      0.0000 
      9 O3B        26.7790  -31.0320   13.8210 O.3       1 FAD500      0.0000 
     10 C2B        26.1160  -32.1950   15.8980 C.3       1 FAD500      0.0000 
     11 O2B        24.9950  -32.5440   15.1000 O.3       1 FAD500      0.0000 
     12 C1B        27.1020  -33.3570   16.0410 C.3       1 FAD500      0.0000 
     13 N9A        26.7120  -34.2560   17.1320 N.pl3     1 FAD500      0.0000 
     14 C8A        26.2740  -33.9430   18.4080 C.2       1 FAD500      0.0000 
     15 N7A        26.1940  -34.9900   19.1980 N.2       1 FAD500      0.0000 
     16 C5A        26.5230  -36.0670   18.3750 C.ar      1 FAD500      0.0000 
     17 C6A        26.5270  -37.4550   18.5930 C.ar      1 FAD500      0.0000 
     18 N6A        26.2180  -38.0290   19.7620 N.pl3     1 FAD500      0.0000 
     19 N1A        26.8550  -38.2280   17.5580 N.ar      1 FAD500      0.0000 
     20 C2A        27.0960  -37.6540   16.3840 C.ar      1 FAD500      0.0000 
     21 N3A        27.1080  -36.3770   16.0440 N.ar      1 FAD500      0.0000 
     22 C4A        26.8370  -35.6250   17.1200 C.ar      1 FAD500      0.0000 
     23 N1         30.6080  -18.6340   16.4400 N.2       1 FAD500      0.0000 
     24 C2         31.3350  -17.7220   15.7410 C.2       1 FAD500      0.0000 
     25 O2         32.5440  -17.8120   15.7140 O.2       1 FAD500      0.0000 
     26 N3         30.7060  -16.6730   15.0560 N.am      1 FAD500      0.0000 
     27 C4         29.3590  -16.4890   15.0210 C.2       1 FAD500      0.0000 
     28 O4         28.8550  -15.5930   14.3530 O.2       1 FAD500      0.0000 
     29 C4X        28.5680  -17.4680   15.8080 C.2       1 FAD500      0.0000 
     30 N5         27.2700  -17.3810   15.8020 N.2       1 FAD500      0.0000 
     31 C5X        26.5590  -18.3470   16.4670 C.ar      1 FAD500      0.0000 
     32 C6         25.1430  -18.2760   16.4590 C.ar      1 FAD500      0.0000 
     33 C7         24.3410  -19.2670   16.9870 C.ar      1 FAD500      0.0000 
     34 C7M        22.8400  -19.1690   16.8830 C.3       1 FAD500      0.0000 
     35 C8         24.9800  -20.3810   17.6160 C.ar      1 FAD500      0.0000 
     36 C8M        24.1690  -21.4970   18.2180 C.3       1 FAD500      0.0000 
     37 C9         26.3530  -20.4480   17.6480 C.ar      1 FAD500      0.0000 
     38 C9A        27.1710  -19.4440   17.0850 C.ar      1 FAD500      0.0000 
     39 N10        28.5700  -19.4670   17.1060 N.pl3     1 FAD500      0.0000 
     40 C10        29.3060  -18.5090   16.4840 C.2       1 FAD500      0.0000 
     41 C1'        29.2950  -20.5220   17.8260 C.3       1 FAD500      0.0000 
     42 C2'        29.7390  -21.5580   16.8160 C.3       1 FAD500      0.0000 
     43 O2'        28.5730  -21.9990   16.1230 O.3       1 FAD500      0.0000 
     44 C3'        30.2920  -22.7950   17.5760 C.3       1 FAD500      0.0000 
     45 O3'        31.2150  -22.3190   18.5750 O.3       1 FAD500      0.0000 
     46 C4'        31.0970  -23.8370   16.7650 C.3       1 FAD500      0.0000 
     47 O4'        30.3250  -24.4400   15.7410 O.3       1 FAD500      0.0000 
     48 C5'        31.6030  -24.9660   17.6460 C.3       1 FAD500      0.0000 
     49 O5'        32.2250  -25.9670   16.8650 O.3       1 FAD500      0.0000 
     50 P          32.3040  -27.4430   17.4050 P.3       1 FAD500      0.0000 
     51 O1P        33.2280  -28.1660   16.5140 O.co2     1 FAD500      0.0000 
     52 O2P        32.5880  -27.3870   18.8550 O.co2     1 FAD500      0.0000 
     53 O3P        30.8430  -28.0810   17.2660 O.3       1 FAD500      0.0000 
     54 H          28.2401  -30.1395   17.2440 H         1 FAD500      0.0000 
     55 H          29.8605  -30.8111   16.9926 H         1 FAD500      0.0000 
     56 H          28.9593  -31.5798   14.7312 H         1 FAD500      0.0000 
     57 H          26.7290  -30.1686   15.7400 H         1 FAD500      0.0000 
     58 H          25.8566  -31.8654   16.8825 H         1 FAD500      0.0000 
     59 H          27.1749  -33.8504   15.1143 H         1 FAD500      0.0000 
     60 H          26.0512  -33.0060   18.6647 H         1 FAD500      0.0000 
     61 H          26.0219  -37.4065   20.5196 H         1 FAD500      0.0000 
     62 H          26.2110  -39.0289   19.7730 H         1 FAD500      0.0000 
     63 H          27.3251  -38.3682   15.5519 H         1 FAD500      0.0000 
     64 H          31.3322  -15.9920   14.5401 H         1 FAD500      0.0000 
     65 H          24.7024  -17.4296   16.0308 H         1 FAD500      0.0000 
     66 H          26.8220  -21.2631   18.1007 H         1 FAD500      0.0000 
     67 H          28.6522  -20.9983   18.5596 H         1 FAD500      0.0000 
     68 H          30.1708  -20.1164   18.3226 H         1 FAD500      0.0000 
     69 H          30.4739  -21.1787   16.1895 H         1 FAD500      0.0000 
     70 H          29.4745  -23.3017   18.0672 H         1 FAD500      0.0000 
     71 H          31.9681  -23.3373   16.3461 H         1 FAD500      0.0000 
     72 H          30.7422  -25.3611   18.2103 H         1 FAD500      0.0000 
     73 H          32.2973  -24.5295   18.3829 H         1 FAD500      0.0000 
     74 H          22.4895  -18.3471   17.3320 H         1 FAD500      0.0000 
     75 H          22.5350  -19.1357   15.9312 H         1 FAD500      0.0000 
     76 H          22.3863  -19.9518   17.3090 H         1 FAD500      0.0000 
     77 H          24.7509  -22.2041   18.6197 H         1 FAD500      0.0000 
     78 H          23.5649  -21.1675   18.9436 H         1 FAD500      0.0000 
     79 H          23.5909  -21.9455   17.5364 H         1 FAD500      0.0000 
     80 H          27.1583  -31.8945   13.4860 H         1 FAD500      0.0000 
     81 H          25.3834  -32.9023   14.2510 H         1 FAD500      0.0000 
     82 H          28.8113  -22.9014   15.7639 H         1 FAD500      0.0000 
     83 H          31.2456  -23.0425   19.2646 H         1 FAD500      0.0000 
     84 H          30.4554  -25.4238   15.8640 H         1 FAD500      0.0000 
@<TRIPOS>BOND
     1    2    1 ar   
     2    3    1 ar   
     3    4    1 1    
     4   53    1 1    
     5    5    4 1    
     6    6    5 1    
     7   54    5 1    
     8   55    5 1    
     9    7    6 1    
    10    8    6 1    
    11   56    6 1    
    12   12    7 1    
    13    9    8 1    
    14   10    8 1    
    15   57    8 1    
    16   80    9 1    
    17   11   10 1    
    18   12   10 1    
    19   58   10 1    
    20   81   11 1    
    21   13   12 1    
    22   59   12 1    
    23   14   13 1    
    24   22   13 1    
    25   15   14 2    
    26   60   14 1    
    27   16   15 1    
    28   17   16 ar   
    29   22   16 ar   
    30   18   17 1    
    31   19   17 ar   
    32   61   18 1    
    33   62   18 1    
    34   20   19 ar   
    35   21   20 ar   
    36   63   20 1    
    37   22   21 ar   
    38   24   23 1    
    39   40   23 2    
    40   25   24 2    
    41   26   24 am   
    42   27   26 am   
    43   64   26 1    
    44   28   27 2    
    45   29   27 1    
    46   30   29 2    
    47   40   29 1    
    48   31   30 1    
    49   32   31 ar   
    50   38   31 ar   
    51   33   32 ar   
    52   65   32 1    
    53   34   33 1    
    54   35   33 ar   
    55   74   34 1    
    56   75   34 1    
    57   76   34 1    
    58   36   35 1    
    59   37   35 ar   
    60   77   36 1    
    61   78   36 1    
    62   79   36 1    
    63   38   37 ar   
    64   66   37 1    
    65   39   38 1    
    66   40   39 1    
    67   41   39 1    
    68   42   41 1    
    69   67   41 1    
    70   68   41 1    
    71   43   42 1    
    72   44   42 1    
    73   69   42 1    
    74   82   43 1    
    75   45   44 1    
    76   46   44 1    
    77   70   44 1    
    78   83   45 1    
    79   47   46 1    
    80   48   46 1    
    81   71   46 1    
    82   84   47 1    
    83   49   48 1    
    84   72   48 1    
    85   73   48 1    
    86   50   49 1    
    87   51   50 ar   
    88   52   50 ar   
    89   53   50 1    
@<TRIPOS>SUBSTRUCTURE
     1 FAD500      1 GROUP   
@<TRIPOS>SET

