#    Name: 1ZBH_3_CAVITY_N1_6.mol2
#    Modification time : Mon Mar 10 22:25:15 2014

@<TRIPOS>MOLECULE
1ZBH_3_CAVITY_N1_6.mol2
  121     0     7     0     0
SMALL
NO_CHARGES


@<TRIPOS>ATOM
      1 N          29.0962    2.5869   71.7975 N.2       2 ALA2        0.0000 
      2 N          27.9766    2.8320   72.7652 N.2       2 ALA2        0.0000 
      3 N          26.8569    3.0770   73.7328 N.2       2 ALA2        0.0000 
      4 CA         28.1104    2.5441   70.6677 C.3       6 GLY6        0.0000 
      5 CA         26.9908    2.7891   71.6354 C.3       6 GLY6        0.0000 
      6 CA         25.8711    3.0341   72.6031 C.3       6 GLY6        0.0000 
      7 N          28.1334    4.3112   72.5721 N.2       2 ALA2        0.0000 
      8 CA         27.0138    4.5562   73.5398 C.3       6 GLY6        0.0000 
      9 CZ         28.2673    4.0233   70.4747 C.ar      5 PHE5        0.0000 
     10 CZ         27.1476    4.2683   71.4424 C.ar      5 PHE5        0.0000 
     11 CZ         31.5830   -1.7221   75.7659 C.ar      5 PHE5        0.0000 
     12 CA         30.4633   -1.4771   76.7335 C.3       6 GLY6        0.0000 
     13 DU         29.3437   -1.2321   77.7012 H         7 CUB7        0.0000 
     14 N          28.2241   -0.9871   78.6689 N.2       2 ALA2        0.0000 
     15 CA         29.4775   -1.5200   75.6038 C.3       6 GLY6        0.0000 
     16 CZ         28.3579   -1.2750   76.5715 C.ar      5 PHE5        0.0000 
     17 CZ         27.2383   -1.0299   77.5391 C.ar      5 PHE5        0.0000 
     18 O          32.9703   -2.5429   70.6034 O.2       2 ALA2        0.0000 
     19 O          31.8506   -2.2979   71.5710 O.2       2 ALA2        0.0000 
     20 O          29.6114   -1.8079   73.5064 O.2       2 ALA2        0.0000 
     21 CZ         28.4917   -1.5629   74.4740 C.ar      5 PHE5        0.0000 
     22 CZ         27.3721   -1.3178   75.4417 C.ar      5 PHE5        0.0000 
     23 O          33.1041   -2.8308   68.5059 O.2       2 ALA2        0.0000 
     24 O          31.9845   -2.5858   69.4736 O.2       2 ALA2        0.0000 
     25 DU         30.8648   -2.3408   70.4413 H         7 CUB7        0.0000 
     26 DU         29.7452   -2.0958   71.4089 H         7 CUB7        0.0000 
     27 DU         28.6256   -1.8508   72.3766 H         7 CUB7        0.0000 
     28 CZ         27.5059   -1.6057   73.3443 C.ar      5 PHE5        0.0000 
     29 CZ         26.3863   -1.3607   74.3119 C.ar      5 PHE5        0.0000 
     30 O          33.2379   -3.1187   66.4085 O.2       2 ALA2        0.0000 
     31 DU         32.1183   -2.8737   67.3762 H         7 CUB7        0.0000 
     32 DU         30.9987   -2.6287   68.3438 H         7 CUB7        0.0000 
     33 N          29.8790   -2.3837   69.3115 N.2       2 ALA2        0.0000 
     34 N          28.7594   -2.1387   70.2792 N.2       2 ALA2        0.0000 
     35 N          27.6398   -1.8936   71.2468 N.2       2 ALA2        0.0000 
     36 DU         26.5201   -1.6486   72.2145 H         7 CUB7        0.0000 
     37 CZ         25.4005   -1.4036   73.1822 C.ar      5 PHE5        0.0000 
     38 CZ         24.2809   -1.1586   74.1498 C.ar      5 PHE5        0.0000 
     39 OG         32.2521   -3.1616   65.2787 O.2       1 SER1        0.0000 
     40 DU         31.1325   -2.9166   66.2464 H         7 CUB7        0.0000 
     41 N          30.0129   -2.6716   67.2141 N.2       2 ALA2        0.0000 
     42 N          26.6540   -1.9365   70.1171 N.2       2 ALA2        0.0000 
     43 NZ         25.5343   -1.6915   71.0848 N.2       4 LYS4        0.0000 
     44 NZ         24.4147   -1.4465   72.0524 N.2       4 LYS4        0.0000 
     45 O          23.2950   -1.2015   73.0201 O.2       2 ALA2        0.0000 
     46 DU         30.1467   -2.9595   65.1167 H         7 CUB7        0.0000 
     47 N          29.0271   -2.7145   66.0843 N.2       2 ALA2        0.0000 
     48 CA         29.1609   -3.0024   63.9869 C.3       6 GLY6        0.0000 
     49 CA         29.1868   -2.7113   77.8943 C.3       6 GLY6        0.0000 
     50 CZ         28.0672   -2.4663   78.8619 C.ar      5 PHE5        0.0000 
     51 CZ         28.2010   -2.7542   76.7645 C.ar      5 PHE5        0.0000 
     52 CA         28.3348   -3.0421   74.6671 C.3       6 GLY6        0.0000 
     53 O          30.7080   -3.8200   70.6343 O.2       2 ALA2        0.0000 
     54 O          29.5883   -3.5750   71.6020 O.2       2 ALA2        0.0000 
     55 O          28.4687   -3.3300   72.5696 O.2       2 ALA2        0.0000 
     56 CZ         27.3490   -3.0850   73.5373 C.ar      5 PHE5        0.0000 
     57 CA         31.9614   -4.3529   67.5692 C.3       6 GLY6        0.0000 
     58 O          30.8418   -4.1079   68.5369 O.2       2 ALA2        0.0000 
     59 OD1        29.7222   -3.8629   69.5045 O.3       3 ASP3        0.0000 
     60 OD1        28.6025   -3.6179   70.4722 O.3       3 ASP3        0.0000 
     61 OD1        27.4829   -3.3729   71.4399 O.3       3 ASP3        0.0000 
     62 CZ         26.3632   -3.1279   72.4075 C.ar      5 PHE5        0.0000 
     63 CZ         25.2436   -2.8828   73.3752 C.ar      5 PHE5        0.0000 
     64 CA         30.9756   -4.3958   66.4394 C.3       6 GLY6        0.0000 
     65 NZ         29.8560   -4.1508   67.4071 N.2       4 LYS4        0.0000 
     66 N          28.7363   -3.9058   68.3748 N.2       2 ALA2        0.0000 
     67 OD1        27.6167   -3.6608   69.3425 O.3       3 ASP3        0.0000 
     68 OD1        26.4971   -3.4158   70.3101 O.3       3 ASP3        0.0000 
     69 NZ         25.3774   -3.1707   71.2778 N.2       4 LYS4        0.0000 
     70 NZ         24.2578   -2.9257   72.2455 N.2       4 LYS4        0.0000 
     71 CA         29.9898   -4.4387   65.3097 C.3       6 GLY6        0.0000 
     72 O          30.5511   -5.2993   70.8273 O.2       2 ALA2        0.0000 
     73 NZ         30.6849   -5.5872   68.7299 N.2       4 LYS4        0.0000 
     74 OD1        29.5653   -5.3421   69.6976 O.3       3 ASP3        0.0000 
     75 N          26.2064   -4.6071   72.6006 N.2       2 ALA2        0.0000 
     76 CA         29.6991   -5.6300   67.6001 C.3       6 GLY6        0.0000 
     77 OD1        28.5795   -5.3850   68.5678 O.3       3 ASP3        0.0000 
     78 CZ         28.2903    5.7904   72.3791 C.ar      5 PHE5        0.0000 
     79 O          26.5662    1.8856   76.0233 O.2       2 ALA2        0.0000 
     80 DU         30.0590    0.8627   71.0229 H         7 CUB7        0.0000 
     81 N          28.9393    1.1077   71.9905 N.2       2 ALA2        0.0000 
     82 N          27.8197    1.3527   72.9582 N.2       2 ALA2        0.0000 
     83 N          26.7000    1.5977   73.9259 N.2       2 ALA2        0.0000 
     84 CA         25.5804    1.8428   74.8935 C.3       6 GLY6        0.0000 
     85 DU         30.1928    0.5748   68.9254 H         7 CUB7        0.0000 
     86 DU         29.0731    0.8198   69.8931 H         7 CUB7        0.0000 
     87 CA         27.9535    1.0648   70.8608 C.3       6 GLY6        0.0000 
     88 CA         26.8339    1.3098   71.8284 C.3       6 GLY6        0.0000 
     89 CA         25.7142    1.5549   72.7961 C.3       6 GLY6        0.0000 
     90 CA         28.0873    0.7769   68.7633 C.3       6 GLY6        0.0000 
     91 N          30.6202    0.0021   76.5405 N.2       2 ALA2        0.0000 
     92 N          29.5006    0.2472   77.5082 N.2       2 ALA2        0.0000 
     93 N          28.3809    0.4922   78.4759 N.2       2 ALA2        0.0000 
     94 N          29.6344   -0.0407   75.4108 N.2       2 ALA2        0.0000 
     95 N          28.5148    0.2043   76.3784 N.2       2 ALA2        0.0000 
     96 N          27.3951    0.4493   77.3461 N.2       2 ALA2        0.0000 
     97 N          29.7682   -0.3286   73.3133 N.2       2 ALA2        0.0000 
     98 N          28.6486   -0.0836   74.2810 N.2       2 ALA2        0.0000 
     99 N          27.5290    0.1614   75.2487 N.2       2 ALA2        0.0000 
    100 N          26.4093    0.4064   76.2163 N.2       2 ALA2        0.0000 
    101 DU         32.1413   -1.1066   69.2806 H         7 CUB7        0.0000 
    102 DU         28.7824   -0.3715   72.1836 H         7 CUB7        0.0000 
    103 N          27.6628   -0.1265   73.1512 N.2       2 ALA2        0.0000 
    104 N          26.5432    0.1185   74.1189 N.2       2 ALA2        0.0000 
    105 O          25.4235    0.3635   75.0866 O.2       2 ALA2        0.0000 
    106 DU         32.2752   -1.3945   67.1831 H         7 CUB7        0.0000 
    107 DU         31.1555   -1.1495   68.1508 H         7 CUB7        0.0000 
    108 N          30.0359   -0.9044   69.1185 N.2       2 ALA2        0.0000 
    109 N          28.9163   -0.6594   70.0861 N.2       2 ALA2        0.0000 
    110 DU         27.7966   -0.4144   71.0538 H         7 CUB7        0.0000 
    111 CA         26.6770   -0.1694   72.0215 C.3       6 GLY6        0.0000 
    112 DU         25.5574    0.0756   72.9891 H         7 CUB7        0.0000 
    113 CA         24.4377    0.3206   73.9568 C.3       6 GLY6        0.0000 
    114 DU         31.2894   -1.4374   66.0534 H         7 CUB7        0.0000 
    115 O          30.1697   -1.1923   67.0210 O.2       2 ALA2        0.0000 
    116 N          29.0501   -0.9473   67.9887 N.2       2 ALA2        0.0000 
    117 N          26.8108   -0.4573   69.9241 N.2       2 ALA2        0.0000 
    118 CA         25.6912   -0.2123   70.8917 C.3       6 GLY6        0.0000 
    119 CA         24.5716    0.0327   71.8594 C.3       6 GLY6        0.0000 
    120 N          23.4519    0.2778   72.8271 N.2       2 ALA2        0.0000 
    121 O          30.3036   -1.4802   64.9236 O.2       2 ALA2        0.0000 
@<TRIPOS>BOND
@<TRIPOS>SUBSTRUCTURE
     1 SER1       39 GROUP   
     2 ALA2        1 GROUP   
     3 ASP3       59 GROUP   
     4 LYS4       43 GROUP   
     5 PHE5        9 GROUP   
     6 GLY6        4 GROUP   
     7 CUB7       13 GROUP   
@<TRIPOS>SET

