#    Name: 1zbh_AMP_3_INTS_M
#    Modification time : Mon Apr  7 16:58:16 2014

@<TRIPOS>MOLECULE
1zbh_AMP_3_INTS_M
   45     0    12     0     0
SMALL
NO_CHARGES


@<TRIPOS>ATOM
      1 Zn         27.4535   -6.0950   71.0520 Zn        3 ZIC7        0.0000 
      2 Zn         26.9250   -5.3890   70.6370 Zn       11 ZIL7        0.0000 
      3 Zn         27.9820   -6.8010   71.4670 Zn        7 ZIP7        0.0000 
      4 Zn         26.2765   -5.4130   69.5735 Zn        3 ZIC7        0.0000 
      5 Zn         25.6280   -5.4370   68.5100 Zn        7 ZIP7        0.0000 
      6 N          29.4250   -4.7305   73.1330 N.am      2 SEC2        0.0000 
      7 N          28.7070   -4.0060   71.7940 N.am     10 SEL2        0.0000 
      8 N          30.1430   -5.4550   74.4720 N.am      6 SEP2        0.0000 
      9 CA         25.5700   -3.9295   74.0790 C.3       4 GLC5        0.0000 
     10 CA         25.5750   -3.3850   72.2110 C.3      12 GLL5        0.0000 
     11 CA         25.5650   -4.4740   75.9470 C.3       8 GLP5        0.0000 
     12 CA         25.3610   -2.6795   74.7320 C.3       4 GLC5        0.0000 
     13 CA         25.0920   -2.1760   72.9990 C.3      12 GLL5        0.0000 
     14 CA         25.6300   -3.1830   76.4650 C.3       8 GLP5        0.0000 
     15 CA         22.8270   -0.7120   70.6470 C.3       4 GLC5        0.0000 
     16 CA         24.3350   -1.1690   72.1490 C.3      12 GLL5        0.0000 
     17 CA         21.3190   -0.2550   69.1450 C.3       8 GLP5        0.0000 
     18 N          22.0160   -2.0670   72.8530 N.am      2 SEC2        0.0000 
     19 N          22.9500   -1.5010   72.0350 N.am     10 SEL2        0.0000 
     20 N          21.0820   -2.6330   73.6710 N.am      6 SEP2        0.0000 
     21 O          23.0905   -2.2860   70.8465 O.2       1 ALC1        0.0000 
     22 O          22.9500   -1.5010   72.0350 O.2       9 ALL1        0.0000 
     23 O          23.2310   -3.0710   69.6580 O.2       5 ALP1        0.0000 
     24 CA         23.6055    1.7455   72.7615 C.3       4 GLC5        0.0000 
     25 CA         24.5630    0.1310   72.8920 C.3      12 GLL5        0.0000 
     26 CA         22.6480    3.3600   72.6310 C.3       8 GLP5        0.0000 
     27 O          22.2910    0.1970   73.8515 O.2       1 ALC1        0.0000 
     28 O          23.6000    0.3060   73.9320 O.2       9 ALL1        0.0000 
     29 O          20.9820    0.0880   73.7710 O.2       5 ALP1        0.0000 
     30 CA         24.5880    1.6910   73.9205 C.3       4 GLC5        0.0000 
     31 CA         25.9340   -0.0470   73.5200 C.3      12 GLL5        0.0000 
     32 CA         23.2420    3.4290   74.3210 C.3       8 GLP5        0.0000 
     33 CA         25.7820   -1.6150   74.9925 C.3       4 GLC5        0.0000 
     34 CA         25.1200    3.8590   73.6625 C.3       4 GLC5        0.0000 
     35 CA         26.9980    4.2890   73.0040 C.3      12 GLL5        0.0000 
     36 CA         28.1675    4.6625   74.3065 C.3       4 GLC5        0.0000 
     37 CA         29.3370    5.0360   75.6090 C.3       8 GLP5        0.0000 
     38 CA         25.1605    2.7005   73.4535 C.3       4 GLC5        0.0000 
     39 CA         27.0790    1.9720   72.5860 C.3      12 GLL5        0.0000 
     40 CA         23.0866   -3.2024   72.2205 C.3       4 GLC5        0.0000 
     41 CA         21.3390   -4.4300   72.0640 C.3       8 GLP5        0.0000 
     42 CA         24.8060    0.8330   70.9318 C.3       4 GLC5        0.0000 
     43 CA         25.1630    2.1850   69.3430 C.3       8 GLP5        0.0000 
     44 CA         26.4216    2.3136   70.6718 C.3       4 GLC5        0.0000 
     45 CA         28.0800    2.2100   71.5350 C.3      12 GLL5        0.0000 
@<TRIPOS>BOND
@<TRIPOS>SUBSTRUCTURE
     1 ALC1       21 GROUP        1 X    ALC  0     ROOT ALC X 1
     2 SEC2        6 GROUP        1 X    SEC  0     **** SEC X 2
     3 ZIC7        1 GROUP        1 X    ZIC  0     **** ZIC X 5
     4 GLC5        9 GROUP        1 X    GLC  0     **** GLC X 6
     5 ALP1       23 GROUP        1 Y    ALP  0     ROOT ALP Y 8
     6 SEP2        8 GROUP        1 Y    SEP  0     **** SEP Y 9
     7 ZIP7        3 GROUP        1 Y    ZIP  0     **** ZIP Y 12
     8 GLP5       11 GROUP        1 Y    GLP  0     **** GLP Y 13
     9 ALL1       22 GROUP        1 Z    ALL  0     ROOT ALL Z 15
    10 SEL2        7 GROUP        1 Z    SEL  0     **** SEL Z 16
    11 ZIL7        2 GROUP        1 Z    ZIL  0     **** ZIL Z 19
    12 GLL5       10 GROUP        1 Z    GLL  0     **** GLL Z 20
@<TRIPOS>SET

