#    Name: 1zbh_AMP_3_ligand
#    Modification time : Mon Apr  7 16:58:16 2014

@<TRIPOS>MOLECULE
1zbh_AMP_3_ligand
   35    37     1     0     0
SMALL
NO_CHARGES


@<TRIPOS>ATOM
      1 P          27.6420   -4.0620   70.7250 P.3       1 AMP3002     0.0000 
      2 O1P        26.9250   -5.3890   70.6370 O.co2     1 AMP3002     0.0000 
      3 O2P        28.0460   -3.4910   69.3890 O.co2     1 AMP3002     0.0000 
      4 O3P        28.7070   -4.0060   71.7940 O.co2     1 AMP3002     0.0000 
      5 O5'        26.5390   -3.0080   71.2330 O.3       1 AMP3002     0.0000 
      6 C5'        25.5750   -3.3850   72.2110 C.3       1 AMP3002     0.0000 
      7 C4'        25.0920   -2.1760   72.9990 C.3       1 AMP3002     0.0000 
      8 O4'        26.1900   -1.4550   73.5600 O.3       1 AMP3002     0.0000 
      9 C3'        24.3350   -1.1690   72.1490 C.3       1 AMP3002     0.0000 
     10 O3'        22.9500   -1.5010   72.0350 O.3       1 AMP3002     0.0000 
     11 C2'        24.5630    0.1310   72.8920 C.3       1 AMP3002     0.0000 
     12 O2'        23.6000    0.3060   73.9320 O.3       1 AMP3002     0.0000 
     13 C1'        25.9340   -0.0470   73.5200 C.3       1 AMP3002     0.0000 
     14 N9         26.8820    0.6520   72.6200 N.pl3     1 AMP3002     0.0000 
     15 C8         27.6630    0.0780   71.6840 C.2       1 AMP3002     0.0000 
     16 N7         28.3950    1.0080   71.0210 N.2       1 AMP3002     0.0000 
     17 C5         28.0800    2.2100   71.5350 C.ar      1 AMP3002     0.0000 
     18 C6         28.4830    3.6150   71.2950 C.ar      1 AMP3002     0.0000 
     19 N6         29.3970    3.9170   70.3460 N.pl3     1 AMP3002     0.0000 
     20 N1         27.9120    4.5800   72.0540 N.ar      1 AMP3002     0.0000 
     21 C2         26.9980    4.2890   73.0040 C.ar      1 AMP3002     0.0000 
     22 N3         26.5840    3.0350   73.2730 N.ar      1 AMP3002     0.0000 
     23 C4         27.0790    1.9720   72.5860 C.ar      1 AMP3002     0.0000 
     24 H          25.9891   -4.1107   72.9309 H         1 AMP3002     0.0000 
     25 H          24.6923   -3.8589   71.7498 H         1 AMP3002     0.0000 
     26 H          24.4263   -2.5089   73.7872 H         1 AMP3002     0.0000 
     27 H          24.8364   -1.1009   71.2056 H         1 AMP3002     0.0000 
     28 H          24.6046    0.9247   72.2074 H         1 AMP3002     0.0000 
     29 H          25.9240    0.3972   74.4739 H         1 AMP3002     0.0000 
     30 H          27.7010   -0.8862   71.5018 H         1 AMP3002     0.0000 
     31 H          29.7879    3.1422   69.8491 H         1 AMP3002     0.0000 
     32 H          29.6012    4.8884   70.2250 H         1 AMP3002     0.0000 
     33 H          26.5840    5.0912   73.5686 H         1 AMP3002     0.0000 
     34 H          22.8851   -2.0598   71.2083 H         1 AMP3002     0.0000 
     35 H          22.7150    0.1467   73.4945 H         1 AMP3002     0.0000 
@<TRIPOS>BOND
     1    2    1 ar   
     2    3    1 ar   
     3    4    1 ar   
     4    5    1 1    
     5    6    5 1    
     6    7    6 1    
     7   24    6 1    
     8   25    6 1    
     9    8    7 1    
    10    9    7 1    
    11   26    7 1    
    12   13    8 1    
    13   10    9 1    
    14   11    9 1    
    15   27    9 1    
    16   34   10 1    
    17   12   11 1    
    18   13   11 1    
    19   28   11 1    
    20   35   12 1    
    21   14   13 1    
    22   29   13 1    
    23   15   14 1    
    24   23   14 1    
    25   16   15 2    
    26   30   15 1    
    27   17   16 1    
    28   18   17 ar   
    29   23   17 ar   
    30   19   18 1    
    31   20   18 ar   
    32   31   19 1    
    33   32   19 1    
    34   21   20 ar   
    35   22   21 ar   
    36   33   21 1    
    37   23   22 ar   
@<TRIPOS>SUBSTRUCTURE
     1 AMP3002     1 GROUP   
@<TRIPOS>SET

