#    Name: 4gnq_GTP_1_INTS_M
#    Modification time : Mon Mar 24 23:19:21 2014

@<TRIPOS>MOLECULE
4gnq_GTP_1_INTS_M
   65     0    15     0     0
SMALL
NO_CHARGES


@<TRIPOS>ATOM
      1 NZ         -2.8935   -1.7935  -24.7350 N.4       3 LYC4        0.0000 
      2 NZ         -3.4450   -2.0070  -23.4620 N.4      13 LYL4        0.0000 
      3 NZ         -2.3420   -1.5800  -26.0080 N.4       8 LYP4        0.0000 
      4 Zn         -4.5175   -1.8190  -23.5515 Zn        4 ZIC7        0.0000 
      5 Zn         -3.4450   -2.0070  -23.4620 Zn       14 ZIL7        0.0000 
      6 Zn         -5.5900   -1.6310  -23.6410 Zn        9 ZIP7        0.0000 
      7 N          -2.8935   -1.7935  -24.7350 N.am      2 SEC2        0.0000 
      8 N          -3.4450   -2.0070  -23.4620 N.am     12 SEL2        0.0000 
      9 N          -2.3420   -1.5800  -26.0080 N.am      7 SEP2        0.0000 
     10 N          -2.9695   -0.4490  -23.2900 N.am      2 SEC2        0.0000 
     11 N          -2.4940    1.1090  -23.1180 N.am      7 SEP2        0.0000 
     12 NZ         -3.0690   -1.6250  -19.8870 N.4       3 LYC4        0.0000 
     13 NZ         -2.5100   -1.2740  -21.2380 N.4      13 LYL4        0.0000 
     14 NZ         -3.8790   -3.2040  -18.0450 N.4       8 LYP4        0.0000 
     15 Zn         -1.9100   -0.4125  -21.2835 Zn        4 ZIC7        0.0000 
     16 Zn         -2.5100   -1.2740  -21.2380 Zn       14 ZIL7        0.0000 
     17 Zn         -1.3100    0.4490  -21.3290 Zn        9 ZIP7        0.0000 
     18 N          -3.0690   -1.6250  -19.8870 N.am      2 SEC2        0.0000 
     19 N          -2.5100   -1.2740  -21.2380 N.am     12 SEL2        0.0000 
     20 N          -3.6280   -1.9760  -18.5360 N.am      7 SEP2        0.0000 
     21 NZ         -3.5350   -3.9595  -20.2180 N.4       3 LYC4        0.0000 
     22 NZ         -3.1070   -3.6820  -21.5800 N.4      13 LYL4        0.0000 
     23 N          -2.9465   -4.8960  -21.9735 N.am      2 SEC2        0.0000 
     24 N          -3.1070   -3.6820  -21.5800 N.am     12 SEL2        0.0000 
     25 N          -2.7860   -6.1100  -22.3670 N.am      7 SEP2        0.0000 
     26 N          -3.5350   -3.9595  -20.2180 N.am      2 SEC2        0.0000 
     27 N          -3.9630   -4.2370  -18.8560 N.am      7 SEP2        0.0000 
     28 N          -0.6520   -4.2995  -23.1260 N.am      2 SEC2        0.0000 
     29 N          -1.1930   -2.7550  -22.7500 N.am     12 SEL2        0.0000 
     30 N          -0.1110   -5.8440  -23.5020 N.am      7 SEP2        0.0000 
     31 NZ         -1.1255   -1.7540  -25.3985 N.4       3 LYC4        0.0000 
     32 NZ          0.0910   -1.9280  -24.7890 N.4      13 LYL4        0.0000 
     33 N           1.6810   -2.3410  -24.9675 N.am      2 SEC2        0.0000 
     34 N           0.0910   -1.9280  -24.7890 N.am     12 SEL2        0.0000 
     35 N           3.2710   -2.7540  -25.1460 N.am      7 SEP2        0.0000 
     36 N           1.1200   -1.0485  -25.1935 N.am      2 SEC2        0.0000 
     37 N           2.1490   -0.1690  -25.5980 N.am      7 SEP2        0.0000 
     38 N          -1.1255   -1.7540  -25.3985 N.am      2 SEC2        0.0000 
     39 Zn         -0.5990   -0.0305  -22.0035 Zn        4 ZIC7        0.0000 
     40 Zn          0.1120   -0.5100  -22.6780 Zn       14 ZIL7        0.0000 
     41 N           0.9490    0.6690  -23.1070 N.am      2 SEC2        0.0000 
     42 N           0.1120   -0.5100  -22.6780 N.am     12 SEL2        0.0000 
     43 N           1.7860    1.8480  -23.5360 N.am      7 SEP2        0.0000 
     44 N           2.2700   -2.7645  -23.9800 N.am      2 SEC2        0.0000 
     45 N           1.2690   -2.7750  -22.8140 N.am     12 SEL2        0.0000 
     46 CA          4.2895   -2.5560  -23.0465 C.3       5 GLC5        0.0000 
     47 CA          4.5140   -3.5580  -21.1270 C.3      15 GLL5        0.0000 
     48 CA          4.0650   -1.5540  -24.9660 C.3      10 GLP5        0.0000 
     49 N           6.2680   -7.1710  -22.2870 N.am      2 SEC2        0.0000 
     50 N           6.6300   -6.5390  -20.9500 N.am     12 SEL2        0.0000 
     51 N           5.9060   -7.8030  -23.6240 N.am      7 SEP2        0.0000 
     52 CA          8.9940   -2.8245  -21.8000 C.3       5 GLC5        0.0000 
     53 CA          7.5640   -4.3240  -21.4010 C.3      15 GLL5        0.0000 
     54 CA         10.4240   -1.3250  -22.1990 C.3      10 GLP5        0.0000 
     55 CA          7.6390   -5.5135  -24.6395 C.3       5 GLC5        0.0000 
     56 CA          7.2630   -4.4860  -22.8660 C.3      15 GLL5        0.0000 
     57 CA          8.0150   -6.5410  -26.4130 C.3      10 GLP5        0.0000 
     58 N          11.5215   -0.2790  -26.2415 N.am      2 SEC2        0.0000 
     59 N          10.5690   -1.2620  -26.6750 N.am     12 SEL2        0.0000 
     60 N          12.4740    0.7040  -25.8080 N.am      7 SEP2        0.0000 
     61 N          10.4695   -0.1100  -27.5795 N.am      2 SEC2        0.0000 
     62 N          10.3700    1.0420  -28.4840 N.am      7 SEP2        0.0000 
     63 O          12.0900   -3.5960  -26.9675 O.2       1 ALC1        0.0000 
     64 O          11.0970   -3.3560  -26.0550 O.2      11 ALL1        0.0000 
     65 O          13.0830   -3.8360  -27.8800 O.2       6 ALP1        0.0000 
@<TRIPOS>BOND
@<TRIPOS>SUBSTRUCTURE
     1 ALC1       63 GROUP        1 X    ALC  0     ROOT ALC X 1
     2 SEC2        7 GROUP        1 X    SEC  0     **** SEC X 2
     3 LYC4        1 GROUP        1 X    LYC  0     **** LYC X 4
     4 ZIC7        4 GROUP        1 X    ZIC  0     **** ZIC X 5
     5 GLC5       46 GROUP        1 X    GLC  0     **** GLC X 6
     6 ALP1       65 GROUP        1 Y    ALP  0     ROOT ALP Y 8
     7 SEP2        9 GROUP        1 Y    SEP  0     **** SEP Y 9
     8 LYP4        3 GROUP        1 Y    LYP  0     **** LYP Y 11
     9 ZIP7        6 GROUP        1 Y    ZIP  0     **** ZIP Y 12
    10 GLP5       48 GROUP        1 Y    GLP  0     **** GLP Y 13
    11 ALL1       64 GROUP        1 Z    ALL  0     ROOT ALL Z 15
    12 SEL2        8 GROUP        1 Z    SEL  0     **** SEL Z 16
    13 LYL4        2 GROUP        1 Z    LYL  0     **** LYL Z 18
    14 ZIL7        5 GROUP        1 Z    ZIL  0     **** ZIL Z 19
    15 GLL5       47 GROUP        1 Z    GLL  0     **** GLL Z 20
@<TRIPOS>SET

