#    Name: 4gnq_GTP_1_ligand
#    Modification time : Mon Mar 24 23:19:21 2014

@<TRIPOS>MOLECULE
4gnq_GTP_1_ligand
   44    46     1     0     0
SMALL
NO_CHARGES


@<TRIPOS>ATOM
      1 PG         -2.7110   -2.3730  -22.2210 P.3       1 GTP701      0.0000 
      2 O1G        -3.4450   -2.0070  -23.4620 O.co2     1 GTP701      0.0000 
      3 O2G        -2.5100   -1.2740  -21.2380 O.co2     1 GTP701      0.0000 
      4 O3G        -3.1070   -3.6820  -21.5800 O.co2     1 GTP701      0.0000 
      5 O3B        -1.1930   -2.7550  -22.7500 O.3       1 GTP701      0.0000 
      6 PB          0.0510   -1.8860  -23.3030 P.3       1 GTP701      0.0000 
      7 O1B         0.0910   -1.9280  -24.7890 O.co2     1 GTP701      0.0000 
      8 O2B         0.1120   -0.5100  -22.6780 O.co2     1 GTP701      0.0000 
      9 O3A         1.2690   -2.7750  -22.8140 O.3       1 GTP701      0.0000 
     10 PA          1.9570   -3.0680  -21.4000 P.3       1 GTP701      0.0000 
     11 O1A         1.4000   -4.3380  -20.8510 O.co2     1 GTP701      0.0000 
     12 O2A         1.9310   -1.8300  -20.5570 O.co2     1 GTP701      0.0000 
     13 O5'         3.4480   -3.2720  -22.0110 O.3       1 GTP701      0.0000 
     14 C5'         4.5140   -3.5580  -21.1270 C.3       1 GTP701      0.0000 
     15 C4'         5.2530   -4.7620  -21.6770 C.3       1 GTP701      0.0000 
     16 O4'         5.8410   -4.4250  -22.9400 O.3       1 GTP701      0.0000 
     17 C3'         6.4200   -5.1260  -20.8010 C.3       1 GTP701      0.0000 
     18 O3'         6.6300   -6.5390  -20.9500 O.3       1 GTP701      0.0000 
     19 C2'         7.5640   -4.3240  -21.4010 C.3       1 GTP701      0.0000 
     20 O2'         8.8460   -4.9160  -21.1150 O.3       1 GTP701      0.0000 
     21 C1'         7.2630   -4.4860  -22.8660 C.3       1 GTP701      0.0000 
     22 N9          7.8570   -3.4190  -23.6900 N.pl3     1 GTP701      0.0000 
     23 C8          7.3340   -2.1720  -23.9530 C.2       1 GTP701      0.0000 
     24 N7          8.1120   -1.5310  -24.8400 N.2       1 GTP701      0.0000 
     25 C5          9.1280   -2.3730  -25.1650 C.2       1 GTP701      0.0000 
     26 C6         10.2960   -2.2770  -26.0370 C.2       1 GTP701      0.0000 
     27 O6         10.5690   -1.2620  -26.6750 O.2       1 GTP701      0.0000 
     28 N1         11.0970   -3.3560  -26.0550 N.am      1 GTP701      0.0000 
     29 C2         10.8250   -4.4770  -25.3540 C.2       1 GTP701      0.0000 
     30 N2         11.7150   -5.4910  -25.4900 N.pl3     1 GTP701      0.0000 
     31 N3          9.7750   -4.6570  -24.5150 N.2       1 GTP701      0.0000 
     32 C4          8.9260   -3.6010  -24.4370 C.2       1 GTP701      0.0000 
     33 H           4.1626   -3.8065  -20.1254 H         1 GTP701      0.0000 
     34 H           5.2216   -2.7319  -21.0548 H         1 GTP701      0.0000 
     35 H           4.6021   -5.5891  -21.7616 H         1 GTP701      0.0000 
     36 H           6.2349   -4.8175  -19.8284 H         1 GTP701      0.0000 
     37 H           7.4673   -3.3267  -21.1371 H         1 GTP701      0.0000 
     38 H           7.6095   -5.4508  -23.1783 H         1 GTP701      0.0000 
     39 H           6.5230   -1.8265  -23.5475 H         1 GTP701      0.0000 
     40 H          11.9796   -3.3281  -26.6433 H         1 GTP701      0.0000 
     41 H          12.6516   -5.2265  -25.7198 H         1 GTP701      0.0000 
     42 H          11.3560   -6.4136  -25.3484 H         1 GTP701      0.0000 
     43 H           7.6008   -6.6344  -21.1702 H         1 GTP701      0.0000 
     44 H           9.0945   -4.5703  -20.2102 H         1 GTP701      0.0000 
@<TRIPOS>BOND
     1    2    1 ar   
     2    3    1 ar   
     3    4    1 ar   
     4    5    1 1    
     5    6    5 1    
     6    7    6 ar   
     7    8    6 ar   
     8    9    6 1    
     9   10    9 1    
    10   11   10 ar   
    11   12   10 ar   
    12   13   10 1    
    13   14   13 1    
    14   15   14 1    
    15   33   14 1    
    16   34   14 1    
    17   16   15 1    
    18   17   15 1    
    19   35   15 1    
    20   21   16 1    
    21   18   17 1    
    22   19   17 1    
    23   36   17 1    
    24   43   18 1    
    25   20   19 1    
    26   21   19 1    
    27   37   19 1    
    28   44   20 1    
    29   22   21 1    
    30   38   21 1    
    31   23   22 1    
    32   32   22 1    
    33   24   23 2    
    34   39   23 1    
    35   25   24 1    
    36   26   25 1    
    37   32   25 2    
    38   27   26 2    
    39   28   26 am   
    40   29   28 1    
    41   40   28 1    
    42   30   29 1    
    43   31   29 2    
    44   41   30 1    
    45   42   30 1    
    46   32   31 1    
@<TRIPOS>SUBSTRUCTURE
     1 GTP701      1 GROUP   
@<TRIPOS>SET

