#    Name: 2hqm_FAD_1_INTS_M
#    Modification time : Tue Mar 25 16:55:34 2014

@<TRIPOS>MOLECULE
2hqm_FAD_1_INTS_M
  138     0     9     0     0
SMALL
NO_CHARGES


@<TRIPOS>ATOM
      1 N           5.8490   22.2810  -13.5510 N.am      2 SEC2        0.0000 
      2 N           6.7720   22.1250  -14.9440 N.am      8 SEL2        0.0000 
      3 N           4.9260   22.4370  -12.1580 N.am      5 SEP2        0.0000 
      4 N           7.8655   20.8915  -14.9895 N.am      2 SEC2        0.0000 
      5 N           8.9590   19.6580  -15.0350 N.am      5 SEP2        0.0000 
      6 N           8.2860   21.1580  -17.5450 N.am      2 SEC2        0.0000 
      7 N           7.0680   21.6360  -17.4540 N.am      8 SEL2        0.0000 
      8 N           9.5040   20.6800  -17.6360 N.am      5 SEP2        0.0000 
      9 CA          4.6495   21.6035  -18.5805 C.3       3 GLC5        0.0000 
     10 CA          4.3940   20.1880  -17.1750 C.3       9 GLL5        0.0000 
     11 CA          4.9050   23.0190  -19.9860 C.3       6 GLP5        0.0000 
     12 CA          1.9695   18.6380  -16.6390 C.3       3 GLC5        0.0000 
     13 CA          3.9110   18.7520  -16.9560 C.3       9 GLL5        0.0000 
     14 CA          0.0280   18.5240  -16.3220 C.3       6 GLP5        0.0000 
     15 CA          6.1480   18.1305  -15.4865 C.3       3 GLC5        0.0000 
     16 CA          5.0470   17.7480  -17.1550 C.3       9 GLL5        0.0000 
     17 CA          7.2490   18.5130  -13.8180 C.3       6 GLP5        0.0000 
     18 N           6.2290   16.0690  -15.6635 N.am      2 SEC2        0.0000 
     19 N           5.1920   16.9370  -15.9860 N.am      8 SEL2        0.0000 
     20 N           7.2660   15.2010  -15.3410 N.am      5 SEP2        0.0000 
     21 O           4.1510   16.4120  -15.4850 O.2       1 ALC1        0.0000 
     22 O           5.1920   16.9370  -15.9860 O.2       7 ALL1        0.0000 
     23 O           3.1100   15.8870  -14.9840 O.2       4 ALP1        0.0000 
     24 O           4.6480   15.5855  -16.0120 O.2       1 ALC1        0.0000 
     25 O           4.1040   14.2340  -16.0380 O.2       4 ALP1        0.0000 
     26 O           4.5160   14.8970  -17.1045 O.2       1 ALC1        0.0000 
     27 O           4.9280   15.5600  -18.1710 O.2       7 ALL1        0.0000 
     28 CA          1.5415   17.7940  -17.2840 C.3       3 GLC5        0.0000 
     29 CA          3.0550   17.0640  -18.2460 C.3       9 GLL5        0.0000 
     30 CA         -2.5910   14.8635  -20.7850 C.3       3 GLC5        0.0000 
     31 CA         -0.4380   15.3530  -21.1730 C.3       9 GLL5        0.0000 
     32 CA         -4.7440   14.3740  -20.3970 C.3       6 GLP5        0.0000 
     33 O          -2.3090   15.0955  -22.8895 O.2       1 ALC1        0.0000 
     34 O          -0.9370   15.4470  -22.4000 O.2       7 ALL1        0.0000 
     35 O          -3.6810   14.7440  -23.3790 O.2       4 ALP1        0.0000 
     36 N          -2.0890   13.6810  -20.8465 N.am      2 SEC2        0.0000 
     37 N          -1.0010   14.5500  -20.2600 N.am      8 SEL2        0.0000 
     38 N          -3.1770   12.8120  -21.4330 N.am      5 SEP2        0.0000 
     39 CA         -1.8200   16.1645  -19.4195 C.3       3 GLC5        0.0000 
     40 CA         -0.5020   14.4670  -19.0390 C.3       9 GLL5        0.0000 
     41 CA         -3.1380   17.8620  -19.8000 C.3       6 GLP5        0.0000 
     42 CA         -2.1550   13.6280  -17.9820 C.3       3 GLC5        0.0000 
     43 CA         -3.8080   12.7890  -16.9250 C.3       6 GLP5        0.0000 
     44 CA         -0.0185   14.0660  -17.1565 C.3       3 GLC5        0.0000 
     45 CA          0.4650   13.6650  -15.2740 C.3       6 GLP5        0.0000 
     46 CA          0.8560   13.2765  -19.2310 C.3       3 GLC5        0.0000 
     47 CA          2.2140   12.0860  -19.4230 C.3       6 GLP5        0.0000 
     48 CA         -1.0295   12.7275  -20.2825 C.3       3 GLC5        0.0000 
     49 CA         -1.5570   10.9880  -21.5260 C.3       6 GLP5        0.0000 
     50 CA         -2.6230   14.4205  -19.7180 C.3       3 GLC5        0.0000 
     51 N           1.0950   13.9190  -17.9135 N.am      2 SEC2        0.0000 
     52 N           0.5620   15.1620  -18.6810 N.am      8 SEL2        0.0000 
     53 N           1.6280   12.6760  -17.1460 N.am      5 SEP2        0.0000 
     54 CA          0.6060   17.2540  -17.9315 C.3       3 GLC5        0.0000 
     55 CA          1.1840   15.9840  -19.5410 C.3       9 GLL5        0.0000 
     56 CA          1.6990   14.0350  -19.4820 C.3       3 GLC5        0.0000 
     57 N          11.1145   28.2650  -12.8485 N.am      2 SEC2        0.0000 
     58 N          12.7750   27.8600  -13.1620 N.am      8 SEL2        0.0000 
     59 N           9.4540   28.6700  -12.5350 N.am      5 SEP2        0.0000 
     60 N          10.8435   28.9540  -11.9895 N.am      2 SEC2        0.0000 
     61 N          12.2330   29.2380  -11.4440 N.am      8 SEL2        0.0000 
     62 O          14.6395   28.7285  -10.1465 O.2       1 ALC1        0.0000 
     63 O          14.3230   28.3020  -11.3410 O.2       7 ALL1        0.0000 
     64 O          14.9560   29.1550   -8.9520 O.2       4 ALP1        0.0000 
     65 N          17.1770   26.2565  -13.3145 N.am      2 SEC2        0.0000 
     66 N          15.9310   26.0100  -13.7530 N.am      8 SEL2        0.0000 
     67 N          18.4230   26.5030  -12.8760 N.am      5 SEP2        0.0000 
     68 CA         15.6095   24.5485  -13.0200 C.3       3 GLC5        0.0000 
     69 CA         15.6140   25.3430  -14.9400 C.3       9 GLL5        0.0000 
     70 CA         15.6050   23.7540  -11.1000 C.3       6 GLP5        0.0000 
     71 CA         17.8955   24.1190  -13.8750 C.3       3 GLC5        0.0000 
     72 CA         16.5420   24.4890  -15.5240 C.3       9 GLL5        0.0000 
     73 CA         19.2490   23.7490  -12.2260 C.3       6 GLP5        0.0000 
     74 CA         17.8560   21.7940  -18.8610 C.3       3 GLC5        0.0000 
     75 CA         17.2090   22.8260  -17.3070 C.3       9 GLL5        0.0000 
     76 CA         18.5030   20.7620  -20.4150 C.3       6 GLP5        0.0000 
     77 CA         17.9115   20.9175  -16.5685 C.3       3 GLC5        0.0000 
     78 CA         18.6140   19.0090  -15.8300 C.3       6 GLP5        0.0000 
     79 CA         18.2510   23.7605  -18.5340 C.3       3 GLC5        0.0000 
     80 CA         19.2930   24.6950  -19.7610 C.3       6 GLP5        0.0000 
     81 CA         13.6100   24.0000  -20.0865 C.3       3 GLC5        0.0000 
     82 CA         14.5430   23.1190  -18.4880 C.3       9 GLL5        0.0000 
     83 CA         12.6770   24.8810  -21.6850 C.3       6 GLP5        0.0000 
     84 CA         11.0310   28.4070  -14.9280 C.3       3 GLC5        0.0000 
     85 CA         12.1110   26.5830  -15.5500 C.3       9 GLL5        0.0000 
     86 CA          9.9510   30.2310  -14.3060 C.3       6 GLP5        0.0000 
     87 CA         10.8700   24.2710  -13.2125 C.3       3 GLC5        0.0000 
     88 CA         11.0040   25.7540  -14.8980 C.3       9 GLL5        0.0000 
     89 CA         10.7360   22.7880  -11.5270 C.3       6 GLP5        0.0000 
     90 CA         11.9680   25.3505  -13.0460 C.3       3 GLC5        0.0000 
     91 CA         12.9320   24.9470  -11.1940 C.3       6 GLP5        0.0000 
     92 CA         10.2325   26.3175  -12.8845 C.3       3 GLC5        0.0000 
     93 CA          9.4610   26.8810  -10.8710 C.3       6 GLP5        0.0000 
     94 CA          9.8140   28.0880  -14.9710 C.3       3 GLC5        0.0000 
     95 CA          9.6770   25.9450  -15.6360 C.3       9 GLL5        0.0000 
     96 O           8.5760   27.5275  -17.0800 O.2       1 ALC1        0.0000 
     97 O           9.3920   27.3220  -15.8400 O.2       7 ALL1        0.0000 
     98 O           7.7600   27.7330  -18.3200 O.2       4 ALP1        0.0000 
     99 O           9.1040   26.6075  -17.3035 O.2       1 ALC1        0.0000 
    100 O           8.8160   25.8930  -18.7670 O.2       4 ALP1        0.0000 
    101 CA          8.5730   26.5600  -13.2840 C.3       3 GLC5        0.0000 
    102 CA          8.5400   25.2330  -14.9200 C.3       9 GLL5        0.0000 
    103 CA          8.6060   27.8870  -11.6480 C.3       6 GLP5        0.0000 
    104 N           9.8000   22.5805  -14.1070 N.am      2 SEC2        0.0000 
    105 N           8.8290   23.8530  -14.7500 N.am      8 SEL2        0.0000 
    106 N          10.7710   21.3080  -13.4640 N.am      5 SEP2        0.0000 
    107 CA          6.9655   25.8685  -17.7650 C.3       3 GLC5        0.0000 
    108 CA          7.1930   25.4230  -15.6160 C.3       9 GLL5        0.0000 
    109 CA          6.7380   26.3140  -19.9140 C.3       6 GLP5        0.0000 
    110 N           3.3700   24.3130  -13.5570 N.am      2 SEC2        0.0000 
    111 N           3.7580   23.9350  -14.8530 N.am      8 SEL2        0.0000 
    112 N           2.9820   24.6910  -12.2610 N.am      5 SEP2        0.0000 
    113 N           4.6955   26.4355  -17.8025 N.am      2 SEC2        0.0000 
    114 N           4.5490   25.4380  -16.7790 N.am      8 SEL2        0.0000 
    115 N           4.8420   27.4330  -18.8260 N.am      5 SEP2        0.0000 
    116 CA          4.1803   19.8725  -15.0408 C.3       3 GLC5        0.0000 
    117 CA          4.2080   20.2750  -13.0160 C.3       6 GLP5        0.0000 
    118 CA          2.9153   20.2525  -18.5808 C.3       3 GLC5        0.0000 
    119 CA          1.6780   21.0350  -20.0960 C.3       6 GLP5        0.0000 
    120 CA         -1.5070   16.7935  -20.3993 C.3       3 GLC5        0.0000 
    121 CA          0.6860   16.0970  -20.8240 C.3       9 GLL5        0.0000 
    122 CA          0.2340   17.8143  -20.7464 C.3       3 GLC5        0.0000 
    123 CA         -0.1860   19.7740  -21.2230 C.3       6 GLP5        0.0000 
    124 CA         17.0207   25.3253  -17.6493 C.3       3 GLC5        0.0000 
    125 CA         17.6750   26.5180  -19.2030 C.3       6 GLP5        0.0000 
    126 CA         15.8875   22.4065  -15.5540 C.3       3 GLC5        0.0000 
    127 CA         16.1910   23.7760  -16.6670 C.3       9 GLL5        0.0000 
    128 CA         15.0750   21.5120  -14.1210 C.3       6 GLP5        0.0000 
    129 CA         12.9655   22.8763  -17.1061 C.3       3 GLC5        0.0000 
    130 CA         14.9250   23.9110  -17.2330 C.3       9 GLL5        0.0000 
    131 CA         11.5610   21.6080  -16.9580 C.3       6 GLP5        0.0000 
    132 CA         15.4135   25.1268  -18.6421 C.3       3 GLC5        0.0000 
    133 CA         14.0060   24.7740  -16.6480 C.3       9 GLL5        0.0000 
    134 CA         16.4570   26.1090  -20.0300 C.3       6 GLP5        0.0000 
    135 CA          6.8877   24.9855  -13.4615 C.3       3 GLC5        0.0000 
    136 CA          5.9090   24.6430  -11.6550 C.3       6 GLP5        0.0000 
    137 CA         14.9586   23.1423  -15.1386 C.3       3 GLC5        0.0000 
    138 CA         14.3600   25.4890  -15.5120 C.3       9 GLL5        0.0000 
@<TRIPOS>BOND
@<TRIPOS>SUBSTRUCTURE
     1 ALC1       21 GROUP        1 X    ALC  0     ROOT ALC X 1
     2 SEC2        1 GROUP        1 X    SEC  0     **** SEC X 2
     3 GLC5        9 GROUP        1 X    GLC  0     **** GLC X 6
     4 ALP1       23 GROUP        1 Y    ALP  0     ROOT ALP Y 8
     5 SEP2        3 GROUP        1 Y    SEP  0     **** SEP Y 9
     6 GLP5       11 GROUP        1 Y    GLP  0     **** GLP Y 13
     7 ALL1       22 GROUP        1 Z    ALL  0     ROOT ALL Z 15
     8 SEL2        2 GROUP        1 Z    SEL  0     **** SEL Z 16
     9 GLL5       10 GROUP        1 Z    GLL  0     **** GLL Z 20
@<TRIPOS>SET

