#    Name: 2hqm_FAD_1_ligand
#    Modification time : Tue Mar 25 16:55:34 2014

@<TRIPOS>MOLECULE
2hqm_FAD_1_ligand
   84    89     1     0     0
SMALL
NO_CHARGES


@<TRIPOS>ATOM
      1 PA          6.1900   21.8680  -16.2830 P.3       1 FAD1001     0.0000 
      2 O1A         6.7720   22.1250  -14.9440 O.co2     1 FAD1001     0.0000 
      3 O2A         7.0680   21.6360  -17.4540 O.co2     1 FAD1001     0.0000 
      4 O5B         5.2370   20.5850  -16.0900 O.3       1 FAD1001     0.0000 
      5 C5B         4.3940   20.1880  -17.1750 C.3       1 FAD1001     0.0000 
      6 C4B         3.9110   18.7520  -16.9560 C.3       1 FAD1001     0.0000 
      7 O4B         2.9140   18.4560  -17.9470 O.3       1 FAD1001     0.0000 
      8 C3B         5.0470   17.7480  -17.1550 C.3       1 FAD1001     0.0000 
      9 O3B         5.1920   16.9370  -15.9860 O.3       1 FAD1001     0.0000 
     10 C2B         4.5760   16.9340  -18.3660 C.3       1 FAD1001     0.0000 
     11 O2B         4.9280   15.5600  -18.1710 O.3       1 FAD1001     0.0000 
     12 C1B         3.0550   17.0640  -18.2460 C.3       1 FAD1001     0.0000 
     13 N9A         2.2460   16.7840  -19.4610 N.pl3     1 FAD1001     0.0000 
     14 C8A         2.4060   17.3700  -20.6450 C.2       1 FAD1001     0.0000 
     15 N7A         1.4570   16.9600  -21.4820 N.2       1 FAD1001     0.0000 
     16 C5A         0.6860   16.0970  -20.8240 C.ar      1 FAD1001     0.0000 
     17 C6A        -0.4380   15.3530  -21.1730 C.ar      1 FAD1001     0.0000 
     18 N6A        -0.9370   15.4470  -22.4000 N.pl3     1 FAD1001     0.0000 
     19 N1A        -1.0010   14.5500  -20.2600 N.ar      1 FAD1001     0.0000 
     20 C2A        -0.5020   14.4670  -19.0390 C.ar      1 FAD1001     0.0000 
     21 N3A         0.5620   15.1620  -18.6810 N.ar      1 FAD1001     0.0000 
     22 C4A         1.1840   15.9840  -19.5410 C.ar      1 FAD1001     0.0000 
     23 N1         12.7750   27.8600  -13.1620 N.2       1 FAD1001     0.0000 
     24 C2         13.0740   28.5010  -11.9520 C.2       1 FAD1001     0.0000 
     25 O2         12.2330   29.2380  -11.4440 O.2       1 FAD1001     0.0000 
     26 N3         14.3230   28.3020  -11.3410 N.am      1 FAD1001     0.0000 
     27 C4         15.2750   27.4680  -11.9340 C.2       1 FAD1001     0.0000 
     28 O4         16.3570   27.2960  -11.3850 O.2       1 FAD1001     0.0000 
     29 C4X        14.9840   26.8270  -13.1290 C.2       1 FAD1001     0.0000 
     30 N5         15.9310   26.0100  -13.7530 N.2       1 FAD1001     0.0000 
     31 C5X        15.6140   25.3430  -14.9400 C.ar      1 FAD1001     0.0000 
     32 C6         16.5420   24.4890  -15.5240 C.ar      1 FAD1001     0.0000 
     33 C7         16.1910   23.7760  -16.6670 C.ar      1 FAD1001     0.0000 
     34 C7M        17.2090   22.8260  -17.3070 C.3       1 FAD1001     0.0000 
     35 C8         14.9250   23.9110  -17.2330 C.ar      1 FAD1001     0.0000 
     36 C8M        14.5430   23.1190  -18.4880 C.3       1 FAD1001     0.0000 
     37 C9         14.0060   24.7740  -16.6480 C.ar      1 FAD1001     0.0000 
     38 C9A        14.3600   25.4890  -15.5120 C.ar      1 FAD1001     0.0000 
     39 N10        13.4400   26.3680  -14.9270 N.pl3     1 FAD1001     0.0000 
     40 C10        13.7440   27.0210  -13.7300 C.2       1 FAD1001     0.0000 
     41 C1'        12.1110   26.5830  -15.5500 C.3       1 FAD1001     0.0000 
     42 C2'        11.0040   25.7540  -14.8980 C.3       1 FAD1001     0.0000 
     43 O2'        11.3630   24.3710  -14.8940 O.3       1 FAD1001     0.0000 
     44 C3'         9.6770   25.9450  -15.6360 C.3       1 FAD1001     0.0000 
     45 O3'         9.3920   27.3220  -15.8400 O.3       1 FAD1001     0.0000 
     46 C4'         8.5400   25.2330  -14.9200 C.3       1 FAD1001     0.0000 
     47 O4'         8.8290   23.8530  -14.7500 O.3       1 FAD1001     0.0000 
     48 C5'         7.1930   25.4230  -15.6160 C.3       1 FAD1001     0.0000 
     49 O5'         6.1620   24.6190  -15.0230 O.3       1 FAD1001     0.0000 
     50 P           4.7980   24.3180  -15.8440 P.3       1 FAD1001     0.0000 
     51 O1P         3.7580   23.9350  -14.8530 O.co2     1 FAD1001     0.0000 
     52 O2P         4.5490   25.4380  -16.7790 O.co2     1 FAD1001     0.0000 
     53 O3P         5.1740   23.0320  -16.7420 O.3       1 FAD1001     0.0000 
     54 H           4.9236   20.2191  -18.1336 H         1 FAD1001     0.0000 
     55 H           3.5090   20.8285  -17.2575 H         1 FAD1001     0.0000 
     56 H           3.5241   18.6527  -15.9741 H         1 FAD1001     0.0000 
     57 H           5.9152   18.2817  -17.4247 H         1 FAD1001     0.0000 
     58 H           4.8995   17.3658  -19.2308 H         1 FAD1001     0.0000 
     59 H           2.7284   16.4905  -17.4091 H         1 FAD1001     0.0000 
     60 H           3.1175   18.0088  -20.8670 H         1 FAD1001     0.0000 
     61 H          -1.9197   15.2848  -22.4890 H         1 FAD1001     0.0000 
     62 H          -0.2850   15.6715  -23.1242 H         1 FAD1001     0.0000 
     63 H          -0.9671   13.8276  -18.3313 H         1 FAD1001     0.0000 
     64 H          14.5351   28.7735  -10.4532 H         1 FAD1001     0.0000 
     65 H          17.4763   24.3844  -15.1178 H         1 FAD1001     0.0000 
     66 H          13.0694   24.8818  -17.0548 H         1 FAD1001     0.0000 
     67 H          12.1493   26.3268  -16.6222 H         1 FAD1001     0.0000 
     68 H          11.8299   27.6477  -15.4850 H         1 FAD1001     0.0000 
     69 H          10.8714   26.1189  -13.8820 H         1 FAD1001     0.0000 
     70 H           9.7959   25.4400  -16.6208 H         1 FAD1001     0.0000 
     71 H           8.4453   25.7114  -13.9184 H         1 FAD1001     0.0000 
     72 H           7.3304   25.1762  -16.6840 H         1 FAD1001     0.0000 
     73 H           6.9410   26.4976  -15.5695 H         1 FAD1001     0.0000 
     74 H          18.0359   23.3081  -17.5965 H         1 FAD1001     0.0000 
     75 H          17.4954   22.1071  -16.6736 H         1 FAD1001     0.0000 
     76 H          16.8358   22.3721  -18.1162 H         1 FAD1001     0.0000 
     77 H          15.1434   23.3321  -19.2587 H         1 FAD1001     0.0000 
     78 H          14.6001   22.1322  -18.3361 H         1 FAD1001     0.0000 
     79 H          13.6078   23.3168  -18.7816 H         1 FAD1001     0.0000 
     80 H           4.4312   16.2891  -16.0247 H         1 FAD1001     0.0000 
     81 H           4.4955   15.3023  -17.3070 H         1 FAD1001     0.0000 
     82 H          10.4931   23.8780  -14.8806 H         1 FAD1001     0.0000 
     83 H           8.8387   27.3511  -16.6725 H         1 FAD1001     0.0000 
     84 H           7.9525   23.3879  -14.8742 H         1 FAD1001     0.0000 
@<TRIPOS>BOND
     1    2    1 ar   
     2    3    1 ar   
     3    4    1 1    
     4   53    1 1    
     5    5    4 1    
     6    6    5 1    
     7   54    5 1    
     8   55    5 1    
     9    7    6 1    
    10    8    6 1    
    11   56    6 1    
    12   12    7 1    
    13    9    8 1    
    14   10    8 1    
    15   57    8 1    
    16   80    9 1    
    17   11   10 1    
    18   12   10 1    
    19   58   10 1    
    20   81   11 1    
    21   13   12 1    
    22   59   12 1    
    23   14   13 1    
    24   22   13 1    
    25   15   14 2    
    26   60   14 1    
    27   16   15 1    
    28   17   16 ar   
    29   22   16 ar   
    30   18   17 1    
    31   19   17 ar   
    32   61   18 1    
    33   62   18 1    
    34   20   19 ar   
    35   21   20 ar   
    36   63   20 1    
    37   22   21 ar   
    38   24   23 1    
    39   40   23 2    
    40   25   24 2    
    41   26   24 am   
    42   27   26 am   
    43   64   26 1    
    44   28   27 2    
    45   29   27 1    
    46   30   29 2    
    47   40   29 1    
    48   31   30 1    
    49   32   31 ar   
    50   38   31 ar   
    51   33   32 ar   
    52   65   32 1    
    53   34   33 1    
    54   35   33 ar   
    55   74   34 1    
    56   75   34 1    
    57   76   34 1    
    58   36   35 1    
    59   37   35 ar   
    60   77   36 1    
    61   78   36 1    
    62   79   36 1    
    63   38   37 ar   
    64   66   37 1    
    65   39   38 1    
    66   40   39 1    
    67   41   39 1    
    68   42   41 1    
    69   67   41 1    
    70   68   41 1    
    71   43   42 1    
    72   44   42 1    
    73   69   42 1    
    74   82   43 1    
    75   45   44 1    
    76   46   44 1    
    77   70   44 1    
    78   83   45 1    
    79   47   46 1    
    80   48   46 1    
    81   71   46 1    
    82   84   47 1    
    83   49   48 1    
    84   72   48 1    
    85   73   48 1    
    86   50   49 1    
    87   51   50 ar   
    88   52   50 ar   
    89   53   50 1    
@<TRIPOS>SUBSTRUCTURE
     1 FAD1001     1 GROUP   
@<TRIPOS>SET

