#    Name: 3r4p_FU7_1_INTS_M
#    Modification time : Tue Mar 25 10:32:03 2014

@<TRIPOS>MOLECULE
3r4p_FU7_1_INTS_M
   71     0     9     0     0
SMALL
NO_CHARGES


@<TRIPOS>ATOM
      1 CA         18.9780   -7.2780   55.4550 C.3       3 GLC5        0.0000 
      2 CA         17.6490   -7.7760   54.3260 C.3       9 GLL5        0.0000 
      3 CA         20.3070   -6.7800   56.5840 C.3       6 GLP5        0.0000 
      4 N          14.0315   -7.1815   53.0195 N.am      2 SEC2        0.0000 
      5 N          15.1890   -6.4590   52.6080 N.am      8 SEL2        0.0000 
      6 N          12.8740   -7.9040   53.4310 N.am      5 SEP2        0.0000 
      7 CA         11.1380   -1.6920   48.7515 C.3       3 GLC5        0.0000 
      8 CA         12.8200   -0.7640   49.0780 C.3       9 GLL5        0.0000 
      9 CA          9.4560   -2.6200   48.4250 C.3       6 GLP5        0.0000 
     10 CA         11.4910    0.6500   49.0485 C.3       3 GLC5        0.0000 
     11 CA         10.1620    2.0640   49.0190 C.3       6 GLP5        0.0000 
     12 CA         12.5960   -1.1785   47.2060 C.3       3 GLC5        0.0000 
     13 CA         12.3720   -1.5930   45.3340 C.3       6 GLP5        0.0000 
     14 CA         14.3735   -0.9985   47.5300 C.3       3 GLC5        0.0000 
     15 CA         15.9270   -1.2330   45.9820 C.3       6 GLP5        0.0000 
     16 CA         13.3945    0.8935   47.8655 C.3       3 GLC5        0.0000 
     17 CA         13.9690    2.5510   46.6530 C.3       6 GLP5        0.0000 
     18 CA          9.3650   -2.0890   51.5910 C.3       3 GLC5        0.0000 
     19 CA          9.5430   -1.0160   53.3530 C.3       9 GLL5        0.0000 
     20 CA          9.1870   -3.1620   49.8290 C.3       6 GLP5        0.0000 
     21 CA          7.8925   -0.3325   53.9840 C.3       3 GLC5        0.0000 
     22 CA          6.2420    0.3510   54.6150 C.3       6 GLP5        0.0000 
     23 CA         10.7275   -2.5550   51.4985 C.3       3 GLC5        0.0000 
     24 CA         11.1440   -1.0160   52.7260 C.3       9 GLL5        0.0000 
     25 CA         10.3110   -4.0940   50.2710 C.3       6 GLP5        0.0000 
     26 O          18.7600    0.7180   48.4995 O.2       1 ALC1        0.0000 
     27 O          17.6880    0.5230   49.2410 O.2       7 ALL1        0.0000 
     28 O          19.8320    0.9130   47.7580 O.2       4 ALP1        0.0000 
     29 CA         10.2660   -2.0225   50.5810 C.3       3 GLC5        0.0000 
     30 CA         11.3450   -0.8830   51.3330 C.3       9 GLL5        0.0000 
     31 CA         11.4850   -2.4965   50.5375 C.3       3 GLC5        0.0000 
     32 CA         12.6590   -0.8990   50.8040 C.3       9 GLL5        0.0000 
     33 CA         14.3380   -4.7050   50.4890 C.3       3 GLC5        0.0000 
     34 CA         15.2560   -3.8190   51.7680 C.3       9 GLL5        0.0000 
     35 CA         13.4200   -5.5910   49.2100 C.3       6 GLP5        0.0000 
     36 CA         19.1490   -5.2360   50.8790 C.3       3 GLC5        0.0000 
     37 CA         17.4340   -4.1620   50.7390 C.3       9 GLL5        0.0000 
     38 CA         20.8640   -6.3100   51.0190 C.3       6 GLP5        0.0000 
     39 CA         16.1590   -5.3890   49.8770 C.3       3 GLC5        0.0000 
     40 CA         14.8840   -6.6160   49.0150 C.3       6 GLP5        0.0000 
     41 CA         16.7575    0.8380   51.4515 C.3       3 GLC5        0.0000 
     42 CA         17.0290   -0.5120   49.8800 C.3       9 GLL5        0.0000 
     43 CA         16.4860    2.1880   53.0230 C.3       6 GLP5        0.0000 
     44 CA         18.9260   -1.3030   50.5300 C.3       3 GLC5        0.0000 
     45 CA         20.8230   -2.0940   51.1800 C.3       6 GLP5        0.0000 
     46 CA         17.2155   -1.0680   47.9420 C.3       3 GLC5        0.0000 
     47 CA         17.4020   -1.6240   46.0040 C.3       6 GLP5        0.0000 
     48 CA         19.7315   -4.8085   54.6915 C.3       3 GLC5        0.0000 
     49 CA         18.4970   -3.3580   54.0640 C.3       9 GLL5        0.0000 
     50 CA         20.9660   -6.2590   55.3190 C.3       6 GLP5        0.0000 
     51 CA         16.0540   -7.4820   50.5530 C.3       3 GLC5        0.0000 
     52 CA         17.2240   -8.3480   52.0910 C.3       9 GLL5        0.0000 
     53 CA         13.2898   -2.5282   49.0435 C.3       3 GLC5        0.0000 
     54 CA         13.8400   -4.2250   48.1460 C.3       6 GLP5        0.0000 
     55 CA         19.8453   -7.3210   54.2505 C.3       3 GLC5        0.0000 
     56 CA         18.0880   -8.5660   53.3150 C.3       9 GLL5        0.0000 
     57 CA         10.8711    0.6295   53.0574 C.3       3 GLC5        0.0000 
     58 CA         10.4530    2.3420   52.7900 C.3       6 GLP5        0.0000 
     59 CA         11.2275    0.7255   51.9292 C.3       3 GLC5        0.0000 
     60 CA         19.0132   -2.7702   50.9142 C.3       3 GLC5        0.0000 
     61 CA         16.9730   -2.7310   50.5580 C.3       9 GLL5        0.0000 
     62 CA         15.4503    0.4956   52.3748 C.3       3 GLC5        0.0000 
     63 CA         15.1460   -1.2730   51.0700 C.3       9 GLL5        0.0000 
     64 CA         14.7946   -3.0916   49.5539 C.3       3 GLC5        0.0000 
     65 CA         19.3405   -1.4805   55.1773 C.3       3 GLC5        0.0000 
     66 CA         17.9490   -2.1400   54.3610 C.3       9 GLL5        0.0000 
     67 CA         20.4580   -0.2120   56.1420 C.3       6 GLP5        0.0000 
     68 CA         19.9625   -2.5575   53.3062 C.3       3 GLC5        0.0000 
     69 CA         21.7020   -2.3660   52.4000 C.3       6 GLP5        0.0000 
     70 CA         19.4191   -7.3377   51.8277 C.3       3 GLC5        0.0000 
     71 CA         19.3610   -8.2000   53.0490 C.3       9 GLL5        0.0000 
@<TRIPOS>BOND
@<TRIPOS>SUBSTRUCTURE
     1 ALC1       26 GROUP        1 X    ALC  0     ROOT ALC X 1
     2 SEC2        4 GROUP        1 X    SEC  0     **** SEC X 2
     3 GLC5        1 GROUP        1 X    GLC  0     **** GLC X 6
     4 ALP1       28 GROUP        1 Y    ALP  0     ROOT ALP Y 8
     5 SEP2        6 GROUP        1 Y    SEP  0     **** SEP Y 9
     6 GLP5        3 GROUP        1 Y    GLP  0     **** GLP Y 13
     7 ALL1       27 GROUP        1 Z    ALL  0     ROOT ALL Z 15
     8 SEL2        5 GROUP        1 Z    SEL  0     **** SEL Z 16
     9 GLL5        2 GROUP        1 Z    GLL  0     **** GLL Z 20
@<TRIPOS>SET

