#    Name: 3r4p_FU7_1_ligand
#    Modification time : Tue Mar 25 10:32:03 2014

@<TRIPOS>MOLECULE
3r4p_FU7_1_ligand
   55    58     1     0     0
SMALL
NO_CHARGES


@<TRIPOS>ATOM
      1 C1         13.7980   -1.0690   51.6670 C.ar      1 FU7901      0.0000 
      2 F1         17.6490   -7.7760   54.3260 F         1 FU7901      0.0000 
      3 N1         16.3200   -4.7780   51.5020 N.am      1 FU7901      0.0000 
      4 O1         15.1890   -6.4590   52.6080 O.2       1 FU7901      0.0000 
      5 CL1        12.8200   -0.7640   49.0780 Cl        1 FU7901      0.0000 
      6 C2         13.5680   -1.1720   53.0990 C.ar      1 FU7901      0.0000 
      7 F2         19.3610   -8.2000   53.0490 F         1 FU7901      0.0000 
      8 N2         17.6520   -1.7480   49.9190 N.ar      1 FU7901      0.0000 
      9 O2         14.7180   -1.2760   53.8670 O.3       1 FU7901      0.0000 
     10 CL2         9.5430   -1.0160   53.3530 Cl        1 FU7901      0.0000 
     11 C3         12.2350   -1.1500   53.6100 C.ar      1 FU7901      0.0000 
     12 N3         15.7850   -0.2460   50.4390 N.ar      1 FU7901      0.0000 
     13 C4         11.1440   -1.0160   52.7260 C.ar      1 FU7901      0.0000 
     14 N4         17.6880    0.5230   49.2410 N.pl3     1 FU7901      0.0000 
     15 C5         11.3450   -0.8830   51.3330 C.ar      1 FU7901      0.0000 
     16 N5         17.2390   -6.9460   51.6660 N.am      1 FU7901      0.0000 
     17 C6         12.6590   -0.8990   50.8040 C.ar      1 FU7901      0.0000 
     18 N6         16.9330   -2.3940   55.2400 N.pl3     1 FU7901      0.0000 
     19 C7         15.7320   -2.5560   51.1490 C.ar      1 FU7901      0.0000 
     20 N7         16.7850   -3.6990   55.5360 N.2       1 FU7901      0.0000 
     21 C8         15.2560   -3.8190   51.7680 C.3       1 FU7901      0.0000 
     22 C9         17.4340   -4.1620   50.7390 C.3       1 FU7901      0.0000 
     23 C10        16.9730   -2.7310   50.5580 C.ar      1 FU7901      0.0000 
     24 C11        17.0290   -0.5120   49.8800 C.ar      1 FU7901      0.0000 
     25 C12        15.1460   -1.2730   51.0700 C.ar      1 FU7901      0.0000 
     26 C13        16.1870   -6.0880   51.9660 C.2       1 FU7901      0.0000 
     27 C14        14.6380   -1.3760   55.2950 C.3       1 FU7901      0.0000 
     28 C15        16.0590   -1.4160   55.8500 C.3       1 FU7901      0.0000 
     29 C16        17.9490   -2.1400   54.3610 C.2       1 FU7901      0.0000 
     30 C17        18.4970   -3.3580   54.0640 C.2       1 FU7901      0.0000 
     31 C18        17.7430   -4.2820   54.8130 C.2       1 FU7901      0.0000 
     32 C19        17.2240   -8.3480   52.0910 C.3       1 FU7901      0.0000 
     33 C20        18.0880   -8.5660   53.3150 C.3       1 FU7901      0.0000 
     34 C21        18.0770  -10.0030   53.7890 C.3       1 FU7901      0.0000 
     35 H          12.0799   -1.2315   54.6133 H         1 FU7901      0.0000 
     36 H          17.2194    1.4064   49.2360 H         1 FU7901      0.0000 
     37 H          18.5758    0.2980   48.8395 H         1 FU7901      0.0000 
     38 H          10.5461   -0.7756   50.7088 H         1 FU7901      0.0000 
     39 H          18.0568   -6.6216   51.1378 H         1 FU7901      0.0000 
     40 H          15.1223   -3.6775   52.8262 H         1 FU7901      0.0000 
     41 H          14.3360   -4.1276   51.3033 H         1 FU7901      0.0000 
     42 H          17.5403   -4.6246   49.7868 H         1 FU7901      0.0000 
     43 H          18.3337   -4.1767   51.3067 H         1 FU7901      0.0000 
     44 H          14.1277   -2.2857   55.6086 H         1 FU7901      0.0000 
     45 H          14.1291   -0.5181   55.7324 H         1 FU7901      0.0000 
     46 H          16.4875   -0.3887   55.7491 H         1 FU7901      0.0000 
     47 H          15.9841   -1.5888   56.9517 H         1 FU7901      0.0000 
     48 H          18.2167   -1.3007   54.0285 H         1 FU7901      0.0000 
     49 H          19.2052   -3.5565   53.5001 H         1 FU7901      0.0000 
     50 H          17.9335   -5.2487   54.7800 H         1 FU7901      0.0000 
     51 H          17.5917   -8.9987   51.2836 H         1 FU7901      0.0000 
     52 H          16.1979   -8.6676   52.3264 H         1 FU7901      0.0000 
     53 H          18.3927  -10.6311   53.0778 H         1 FU7901      0.0000 
     54 H          18.6704  -10.1368   54.5827 H         1 FU7901      0.0000 
     55 H          17.1598  -10.2991   54.0556 H         1 FU7901      0.0000 
@<TRIPOS>BOND
     1    6    1 ar   
     2   17    1 ar   
     3   25    1 1    
     4   33    2 1    
     5   21    3 1    
     6   22    3 1    
     7   26    3 am   
     8   26    4 2    
     9   17    5 1    
    10    9    6 1    
    11   11    6 ar   
    12   33    7 1    
    13   23    8 ar   
    14   24    8 ar   
    15   27    9 1    
    16   13   10 1    
    17   13   11 ar   
    18   35   11 1    
    19   24   12 ar   
    20   25   12 ar   
    21   15   13 ar   
    22   24   14 1    
    23   36   14 1    
    24   37   14 1    
    25   17   15 ar   
    26   38   15 1    
    27   26   16 am   
    28   32   16 1    
    29   39   16 1    
    30   20   18 1    
    31   28   18 1    
    32   29   18 1    
    33   21   19 1    
    34   23   19 ar   
    35   25   19 ar   
    36   31   20 2    
    37   40   21 1    
    38   41   21 1    
    39   23   22 1    
    40   42   22 1    
    41   43   22 1    
    42   28   27 1    
    43   44   27 1    
    44   45   27 1    
    45   46   28 1    
    46   47   28 1    
    47   30   29 2    
    48   48   29 1    
    49   31   30 1    
    50   49   30 1    
    51   50   31 1    
    52   33   32 1    
    53   51   32 1    
    54   52   32 1    
    55   34   33 1    
    56   53   34 1    
    57   54   34 1    
    58   55   34 1    
@<TRIPOS>SUBSTRUCTURE
     1 FU7901      1 GROUP   
@<TRIPOS>SET

