#    Name: 2vpq_ANP_2_INTS_M
#    Modification time : Tue Mar 25 02:22:07 2014

@<TRIPOS>MOLECULE
2vpq_ANP_2_INTS_M
   72     0    18     0     0
SMALL
NO_CHARGES


@<TRIPOS>ATOM
      1 Zn        -12.5895   -9.3085    7.5580 Zn        5 ZIC7        0.0000 
      2 Zn        -11.8490   -8.9140    7.8120 Zn       17 ZIL7        0.0000 
      3 Zn        -13.3300   -9.7030    7.3040 Zn       11 ZIP7        0.0000 
      4 Zn        -12.8695   -6.1910    8.9170 Zn        5 ZIC7        0.0000 
      5 Zn        -12.0360   -6.6530    8.8960 Zn       17 ZIL7        0.0000 
      6 Zn        -13.7030   -5.7290    8.9380 Zn       11 ZIP7        0.0000 
      7 NZ        -14.7060   -8.3925    4.9130 N.4       4 LYC4        0.0000 
      8 NZ        -13.4760   -8.5450    5.8070 N.4      16 LYL4        0.0000 
      9 NZ        -15.9360   -8.2400    4.0190 N.4      10 LYP4        0.0000 
     10 Zn        -13.4030   -9.1240    6.5555 Zn        5 ZIC7        0.0000 
     11 Zn        -13.4760   -8.5450    5.8070 Zn       17 ZIL7        0.0000 
     12 N         -14.7060   -8.3925    4.9130 N.am      2 SEC2        0.0000 
     13 N         -13.4760   -8.5450    5.8070 N.am     14 SEL2        0.0000 
     14 N         -15.9360   -8.2400    4.0190 N.am      8 SEP2        0.0000 
     15 NZ        -13.9710   -7.8825    3.9925 N.4       4 LYC4        0.0000 
     16 NZ        -12.0060   -7.5250    3.9660 N.4      16 LYL4        0.0000 
     17 N         -10.7360   -7.1000    3.7150 N.am      2 SEC2        0.0000 
     18 N         -12.0060   -7.5250    3.9660 N.am     14 SEL2        0.0000 
     19 N          -9.4660   -6.6750    3.4640 N.am      8 SEP2        0.0000 
     20 OD1       -13.1185   -7.4745    7.5065 O.co2     3 ASC3        0.0000 
     21 OD1       -11.6990   -6.8040    6.3850 O.co2    15 ASL3        0.0000 
     22 OD1       -14.5380   -8.1450    8.6280 O.co2     9 ASP3        0.0000 
     23 NZ        -16.1185   -7.0535    4.7225 N.4       4 LYC4        0.0000 
     24 NZ        -16.3010   -5.8670    5.4260 N.4      16 LYL4        0.0000 
     25 NZ        -17.3775   -5.3410    4.8085 N.4       4 LYC4        0.0000 
     26 NZ        -18.4540   -4.8150    4.1910 N.4      10 LYP4        0.0000 
     27 N         -16.1185   -7.0535    4.7225 N.am      2 SEC2        0.0000 
     28 N         -16.3010   -5.8670    5.4260 N.am     14 SEL2        0.0000 
     29 N         -17.3775   -5.3410    4.8085 N.am      2 SEC2        0.0000 
     30 N         -18.4540   -4.8150    4.1910 N.am      8 SEP2        0.0000 
     31 Zn        -14.0775   -5.5645    8.0575 Zn        5 ZIC7        0.0000 
     32 Zn        -14.4520   -5.4000    7.1770 Zn       17 ZIL7        0.0000 
     33 CA        -13.6770   -3.8745    3.5750 C.3       6 GLC5        0.0000 
     34 CA        -13.4950   -3.2290    5.3000 C.3      18 GLL5        0.0000 
     35 CA        -13.8590   -4.5200    1.8500 C.3      12 GLP5        0.0000 
     36 CA        -16.2600    1.4535    7.3215 C.3       6 GLC5        0.0000 
     37 CA        -15.0980   -0.0780    6.5310 C.3      18 GLL5        0.0000 
     38 CA        -17.4220    2.9850    8.1120 C.3      12 GLP5        0.0000 
     39 N         -18.4590   -3.3240    4.3090 N.am      2 SEC2        0.0000 
     40 N         -18.4640   -1.8330    4.4270 N.am     14 SEL2        0.0000 
     41 CA        -20.2520   -0.2615    2.2240 C.3       6 GLC5        0.0000 
     42 CA        -20.1400    0.1620    4.0650 C.3      18 GLL5        0.0000 
     43 CA        -20.3640   -0.6850    0.3830 C.3      12 GLP5        0.0000 
     44 CA        -21.0130    1.6445    2.6960 C.3       6 GLC5        0.0000 
     45 CA        -21.8860    3.1270    1.3270 C.3      12 GLP5        0.0000 
     46 O         -21.4900   -1.9300    3.6495 O.2       1 ALC1        0.0000 
     47 O         -21.2770   -0.5180    3.8530 O.2      13 ALL1        0.0000 
     48 O         -21.7030   -3.3420    3.4460 O.2       7 ALP1        0.0000 
     49 O         -22.3630    0.2840    3.1060 O.2       1 ALC1        0.0000 
     50 O         -23.4490    1.0860    2.3590 O.2       7 ALP1        0.0000 
     51 N         -21.0425    2.6560    3.8555 N.am      2 SEC2        0.0000 
     52 N         -20.1190    1.5100    4.0550 N.am     14 SEL2        0.0000 
     53 N         -21.9660    3.8020    3.6560 N.am      8 SEP2        0.0000 
     54 CA        -18.1305    1.0975    2.4910 C.3       6 GLC5        0.0000 
     55 CA        -18.9820    2.1970    4.2570 C.3      18 GLL5        0.0000 
     56 CA        -17.2790   -0.0020    0.7250 C.3      12 GLP5        0.0000 
     57 CA        -20.4340    2.6620    2.7920 C.3       6 GLC5        0.0000 
     58 CA        -20.6015    3.4565    4.5165 C.3       6 GLC5        0.0000 
     59 CA        -22.2210    4.7160    4.7760 C.3      12 GLP5        0.0000 
     60 CA        -19.9945    1.0875    5.8975 C.3       6 GLC5        0.0000 
     61 CA        -21.0070   -0.0220    7.5380 C.3      12 GLP5        0.0000 
     62 CA        -12.1650   -1.6923    4.6433 C.3       6 GLC5        0.0000 
     63 CA        -13.7090   -1.7500    5.6090 C.3      18 GLL5        0.0000 
     64 CA        -10.7280   -0.8950    3.8320 C.3      12 GLP5        0.0000 
     65 CA        -16.3912   -1.7843    7.1967 C.3       6 GLC5        0.0000 
     66 CA        -14.5510   -1.4590    6.8380 C.3      18 GLL5        0.0000 
     67 CA        -17.9580   -2.8000    7.7090 C.3      12 GLP5        0.0000 
     68 CA        -17.7780   -0.0673    2.5842 C.3       6 GLC5        0.0000 
     69 CA        -17.6840    0.2820    4.5530 C.3      18 GLL5        0.0000 
     70 CA        -18.1175   -1.4663    6.0762 C.3       6 GLC5        0.0000 
     71 CA        -18.8700   -0.5470    4.3340 C.3      18 GLL5        0.0000 
     72 CA        -19.8008    0.0114    5.9571 C.3       6 GLC5        0.0000 
@<TRIPOS>BOND
@<TRIPOS>SUBSTRUCTURE
     1 ALC1       46 GROUP        1 X    ALC  0     ROOT ALC X 1
     2 SEC2       12 GROUP        1 X    SEC  0     **** SEC X 2
     3 ASC3       20 GROUP        1 X    ASC  0     **** ASC X 3
     4 LYC4        7 GROUP        1 X    LYC  0     **** LYC X 4
     5 ZIC7        1 GROUP        1 X    ZIC  0     **** ZIC X 5
     6 GLC5       33 GROUP        1 X    GLC  0     **** GLC X 6
     7 ALP1       48 GROUP        1 Y    ALP  0     ROOT ALP Y 8
     8 SEP2       14 GROUP        1 Y    SEP  0     **** SEP Y 9
     9 ASP3       22 GROUP        1 Y    ASP  0     **** ASP Y 10
    10 LYP4        9 GROUP        1 Y    LYP  0     **** LYP Y 11
    11 ZIP7        3 GROUP        1 Y    ZIP  0     **** ZIP Y 12
    12 GLP5       35 GROUP        1 Y    GLP  0     **** GLP Y 13
    13 ALL1       47 GROUP        1 Z    ALL  0     ROOT ALL Z 15
    14 SEL2       13 GROUP        1 Z    SEL  0     **** SEL Z 16
    15 ASL3       21 GROUP        1 Z    ASL  0     **** ASL Z 17
    16 LYL4        8 GROUP        1 Z    LYL  0     **** LYL Z 18
    17 ZIL7        2 GROUP        1 Z    ZIL  0     **** ZIL Z 19
    18 GLL5       34 GROUP        1 Z    GLL  0     **** GLL Z 20
@<TRIPOS>SET

