#    Name: 2vpq_ANP_2_ligand
#    Modification time : Tue Mar 25 02:22:07 2014

@<TRIPOS>MOLECULE
2vpq_ANP_2_ligand
   43    45     1     0     0
SMALL
NO_CHARGES


@<TRIPOS>ATOM
      1 PG        -11.3750   -7.4840    7.8290 P.3       1 ANP1450     0.0000 
      2 O1G       -11.8490   -8.9140    7.8120 O.co2     1 ANP1450     0.0000 
      3 O2G        -9.8730   -7.3800    7.9040 O.co2     1 ANP1450     0.0000 
      4 O3G       -12.0360   -6.6530    8.8960 O.co2     1 ANP1450     0.0000 
      5 PB        -12.7330   -7.3510    5.2570 P.3       1 ANP1450     0.0000 
      6 O1B       -13.4760   -8.5450    5.8070 O.co2     1 ANP1450     0.0000 
      7 O2B       -12.0060   -7.5250    3.9660 O.co2     1 ANP1450     0.0000 
      8 N3B       -11.6990   -6.8040    6.3850 N.4       1 ANP1450     0.0000 
      9 PA        -14.8900   -5.4320    5.7280 P.3       1 ANP1450     0.0000 
     10 O1A       -16.3010   -5.8670    5.4260 O.co2     1 ANP1450     0.0000 
     11 O2A       -14.4520   -5.4000    7.1770 O.co2     1 ANP1450     0.0000 
     12 O3A       -13.8230   -6.2310    4.8250 O.3       1 ANP1450     0.0000 
     13 O5'       -14.7220   -3.9480    5.1340 O.3       1 ANP1450     0.0000 
     14 C5'       -13.4950   -3.2290    5.3000 C.3       1 ANP1450     0.0000 
     15 C4'       -13.7090   -1.7500    5.6090 C.3       1 ANP1450     0.0000 
     16 O4'       -14.3900   -1.1200    4.5270 O.3       1 ANP1450     0.0000 
     17 C3'       -14.5510   -1.4590    6.8380 C.3       1 ANP1450     0.0000 
     18 O3'       -13.8280   -1.4920    8.0710 O.3       1 ANP1450     0.0000 
     19 C2'       -15.0980   -0.0780    6.5310 C.3       1 ANP1450     0.0000 
     20 O2'       -14.1970    0.9820    6.9020 O.3       1 ANP1450     0.0000 
     21 C1'       -15.2810   -0.1430    5.0220 C.3       1 ANP1450     0.0000 
     22 N9        -16.6740   -0.5600    4.7500 N.pl3     1 ANP1450     0.0000 
     23 C8        -17.1340   -1.8200    4.6750 C.2       1 ANP1450     0.0000 
     24 N7        -18.4640   -1.8330    4.4270 N.2       1 ANP1450     0.0000 
     25 C5        -18.8700   -0.5470    4.3340 C.ar      1 ANP1450     0.0000 
     26 C6        -20.1400    0.1620    4.0650 C.ar      1 ANP1450     0.0000 
     27 N6        -21.2770   -0.5180    3.8530 N.pl3     1 ANP1450     0.0000 
     28 N1        -20.1190    1.5100    4.0550 N.ar      1 ANP1450     0.0000 
     29 C2        -18.9820    2.1970    4.2570 C.ar      1 ANP1450     0.0000 
     30 N3        -17.7960    1.6220    4.4870 N.ar      1 ANP1450     0.0000 
     31 C4        -17.6840    0.2820    4.5530 C.ar      1 ANP1450     0.0000 
     32 H         -12.8655   -3.2919    4.3887 H         1 ANP1450     0.0000 
     33 H         -12.8861   -3.6571    6.1225 H         1 ANP1450     0.0000 
     34 H         -12.7389   -1.2758    5.7484 H         1 ANP1450     0.0000 
     35 H         -15.3910   -2.1385    6.8203 H         1 ANP1450     0.0000 
     36 H         -16.0625    0.0054    6.9709 H         1 ANP1450     0.0000 
     37 H         -15.0972    0.8194    4.6188 H         1 ANP1450     0.0000 
     38 H         -16.5839   -2.6257    4.7845 H         1 ANP1450     0.0000 
     39 H         -21.2164   -1.5128    3.9343 H         1 ANP1450     0.0000 
     40 H         -22.0834    0.0308    3.6327 H         1 ANP1450     0.0000 
     41 H         -19.0304    3.2663    4.2320 H         1 ANP1450     0.0000 
     42 H         -14.5306   -1.5110    8.7824 H         1 ANP1450     0.0000 
     43 H         -13.5138    0.5473    7.4888 H         1 ANP1450     0.0000 
@<TRIPOS>BOND
     1    2    1 ar   
     2    3    1 ar   
     3    4    1 ar   
     4    8    1 1    
     5    6    5 ar   
     6    7    5 ar   
     7    8    5 1    
     8   12    5 1    
     9   10    9 ar   
    10   11    9 ar   
    11   12    9 1    
    12   13    9 1    
    13   14   13 1    
    14   15   14 1    
    15   32   14 1    
    16   33   14 1    
    17   16   15 1    
    18   17   15 1    
    19   34   15 1    
    20   21   16 1    
    21   18   17 1    
    22   19   17 1    
    23   35   17 1    
    24   42   18 1    
    25   20   19 1    
    26   21   19 1    
    27   36   19 1    
    28   43   20 1    
    29   22   21 1    
    30   37   21 1    
    31   23   22 1    
    32   31   22 1    
    33   24   23 2    
    34   38   23 1    
    35   25   24 1    
    36   26   25 ar   
    37   31   25 ar   
    38   27   26 1    
    39   28   26 ar   
    40   39   27 1    
    41   40   27 1    
    42   29   28 ar   
    43   30   29 ar   
    44   41   29 1    
    45   31   30 ar   
@<TRIPOS>SUBSTRUCTURE
     1 ANP1450     1 GROUP   
@<TRIPOS>SET

