#    Name: 2FKN_1_CAVITY_N1_6.mol2
#    Modification time : Mon Mar 10 12:51:52 2014

@<TRIPOS>MOLECULE
2FKN_1_CAVITY_N1_6.mol2
   80     0     7     0     0
SMALL
NO_CHARGES


@<TRIPOS>ATOM
      1 N          -2.5856    0.5209   50.5456 N.2       2 ALA2        0.0000 
      2 DU         -2.9371   -0.2915   51.7566 H         7 CUB7        0.0000 
      3 O          -3.2885   -1.1039   52.9676 O.2       2 ALA2        0.0000 
      4 N          -3.8721    0.1070   49.8946 N.2       2 ALA2        0.0000 
      5 O          -4.2235   -0.7054   51.1056 O.2       2 ALA2        0.0000 
      6 O          -4.5749   -1.5178   52.3166 O.2       2 ALA2        0.0000 
      7 CZ         -1.3701    6.5467   51.2249 C.ar      5 PHE5        0.0000 
      8 CA         -1.7215    5.7343   52.4359 C.3       6 GLY6        0.0000 
      9 CA         -4.4717   -1.4980   48.6438 C.3       6 GLY6        0.0000 
     10 O          -4.8232   -2.3104   49.8548 O.2       2 ALA2        0.0000 
     11 N          -5.7582   -1.9119   47.9928 N.2       2 ALA2        0.0000 
     12 O          -6.1096   -2.7243   49.2038 O.2       2 ALA2        0.0000 
     13 CA         -0.6125   -0.2563   50.5968 C.3       6 GLY6        0.0000 
     14 NZ         -0.9639   -1.0687   51.8078 N.2       4 LYS4        0.0000 
     15 CA          0.2516    4.9571   52.4872 C.3       6 GLY6        0.0000 
     16 CZ         -0.6833    5.3556   50.6252 C.ar      5 PHE5        0.0000 
     17 N          -1.6345    2.9383   50.5854 N.2       2 ALA2        0.0000 
     18 CA         -1.9859    2.1259   51.7964 C.3       6 GLY6        0.0000 
     19 NZ         -2.3374    1.3134   53.0073 N.2       4 LYS4        0.0000 
     20 N          -3.2724    1.7120   51.1454 N.2       2 ALA2        0.0000 
     21 CA         -3.6238    0.8996   52.3563 C.3       6 GLY6        0.0000 
     22 NZ         -3.9752    0.0872   53.5673 N.2       4 LYS4        0.0000 
     23 CA         -5.5970    1.6768   52.3051 C.3       6 GLY6        0.0000 
     24 CA         -5.9484    0.8644   53.5161 C.3       6 GLY6        0.0000 
     25 CA         -6.8834    1.2629   51.6541 C.3       6 GLY6        0.0000 
     26 CA         -7.2348    0.4505   52.8651 C.3       6 GLY6        0.0000 
     27 N          -6.7963   -1.5332   49.8036 N.2       2 ALA2        0.0000 
     28 O          -7.1478   -2.3456   51.0146 O.2       2 ALA2        0.0000 
     29 O          -7.4992   -3.1580   52.2255 O.2       2 ALA2        0.0000 
     30 CA         -8.0828   -1.9471   49.1526 C.3       6 GLY6        0.0000 
     31 O          -3.4497   -4.6926   48.6553 O.2       2 ALA2        0.0000 
     32 N          -5.4229   -3.9154   48.6040 N.2       2 ALA2        0.0000 
     33 O          -6.4772   -6.3526   52.2370 O.2       2 ALA2        0.0000 
     34 N          -7.0608   -5.1417   49.1640 N.2       2 ALA2        0.0000 
     35 CA         -7.4122   -5.9541   50.3750 C.3       6 GLY6        0.0000 
     36 CA         -1.0348    4.5432   51.8361 C.3       6 GLY6        0.0000 
     37 CA         -1.3862    3.7308   53.0471 C.3       6 GLY6        0.0000 
     38 CZ         -1.9698    4.9418   49.9742 C.ar      5 PHE5        0.0000 
     39 O          -2.3212    4.1294   51.1851 O.2       2 ALA2        0.0000 
     40 CA         -2.6727    3.3169   52.3961 C.3       6 GLY6        0.0000 
     41 CA         -7.3960   -3.1382   48.5528 C.3       6 GLY6        0.0000 
     42 O          -7.7475   -3.9506   49.7638 O.2       2 ALA2        0.0000 
     43 N          -5.1585   -0.3069   49.2436 N.2       2 ALA2        0.0000 
     44 O          -5.5099   -1.1193   50.4546 O.2       2 ALA2        0.0000 
     45 O          -5.8614   -1.9317   51.6656 O.2       2 ALA2        0.0000 
     46 O          -6.5643   -3.5565   54.0875 O.2       2 ALA2        0.0000 
     47 CA         -7.9216    1.6416   53.4648 C.3       6 GLY6        0.0000 
     48 CA         -0.9478    1.7472   49.9856 C.3       6 GLY6        0.0000 
     49 NZ         -1.2992    0.9348   51.1966 N.2       4 LYS4        0.0000 
     50 NZ         -1.6506    0.1224   52.4076 N.2       4 LYS4        0.0000 
     51 O          -0.4351    6.1482   53.0869 O.2       2 ALA2        0.0000 
     52 OG         -1.2122   -1.8613   49.3461 O.2       1 SER1        0.0000 
     53 CA         -1.5636   -2.6737   50.5571 C.3       6 GLY6        0.0000 
     54 N          -6.1967    0.0718   51.0543 N.2       2 ALA2        0.0000 
     55 O          -6.5481   -0.7406   52.2653 O.2       2 ALA2        0.0000 
     56 NZ         -6.8995   -1.5530   53.4763 N.2       4 LYS4        0.0000 
     57 N          -7.4831   -0.3421   50.4033 N.2       2 ALA2        0.0000 
     58 DU         -7.8345   -1.1545   51.6143 H         7 CUB7        0.0000 
     59 DU         -8.1860   -1.9669   52.8253 H         7 CUB7        0.0000 
     60 CA         -3.0079    5.3204   51.7849 C.3       6 GLY6        0.0000 
     61 NZ         -7.5863   -0.3619   54.0761 N.2       4 LYS4        0.0000 
     62 O          -8.5213    0.0366   52.2141 O.2       2 ALA2        0.0000 
     63 NZ         -8.8727   -0.7758   53.4251 N.2       4 LYS4        0.0000 
     64 OG         -2.4986   -2.2752   48.6951 O.2       1 SER1        0.0000 
     65 OG         -3.7850   -2.6891   48.0441 O.2       1 SER1        0.0000 
     66 O          -4.1365   -3.5015   49.2551 O.2       2 ALA2        0.0000 
     67 OD1        -5.5423   -6.7511   54.0990 O.3       3 ASP3        0.0000 
     68 N          -1.8989   -0.6702   49.9458 N.2       2 ALA2        0.0000 
     69 O          -2.2503   -1.4826   51.1568 O.2       2 ALA2        0.0000 
     70 O          -2.6018   -2.2950   52.3678 O.2       2 ALA2        0.0000 
     71 N          -3.1853   -1.0841   49.2948 N.2       2 ALA2        0.0000 
     72 O          -3.5368   -1.8965   50.5058 O.2       2 ALA2        0.0000 
     73 CA         -0.3481    3.3522   51.2364 C.3       6 GLY6        0.0000 
     74 NZ         -0.6995    2.5397   52.4474 N.2       4 LYS4        0.0000 
     75 O          -3.6076    3.7155   50.5341 O.2       2 ALA2        0.0000 
     76 CA         -3.9591    2.9031   51.7451 C.3       6 GLY6        0.0000 
     77 N          -4.5588    1.2981   50.4944 N.2       2 ALA2        0.0000 
     78 DU         -4.9102    0.4857   51.7053 H         7 CUB7        0.0000 
     79 O          -5.2617   -0.3267   52.9163 O.2       2 ALA2        0.0000 
     80 NZ         -5.6131   -1.1391   54.1273 N.2       4 LYS4        0.0000 
@<TRIPOS>BOND
@<TRIPOS>SUBSTRUCTURE
     1 SER1       52 GROUP   
     2 ALA2        1 GROUP   
     3 ASP3       67 GROUP   
     4 LYS4       14 GROUP   
     5 PHE5        7 GROUP   
     6 GLY6        8 GROUP   
     7 CUB7        2 GROUP   
@<TRIPOS>SET

