#    Name: 2FKN_1_CAVITY_N1_ALL.mol2
#    Modification time : Mon Mar 10 12:51:52 2014

@<TRIPOS>MOLECULE
2FKN_1_CAVITY_N1_ALL.mol2
  117     0     7     0     0
SMALL
NO_CHARGES


@<TRIPOS>ATOM
      1 N          -2.5856    0.5209   50.5456 N.2       2 ALA2        0.0000 
      2 DU         -2.9371   -0.2915   51.7566 H         7 CUB7        0.0000 
      3 O          -3.2885   -1.1039   52.9676 O.2       2 ALA2        0.0000 
      4 N          -3.8721    0.1070   49.8946 N.2       2 ALA2        0.0000 
      5 O          -4.2235   -0.7054   51.1056 O.2       2 ALA2        0.0000 
      6 O          -4.5749   -1.5178   52.3166 O.2       2 ALA2        0.0000 
      7 CZ         -1.3701    6.5467   51.2249 C.ar      5 PHE5        0.0000 
      8 CA         -1.7215    5.7343   52.4359 C.3       6 GLY6        0.0000 
      9 CA         -4.4717   -1.4980   48.6438 C.3       6 GLY6        0.0000 
     10 O          -4.8232   -2.3104   49.8548 O.2       2 ALA2        0.0000 
     11 O          -6.2290   -5.5600   54.6987 O.2       2 ALA2        0.0000 
     12 N          -6.5804   -6.3724   55.9097 N.2       2 ALA2        0.0000 
     13 N          -5.7582   -1.9119   47.9928 N.2       2 ALA2        0.0000 
     14 O          -6.1096   -2.7243   49.2038 O.2       2 ALA2        0.0000 
     15 O          -7.1640   -5.1615   52.8368 O.2       2 ALA2        0.0000 
     16 CA         -7.5154   -5.9739   54.0477 C.3       6 GLY6        0.0000 
     17 N          -7.8669   -6.7863   55.2587 N.2       2 ALA2        0.0000 
     18 CA         -0.6125   -0.2563   50.5968 C.3       6 GLY6        0.0000 
     19 NZ         -0.9639   -1.0687   51.8078 N.2       4 LYS4        0.0000 
     20 CA          0.2516    4.9571   52.4872 C.3       6 GLY6        0.0000 
     21 CZ         -0.6833    5.3556   50.6252 C.ar      5 PHE5        0.0000 
     22 N          -8.7695   -0.7560   49.7523 N.2       2 ALA2        0.0000 
     23 DU         -9.1209   -1.5684   50.9633 H         7 CUB7        0.0000 
     24 OD1        -9.4724   -2.3808   52.1743 O.3       3 ASP3        0.0000 
     25 OD1        -9.8238   -3.1932   53.3853 O.3       3 ASP3        0.0000 
     26 OD1       -10.1753   -4.0056   54.5963 O.3       3 ASP3        0.0000 
     27 OD1       -10.4074   -1.9823   50.3123 O.3       3 ASP3        0.0000 
     28 N          -1.6345    2.9383   50.5854 N.2       2 ALA2        0.0000 
     29 CA         -1.9859    2.1259   51.7964 C.3       6 GLY6        0.0000 
     30 NZ         -2.3374    1.3134   53.0073 N.2       4 LYS4        0.0000 
     31 N          -3.2724    1.7120   51.1454 N.2       2 ALA2        0.0000 
     32 CA         -3.6238    0.8996   52.3563 C.3       6 GLY6        0.0000 
     33 NZ         -3.9752    0.0872   53.5673 N.2       4 LYS4        0.0000 
     34 CA         -5.5970    1.6768   52.3051 C.3       6 GLY6        0.0000 
     35 CA         -5.9484    0.8644   53.5161 C.3       6 GLY6        0.0000 
     36 CA         -6.8834    1.2629   51.6541 C.3       6 GLY6        0.0000 
     37 CA         -7.2348    0.4505   52.8651 C.3       6 GLY6        0.0000 
     38 N          -6.7963   -1.5332   49.8036 N.2       2 ALA2        0.0000 
     39 O          -7.1478   -2.3456   51.0146 O.2       2 ALA2        0.0000 
     40 O          -7.4992   -3.1580   52.2255 O.2       2 ALA2        0.0000 
     41 O          -7.8507   -3.9704   53.4365 O.2       2 ALA2        0.0000 
     42 OD1        -8.2021   -4.7828   54.6475 O.3       3 ASP3        0.0000 
     43 OD1        -8.5536   -5.5952   55.8585 O.3       3 ASP3        0.0000 
     44 CA         -8.0828   -1.9471   49.1526 C.3       6 GLY6        0.0000 
     45 DU         -8.4342   -2.7595   50.3635 H         7 CUB7        0.0000 
     46 OD1        -8.7857   -3.5719   51.5745 O.3       3 ASP3        0.0000 
     47 O          -3.4497   -4.6926   48.6553 O.2       2 ALA2        0.0000 
     48 N          -5.4229   -3.9154   48.6040 N.2       2 ALA2        0.0000 
     49 O          -6.4772   -6.3526   52.2370 O.2       2 ALA2        0.0000 
     50 N          -7.0608   -5.1417   49.1640 N.2       2 ALA2        0.0000 
     51 CA         -7.4122   -5.9541   50.3750 C.3       6 GLY6        0.0000 
     52 CA         -1.0348    4.5432   51.8361 C.3       6 GLY6        0.0000 
     53 CA         -1.3862    3.7308   53.0471 C.3       6 GLY6        0.0000 
     54 CZ         -1.9698    4.9418   49.9742 C.ar      5 PHE5        0.0000 
     55 O          -2.3212    4.1294   51.1851 O.2       2 ALA2        0.0000 
     56 CA         -2.6727    3.3169   52.3961 C.3       6 GLY6        0.0000 
     57 CA         -7.3960   -3.1382   48.5528 C.3       6 GLY6        0.0000 
     58 O          -7.7475   -3.9506   49.7638 O.2       2 ALA2        0.0000 
     59 CA         -8.0989   -4.7630   50.9748 C.3       6 GLY6        0.0000 
     60 CA         -9.0339   -4.3645   49.1128 C.3       6 GLY6        0.0000 
     61 N          -5.1585   -0.3069   49.2436 N.2       2 ALA2        0.0000 
     62 O          -5.5099   -1.1193   50.4546 O.2       2 ALA2        0.0000 
     63 O          -5.8614   -1.9317   51.6656 O.2       2 ALA2        0.0000 
     64 O          -6.5643   -3.5565   54.0875 O.2       2 ALA2        0.0000 
     65 NZ         -6.9157   -4.3689   55.2985 N.2       4 LYS4        0.0000 
     66 OD1        -7.2672   -5.1813   56.5095 O.3       3 ASP3        0.0000 
     67 CA         -7.9216    1.6416   53.4648 C.3       6 GLY6        0.0000 
     68 NZ        -11.1973   -0.8110   54.5848 N.2       4 LYS4        0.0000 
     69 CA         -0.9478    1.7472   49.9856 C.3       6 GLY6        0.0000 
     70 NZ         -1.2992    0.9348   51.1966 N.2       4 LYS4        0.0000 
     71 NZ         -1.6506    0.1224   52.4076 N.2       4 LYS4        0.0000 
     72 O          -0.4351    6.1482   53.0869 O.2       2 ALA2        0.0000 
     73 OD1       -10.7588   -2.7947   51.5233 O.3       3 ASP3        0.0000 
     74 OD1       -12.0452   -3.2086   50.8723 O.3       3 ASP3        0.0000 
     75 OG         -1.2122   -1.8613   49.3461 O.2       1 SER1        0.0000 
     76 CA         -1.5636   -2.6737   50.5571 C.3       6 GLY6        0.0000 
     77 N          -6.1967    0.0718   51.0543 N.2       2 ALA2        0.0000 
     78 O          -6.5481   -0.7406   52.2653 O.2       2 ALA2        0.0000 
     79 NZ         -6.8995   -1.5530   53.4763 N.2       4 LYS4        0.0000 
     80 N          -7.4831   -0.3421   50.4033 N.2       2 ALA2        0.0000 
     81 DU         -7.8345   -1.1545   51.6143 H         7 CUB7        0.0000 
     82 DU         -8.1860   -1.9669   52.8253 H         7 CUB7        0.0000 
     83 NZ         -8.5374   -2.7793   54.0363 N.2       4 LYS4        0.0000 
     84 OD1        -8.8889   -3.5917   55.2473 O.3       3 ASP3        0.0000 
     85 O         -11.0941   -0.7912   50.9121 O.2       2 ALA2        0.0000 
     86 NZ        -11.4455   -1.6036   52.1230 N.2       4 LYS4        0.0000 
     87 O         -12.3805   -1.2051   50.2611 O.2       2 ALA2        0.0000 
     88 OD1       -12.7320   -2.0175   51.4720 O.3       3 ASP3        0.0000 
     89 CA         -3.0079    5.3204   51.7849 C.3       6 GLY6        0.0000 
     90 NZ         -7.5863   -0.3619   54.0761 N.2       4 LYS4        0.0000 
     91 O          -8.5213    0.0366   52.2141 O.2       2 ALA2        0.0000 
     92 NZ         -8.8727   -0.7758   53.4251 N.2       4 LYS4        0.0000 
     93 NZ         -9.2241   -1.5882   54.6360 N.2       4 LYS4        0.0000 
     94 OG         -2.4986   -2.2752   48.6951 O.2       1 SER1        0.0000 
     95 OG         -3.7850   -2.6891   48.0441 O.2       1 SER1        0.0000 
     96 O          -4.1365   -3.5015   49.2551 O.2       2 ALA2        0.0000 
     97 OD1        -5.5423   -6.7511   54.0990 O.3       3 ASP3        0.0000 
     98 N          -1.8989   -0.6702   49.9458 N.2       2 ALA2        0.0000 
     99 O          -2.2503   -1.4826   51.1568 O.2       2 ALA2        0.0000 
    100 O          -2.6018   -2.2950   52.3678 O.2       2 ALA2        0.0000 
    101 N          -3.1853   -1.0841   49.2948 N.2       2 ALA2        0.0000 
    102 O          -3.5368   -1.8965   50.5058 O.2       2 ALA2        0.0000 
    103 CA         -0.3481    3.3522   51.2364 C.3       6 GLY6        0.0000 
    104 NZ         -0.6995    2.5397   52.4474 N.2       4 LYS4        0.0000 
    105 O          -9.8077   -0.3773   51.5631 O.2       2 ALA2        0.0000 
    106 NZ        -10.1591   -1.1897   52.7741 N.2       4 LYS4        0.0000 
    107 OD1       -10.5106   -2.0021   53.9850 O.3       3 ASP3        0.0000 
    108 OD1        -9.7206   -3.1734   49.7125 O.3       3 ASP3        0.0000 
    109 O          -3.6076    3.7155   50.5341 O.2       2 ALA2        0.0000 
    110 CA         -3.9591    2.9031   51.7451 C.3       6 GLY6        0.0000 
    111 N          -4.5588    1.2981   50.4944 N.2       2 ALA2        0.0000 
    112 DU         -4.9102    0.4857   51.7053 H         7 CUB7        0.0000 
    113 O          -5.2617   -0.3267   52.9163 O.2       2 ALA2        0.0000 
    114 NZ         -5.6131   -1.1391   54.1273 N.2       4 LYS4        0.0000 
    115 NZ         -9.2080    1.2277   52.8138 N.2       4 LYS4        0.0000 
    116 CA         -9.5594    0.4153   54.0248 C.3       6 GLY6        0.0000 
    117 NZ         -9.9109   -0.3972   55.2358 N.2       4 LYS4        0.0000 
@<TRIPOS>BOND
@<TRIPOS>SUBSTRUCTURE
     1 SER1       75 GROUP   
     2 ALA2        1 GROUP   
     3 ASP3       24 GROUP   
     4 LYS4       19 GROUP   
     5 PHE5        7 GROUP   
     6 GLY6        8 GROUP   
     7 CUB7        2 GROUP   
@<TRIPOS>SET

