#    Name: 2fkn_NAD_1_INTS_M
#    Modification time : Tue Mar 25 12:50:41 2014

@<TRIPOS>MOLECULE
2fkn_NAD_1_INTS_M
  117     0    12     0     0
SMALL
NO_CHARGES


@<TRIPOS>ATOM
      1 NZ         -2.2810   -5.5210   51.1050 N.4       3 LYC4        0.0000 
      2 NZ         -1.5820   -5.5790   49.8050 N.4      11 LYL4        0.0000 
      3 NZ         -3.9170   -4.5540   52.6550 N.4       7 LYP4        0.0000 
      4 N          -0.4265   -6.2775   50.6865 N.am      2 SEC2        0.0000 
      5 N          -1.5820   -5.5790   49.8050 N.am     10 SEL2        0.0000 
      6 N           0.7290   -6.9760   51.5680 N.am      6 SEP2        0.0000 
      7 N          -2.2810   -5.5210   51.1050 N.am      2 SEC2        0.0000 
      8 N          -2.9800   -5.4630   52.4050 N.am      6 SEP2        0.0000 
      9 N          -3.1885   -4.4015   47.0430 N.am      2 SEC2        0.0000 
     10 N          -2.7570   -3.8870   48.2920 N.am     10 SEL2        0.0000 
     11 N          -3.6200   -4.9160   45.7940 N.am      6 SEP2        0.0000 
     12 N          -2.0075   -3.0065   47.3470 N.am      2 SEC2        0.0000 
     13 N          -1.2580   -2.1260   46.4020 N.am      6 SEP2        0.0000 
     14 CA         -1.4245   -1.3575   47.8930 C.3       4 GLC5        0.0000 
     15 CA         -1.0720   -1.8300   49.8230 C.3      12 GLL5        0.0000 
     16 CA         -1.7770   -0.8850   45.9630 C.3       8 GLP5        0.0000 
     17 CA          0.9790   -0.1845   51.6230 C.3       4 GLC5        0.0000 
     18 CA         -0.8890   -1.0210   51.1120 C.3      12 GLL5        0.0000 
     19 CA          2.8470    0.6520   52.1340 C.3       8 GLP5        0.0000 
     20 CA         -2.5630   -2.7310   53.5390 C.3       4 GLC5        0.0000 
     21 CA         -2.0300   -1.2580   52.1140 C.3      12 GLL5        0.0000 
     22 CA         -3.0960   -4.2040   54.9640 C.3       8 GLP5        0.0000 
     23 O          -0.7325   -0.8870   54.0415 O.2       1 ALC1        0.0000 
     24 O          -1.5330   -1.7950   53.3320 O.2       9 ALL1        0.0000 
     25 O           0.0680    0.0210   54.7510 O.2       5 ALP1        0.0000 
     26 O          -1.7200   -0.6530   54.4520 O.2       1 ALC1        0.0000 
     27 O          -1.9070    0.4890   55.5720 O.2       5 ALP1        0.0000 
     28 CA         -3.2825    1.9035   53.4475 C.3       4 GLC5        0.0000 
     29 CA         -2.6720    0.1220   52.2290 C.3      12 GLL5        0.0000 
     30 CA         -3.8930    3.6850   54.6660 C.3       8 GLP5        0.0000 
     31 O          -2.5855    0.4590   54.5190 O.2       1 ALC1        0.0000 
     32 O          -3.2640    0.4290   53.4660 O.2       9 ALL1        0.0000 
     33 CA          0.6725    0.8235   52.0025 C.3       4 GLC5        0.0000 
     34 CA         -1.5020    0.9950   51.8710 C.3      12 GLL5        0.0000 
     35 N          -3.8590    4.8710   50.0675 N.am      2 SEC2        0.0000 
     36 N          -2.5970    4.2430   50.6070 N.am     10 SEL2        0.0000 
     37 N          -5.1210    5.4990   49.5280 N.am      6 SEP2        0.0000 
     38 CA         -2.2880    5.3245   53.7925 C.3       4 GLC5        0.0000 
     39 CA         -1.2470    5.8940   51.9960 C.3      12 GLL5        0.0000 
     40 CA         -3.3290    4.7550   55.5890 C.3       8 GLP5        0.0000 
     41 CA         -1.2170    7.3270   53.6745 C.3       4 GLC5        0.0000 
     42 CA         -1.1870    8.7600   55.3530 C.3       8 GLP5        0.0000 
     43 CA          0.7310    6.9240   52.2875 C.3       4 GLC5        0.0000 
     44 CA          2.7090    7.9540   52.5790 C.3       8 GLP5        0.0000 
     45 O          -1.7585    8.3765   52.0520 O.2       1 ALC1        0.0000 
     46 O          -1.7070    7.0210   51.4730 O.2       9 ALL1        0.0000 
     47 O          -1.8100    9.7320   52.6310 O.2       5 ALP1        0.0000 
     48 O          -3.2145    7.6205   51.0115 O.2       1 ALC1        0.0000 
     49 O          -4.7220    8.2200   50.5500 O.2       5 ALP1        0.0000 
     50 N           0.2870    7.2710   53.5365 N.am      2 SEC2        0.0000 
     51 N          -0.2850    5.9470   53.0120 N.am     10 SEL2        0.0000 
     52 N           0.8590    8.5950   54.0610 N.am      6 SEP2        0.0000 
     53 CA          2.2665    4.7755   52.9445 C.3       4 GLC5        0.0000 
     54 CA          0.2110    4.7620   53.5750 C.3      12 GLL5        0.0000 
     55 CA          4.3220    4.7890   52.3140 C.3       8 GLP5        0.0000 
     56 CA          1.3925    5.7495   55.0905 C.3       4 GLC5        0.0000 
     57 CA          2.5740    6.7370   56.6060 C.3       8 GLP5        0.0000 
     58 CA          0.5495    3.7210   55.1305 C.3       4 GLC5        0.0000 
     59 CA          0.8880    2.6800   56.6860 C.3       8 GLP5        0.0000 
     60 CA         -1.5590    4.7585   54.5820 C.3       4 GLC5        0.0000 
     61 CA          1.4600    6.3580   53.0770 C.3       4 GLC5        0.0000 
     62 CA          0.9425    4.2135   51.6750 C.3       4 GLC5        0.0000 
     63 CA          1.6740    3.6650   49.7750 C.3       8 GLP5        0.0000 
     64 N          -0.8160    3.4985   54.7700 N.am      2 SEC2        0.0000 
     65 N          -0.2380    3.5240   53.1300 N.am     10 SEL2        0.0000 
     66 N          -1.3940    3.4730   56.4100 N.am      6 SEP2        0.0000 
     67 N           2.4325   -6.1945   49.6450 N.am      2 SEC2        0.0000 
     68 N           1.7710   -4.8540   49.3860 N.am     10 SEL2        0.0000 
     69 N           3.0940   -7.5350   49.9040 N.am      6 SEP2        0.0000 
     70 N           3.1310   -4.9920   49.8030 N.am      2 SEC2        0.0000 
     71 N           4.4910   -5.1300   50.2200 N.am      6 SEP2        0.0000 
     72 N          -0.3965   -6.8040   47.0885 N.am      2 SEC2        0.0000 
     73 N           0.7490   -6.5720   47.8320 N.am     10 SEL2        0.0000 
     74 N          -1.5420   -7.0360   46.3450 N.am      6 SEP2        0.0000 
     75 N           1.9215   -7.0535   48.8680 N.am      2 SEC2        0.0000 
     76 N           5.0070   -3.7270   46.1960 N.am      2 SEC2        0.0000 
     77 N           3.8230   -3.2770   45.2510 N.am     10 SEL2        0.0000 
     78 N           6.1910   -4.1770   47.1410 N.am      6 SEP2        0.0000 
     79 O           0.4040   -1.6935   42.9840 O.2       1 ALC1        0.0000 
     80 O           1.6550   -1.6960   43.5440 O.2       9 ALL1        0.0000 
     81 O          -0.8470   -1.6910   42.4240 O.2       5 ALP1        0.0000 
     82 CA          0.3395   -5.0315   44.5435 C.3       4 GLC5        0.0000 
     83 CA          2.1960   -4.0640   43.7640 C.3      12 GLL5        0.0000 
     84 CA         -1.5170   -5.9990   45.3230 C.3       8 GLP5        0.0000 
     85 CA          2.4070   -4.4750   41.6010 C.3       4 GLC5        0.0000 
     86 CA          2.6180   -4.8860   39.4380 C.3       8 GLP5        0.0000 
     87 N           0.4725   -5.1215   42.3470 N.am      2 SEC2        0.0000 
     88 N           1.7660   -4.2190   42.4420 N.am     10 SEL2        0.0000 
     89 N          -0.8210   -6.0240   42.2520 N.am      6 SEP2        0.0000 
     90 O           1.9960   -3.4190   41.2665 O.2       1 ALC1        0.0000 
     91 O           1.7660   -4.2190   42.4420 O.2       9 ALL1        0.0000 
     92 O           2.2260   -2.6190   40.0910 O.2       5 ALP1        0.0000 
     93 O           8.4515   -2.8495   43.3600 O.2       1 ALC1        0.0000 
     94 O           8.6670   -4.3480   42.9390 O.2       9 ALL1        0.0000 
     95 O           8.2360   -1.3510   43.7810 O.2       5 ALP1        0.0000 
     96 CA         -0.4476   -3.0504   51.9069 C.3       4 GLC5        0.0000 
     97 CA          0.6100   -4.7590   52.5230 C.3       8 GLP5        0.0000 
     98 CA         -2.6670    3.8702   53.2518 C.3       4 GLC5        0.0000 
     99 CA         -1.1790    3.4760   52.1370 C.3      12 GLL5        0.0000 
    100 CA          0.1735    4.0176   50.8635 C.3       4 GLC5        0.0000 
    101 CA         -1.7030    4.6350   51.5380 C.3      12 GLL5        0.0000 
    102 CA          4.2523   -2.3035   46.7630 C.3       4 GLC5        0.0000 
    103 CA          2.0670   -3.1120   46.9080 C.3      12 GLL5        0.0000 
    104 CA          6.1600   -1.7470   47.2790 C.3       8 GLP5        0.0000 
    105 CA          2.9853   -1.0075   44.1838 C.3       4 GLC5        0.0000 
    106 CA          2.6220   -2.6080   45.5860 C.3      12 GLL5        0.0000 
    107 CA          3.8260    0.7000   43.3690 C.3       8 GLP5        0.0000 
    108 CA          0.6844   -1.3765   45.4980 C.3       4 GLC5        0.0000 
    109 CA         -0.6370    0.0880   45.6670 C.3       8 GLP5        0.0000 
    110 CA          7.3835   -6.1120   45.0360 C.3       4 GLC5        0.0000 
    111 CA          5.8840   -4.8030   43.6050 C.3      12 GLL5        0.0000 
    112 CA          8.4300   -6.8930   46.5010 C.3       8 GLP5        0.0000 
    113 CA          7.0435   -7.0947   45.2350 C.3       4 GLC5        0.0000 
    114 CA          6.3320   -7.1790   43.8010 C.3      12 GLL5        0.0000 
    115 CA          4.3015   -7.6441   45.6520 C.3       4 GLC5        0.0000 
    116 CA          4.0970   -6.3300   44.1970 C.3      12 GLL5        0.0000 
    117 CA          3.7260   -8.4750   47.2210 C.3       8 GLP5        0.0000 
@<TRIPOS>BOND
@<TRIPOS>SUBSTRUCTURE
     1 ALC1       23 GROUP        1 X    ALC  0     ROOT ALC X 1
     2 SEC2        4 GROUP        1 X    SEC  0     **** SEC X 2
     3 LYC4        1 GROUP        1 X    LYC  0     **** LYC X 4
     4 GLC5       14 GROUP        1 X    GLC  0     **** GLC X 6
     5 ALP1       25 GROUP        1 Y    ALP  0     ROOT ALP Y 8
     6 SEP2        6 GROUP        1 Y    SEP  0     **** SEP Y 9
     7 LYP4        3 GROUP        1 Y    LYP  0     **** LYP Y 11
     8 GLP5       16 GROUP        1 Y    GLP  0     **** GLP Y 13
     9 ALL1       24 GROUP        1 Z    ALL  0     ROOT ALL Z 15
    10 SEL2        5 GROUP        1 Z    SEL  0     **** SEL Z 16
    11 LYL4        2 GROUP        1 Z    LYL  0     **** LYL Z 18
    12 GLL5       15 GROUP        1 Z    GLL  0     **** GLL Z 20
@<TRIPOS>SET

