#    Name: 2fkn_NAD_1_ligand
#    Modification time : Tue Mar 25 12:50:41 2014

@<TRIPOS>MOLECULE
2fkn_NAD_1_ligand
   70    74     1     0     0
SMALL
NO_CHARGES


@<TRIPOS>ATOM
      1 PA         -1.5350   -4.3020   49.0930 P.3       1 NAD5555     0.0000 
      2 O1A        -1.5820   -5.5790   49.8050 O.co2     1 NAD5555     0.0000 
      3 O2A        -2.7570   -3.8870   48.2920 O.co2     1 NAD5555     0.0000 
      4 O5B        -1.1300   -3.1900   50.1640 O.3       1 NAD5555     0.0000 
      5 C5B        -1.0720   -1.8300   49.8230 C.3       1 NAD5555     0.0000 
      6 C4B        -0.8890   -1.0210   51.1120 C.3       1 NAD5555     0.0000 
      7 O4B        -0.9470    0.3540   50.7460 O.3       1 NAD5555     0.0000 
      8 C3B        -2.0300   -1.2580   52.1140 C.3       1 NAD5555     0.0000 
      9 O3B        -1.5330   -1.7950   53.3320 O.3       1 NAD5555     0.0000 
     10 C2B        -2.6720    0.1220   52.2290 C.3       1 NAD5555     0.0000 
     11 O2B        -3.2640    0.4290   53.4660 O.3       1 NAD5555     0.0000 
     12 C1B        -1.5020    0.9950   51.8710 C.3       1 NAD5555     0.0000 
     13 N9A        -1.7730    2.4080   51.5320 N.pl3     1 NAD5555     0.0000 
     14 C8A        -2.6480    2.9010   50.5920 C.2       1 NAD5555     0.0000 
     15 N7A        -2.5970    4.2430   50.6070 N.2       1 NAD5555     0.0000 
     16 C5A        -1.7030    4.6350   51.5380 C.ar      1 NAD5555     0.0000 
     17 C6A        -1.2470    5.8940   51.9960 C.ar      1 NAD5555     0.0000 
     18 N6A        -1.7070    7.0210   51.4730 N.pl3     1 NAD5555     0.0000 
     19 N1A        -0.2850    5.9470   53.0120 N.ar      1 NAD5555     0.0000 
     20 C2A         0.2110    4.7620   53.5750 C.ar      1 NAD5555     0.0000 
     21 N3A        -0.2380    3.5240   53.1300 N.ar      1 NAD5555     0.0000 
     22 C4A        -1.1790    3.4760   52.1370 C.ar      1 NAD5555     0.0000 
     23 O3         -0.3300   -4.3290   48.0700 O.3       1 NAD5555     0.0000 
     24 PN          1.0500   -5.1450   48.1260 P.3       1 NAD5555     0.0000 
     25 O1N         1.7710   -4.8540   49.3860 O.co2     1 NAD5555     0.0000 
     26 O2N         0.7490   -6.5720   47.8320 O.co2     1 NAD5555     0.0000 
     27 O5D         1.7020   -4.4760   46.8360 O.3       1 NAD5555     0.0000 
     28 C5D         2.0670   -3.1120   46.9080 C.3       1 NAD5555     0.0000 
     29 C4D         2.6220   -2.6080   45.5860 C.3       1 NAD5555     0.0000 
     30 O4D         3.8230   -3.2770   45.2510 O.3       1 NAD5555     0.0000 
     31 C3D         1.6670   -2.8220   44.4110 C.3       1 NAD5555     0.0000 
     32 O3D         1.6550   -1.6960   43.5440 O.3       1 NAD5555     0.0000 
     33 C2D         2.1960   -4.0640   43.7640 C.3       1 NAD5555     0.0000 
     34 O2D         1.7660   -4.2190   42.4420 O.3       1 NAD5555     0.0000 
     35 C1D         3.6940   -3.8520   43.9700 C.3       1 NAD5555     0.0000 
     36 N1N         4.5660   -5.0460   43.9320 N.pl3     1 NAD5555     0.0000 
     37 C2N         5.8840   -4.8030   43.6050 C.ar      1 NAD5555     0.0000 
     38 C3N         6.7900   -5.8590   43.5370 C.ar      1 NAD5555     0.0000 
     39 C7N         8.2080   -5.5670   43.1800 C.2       1 NAD5555     0.0000 
     40 O7N         9.0680   -6.6250   43.1060 O.2       1 NAD5555     0.0000 
     41 N7N         8.6670   -4.3480   42.9390 N.am      1 NAD5555     0.0000 
     42 C4N         6.3320   -7.1790   43.8010 C.ar      1 NAD5555     0.0000 
     43 C5N         4.9820   -7.4140   44.1370 C.ar      1 NAD5555     0.0000 
     44 C6N         4.0970   -6.3300   44.1970 C.ar      1 NAD5555     0.0000 
     45 H          -1.9883   -1.4772   49.3436 H         1 NAD5555     0.0000 
     46 H          -0.2289   -1.5962   49.1685 H         1 NAD5555     0.0000 
     47 H           0.0337   -1.2687   51.5611 H         1 NAD5555     0.0000 
     48 H          -2.7375   -1.9049   51.6167 H         1 NAD5555     0.0000 
     49 H          -3.3682    0.1944   51.3833 H         1 NAD5555     0.0000 
     50 H          -0.7803    0.9385   52.6906 H         1 NAD5555     0.0000 
     51 H          -3.2026    2.3536   50.0211 H         1 NAD5555     0.0000 
     52 H          -2.3411    6.9235   50.7059 H         1 NAD5555     0.0000 
     53 H          -1.3784    7.8671   51.8927 H         1 NAD5555     0.0000 
     54 H           0.9153    4.8155   54.3259 H         1 NAD5555     0.0000 
     55 H           2.8379   -2.9340   47.6822 H         1 NAD5555     0.0000 
     56 H           1.2050   -2.4703   47.1735 H         1 NAD5555     0.0000 
     57 H           2.7989   -1.5366   45.6668 H         1 NAD5555     0.0000 
     58 H           0.7022   -3.0446   44.8310 H         1 NAD5555     0.0000 
     59 H           1.9161   -4.8891   44.4201 H         1 NAD5555     0.0000 
     60 H           4.0317   -3.1258   43.2261 H         1 NAD5555     0.0000 
     61 H           6.2038   -3.8441   43.4103 H         1 NAD5555     0.0000 
     62 H           8.0117   -3.6010   43.0510 H         1 NAD5555     0.0000 
     63 H           9.6272   -4.2852   42.6669 H         1 NAD5555     0.0000 
     64 H           6.9898   -7.9606   43.7457 H         1 NAD5555     0.0000 
     65 H           4.6606   -8.3586   44.3320 H         1 NAD5555     0.0000 
     66 H           3.1140   -6.4844   44.4341 H         1 NAD5555     0.0000 
     67 H          -0.9760   -1.0651   53.7283 H         1 NAD5555     0.0000 
     68 H          -2.6998   -0.0390   54.1460 H         1 NAD5555     0.0000 
     69 H           0.6965   -1.5806   43.2832 H         1 NAD5555     0.0000 
     70 H           2.1272   -3.4223   41.9574 H         1 NAD5555     0.0000 
@<TRIPOS>BOND
     1    2    1 ar   
     2    3    1 ar   
     3    4    1 1    
     4   23    1 1    
     5    5    4 1    
     6    6    5 1    
     7   45    5 1    
     8   46    5 1    
     9    7    6 1    
    10    8    6 1    
    11   47    6 1    
    12   12    7 1    
    13    9    8 1    
    14   10    8 1    
    15   48    8 1    
    16   67    9 1    
    17   11   10 1    
    18   12   10 1    
    19   49   10 1    
    20   68   11 1    
    21   13   12 1    
    22   50   12 1    
    23   14   13 1    
    24   22   13 1    
    25   15   14 2    
    26   51   14 1    
    27   16   15 1    
    28   17   16 ar   
    29   22   16 ar   
    30   18   17 1    
    31   19   17 ar   
    32   52   18 1    
    33   53   18 1    
    34   20   19 ar   
    35   21   20 ar   
    36   54   20 1    
    37   22   21 ar   
    38   24   23 1    
    39   25   24 ar   
    40   26   24 ar   
    41   27   24 1    
    42   28   27 1    
    43   29   28 1    
    44   55   28 1    
    45   56   28 1    
    46   30   29 1    
    47   31   29 1    
    48   57   29 1    
    49   35   30 1    
    50   32   31 1    
    51   33   31 1    
    52   58   31 1    
    53   69   32 1    
    54   34   33 1    
    55   35   33 1    
    56   59   33 1    
    57   70   34 1    
    58   36   35 1    
    59   60   35 1    
    60   37   36 ar   
    61   44   36 ar   
    62   38   37 ar   
    63   61   37 1    
    64   39   38 1    
    65   42   38 ar   
    66   40   39 2    
    67   41   39 am   
    68   62   41 1    
    69   63   41 1    
    70   43   42 ar   
    71   64   42 1    
    72   44   43 ar   
    73   65   43 1    
    74   66   44 1    
@<TRIPOS>SUBSTRUCTURE
     1 NAD5555     1 GROUP   
@<TRIPOS>SET

