#    Name: 4L32_1_CAVITY_N1_6.mol2
#    Modification time : Tue Mar 11 12:44:51 2014

@<TRIPOS>MOLECULE
4L32_1_CAVITY_N1_6.mol2
  105     0     7     0     0
SMALL
NO_CHARGES


@<TRIPOS>ATOM
      1 CA          7.4525  -35.3246   -3.5483 C.3       6 GLY6        0.0000 
      2 CA          4.2050  -35.7959   -4.2420 C.3       6 GLY6        0.0000 
      3 N           2.9520  -38.2990   -3.1629 N.2       2 ALA2        0.0000 
      4 CA          8.9492  -38.2406   -8.5739 C.3       6 GLY6        0.0000 
      5 OG          8.3227  -39.4921   -8.0344 O.2       1 SER1        0.0000 
      6 OG          7.6963  -40.7437   -7.4948 O.2       1 SER1        0.0000 
      7 CZ          7.0698  -41.9952   -6.9552 C.ar      5 PHE5        0.0000 
      8 CZ          7.6387  -37.8504   -9.1906 C.ar      5 PHE5        0.0000 
      9 OG          7.0122  -39.1020   -8.6510 O.2       1 SER1        0.0000 
     10 N           6.3857  -40.3535   -8.1114 N.2       2 ALA2        0.0000 
     11 N           5.7592  -41.6051   -7.5719 N.2       2 ALA2        0.0000 
     12 CZ          6.3282  -37.4603   -9.8073 C.ar      5 PHE5        0.0000 
     13 DU          5.7017  -38.7118   -9.2677 H         7 CUB7        0.0000 
     14 N           5.0752  -39.9634   -8.7281 N.2       2 ALA2        0.0000 
     15 CZ          5.6441  -35.8186  -10.9635 C.ar      5 PHE5        0.0000 
     16 CZ          5.0176  -37.0701  -10.4239 C.ar      5 PHE5        0.0000 
     17 CA          4.3911  -38.3217   -9.8844 C.3       6 GLY6        0.0000 
     18 N           3.7646  -39.5732   -9.3448 N.2       2 ALA2        0.0000 
     19 OD1         5.5290  -30.0321  -14.3552 O.3       3 ASP3        0.0000 
     20 NZ          3.5920  -30.8935  -14.4323 N.2       4 LYS4        0.0000 
     21 OG          2.9655  -32.1450  -13.8927 O.2       1 SER1        0.0000 
     22 NZ          2.2814  -30.5033  -15.0489 N.2       4 LYS4        0.0000 
     23 CZ          1.6549  -31.7549  -14.5093 C.ar      5 PHE5        0.0000 
     24 N           8.0129  -38.5794  -10.4470 N.2       2 ALA2        0.0000 
     25 N           7.3864  -39.8309   -9.9074 N.2       2 ALA2        0.0000 
     26 N           6.7599  -41.0825   -9.3679 N.2       2 ALA2        0.0000 
     27 O           6.1334  -42.3340   -8.8283 O.2       2 ALA2        0.0000 
     28 CZ          7.3288  -36.9377  -11.6033 C.ar      5 PHE5        0.0000 
     29 N           6.7023  -38.1893  -11.0637 N.2       2 ALA2        0.0000 
     30 N           6.0758  -39.4408  -10.5241 N.2       2 ALA2        0.0000 
     31 N           5.4494  -40.6923   -9.9845 N.2       2 ALA2        0.0000 
     32 N           4.8229  -41.9439   -9.4449 N.2       2 ALA2        0.0000 
     33 CA          6.0183  -36.5476  -12.2199 C.3       6 GLY6        0.0000 
     34 CA          5.3918  -37.7991  -11.6803 C.3       6 GLY6        0.0000 
     35 O           4.7653  -39.0506  -11.1408 O.2       2 ALA2        0.0000 
     36 CZ          5.3342  -34.9059  -13.3762 C.ar      5 PHE5        0.0000 
     37 OG          5.2767  -32.0126  -15.0720 O.2       1 SER1        0.0000 
     38 OG          4.6502  -33.2642  -14.5324 O.2       1 SER1        0.0000 
     39 CZ          4.0237  -34.5157  -13.9928 C.ar      5 PHE5        0.0000 
     40 NZ          4.5926  -30.3709  -16.2283 N.2       4 LYS4        0.0000 
     41 NZ          3.3396  -32.8740  -15.1491 N.2       4 LYS4        0.0000 
     42 CA          9.5114  -37.1728   -5.4444 C.3       6 GLY6        0.0000 
     43 CZ          7.0055  -42.1789   -3.2861 C.ar      5 PHE5        0.0000 
     44 CA          8.2009  -36.7826   -6.0611 C.3       6 GLY6        0.0000 
     45 CZ          7.5744  -38.0341   -5.5215 C.ar      5 PHE5        0.0000 
     46 CZ          6.9479  -39.2857   -4.9819 C.ar      5 PHE5        0.0000 
     47 CZ          6.3214  -40.5372   -4.4424 C.ar      5 PHE5        0.0000 
     48 N           5.6949  -41.7888   -3.9028 N.2       2 ALA2        0.0000 
     49 CA          6.8903  -36.3925   -6.6778 C.3       6 GLY6        0.0000 
     50 CA          6.2639  -37.6440   -6.1382 C.3       6 GLY6        0.0000 
     51 CZ          5.6374  -38.8955   -5.5986 C.ar      5 PHE5        0.0000 
     52 N           5.0109  -40.1471   -5.0590 N.2       2 ALA2        0.0000 
     53 CA          5.5798  -36.0023   -7.2944 C.3       6 GLY6        0.0000 
     54 CZ          4.9533  -37.2538   -6.7549 C.ar      5 PHE5        0.0000 
     55 CA          4.3268  -38.5054   -6.2153 C.3       6 GLY6        0.0000 
     56 N           3.7003  -39.7569   -5.6757 N.2       2 ALA2        0.0000 
     57 O           2.2171  -30.6871  -11.3798 O.2       2 ALA2        0.0000 
     58 O           9.2015  -36.2600   -7.8571 O.2       2 ALA2        0.0000 
     59 CA          8.5751  -37.5116   -7.3175 C.3       6 GLY6        0.0000 
     60 CZ          7.9486  -38.7631   -6.7779 C.ar      5 PHE5        0.0000 
     61 CZ          7.3221  -40.0147   -6.2384 C.ar      5 PHE5        0.0000 
     62 CZ          6.6956  -41.2662   -5.6988 C.ar      5 PHE5        0.0000 
     63 CZ          6.0691  -42.5178   -5.1592 C.ar      5 PHE5        0.0000 
     64 CZ          7.8910  -35.8699   -8.4738 C.ar      5 PHE5        0.0000 
     65 CA          7.2645  -37.1214   -7.9342 C.3       6 GLY6        0.0000 
     66 DU          6.6380  -38.3730   -7.3946 H         7 CUB7        0.0000 
     67 N           6.0115  -39.6245   -6.8550 N.2       2 ALA2        0.0000 
     68 N           5.3851  -40.8761   -6.3154 N.2       2 ALA2        0.0000 
     69 CZ          6.5805  -35.4797   -9.0904 C.ar      5 PHE5        0.0000 
     70 CZ          5.9540  -36.7313   -8.5509 C.ar      5 PHE5        0.0000 
     71 CA          5.3275  -37.9828   -8.0113 C.3       6 GLY6        0.0000 
     72 N           4.7010  -39.2344   -7.4717 N.2       2 ALA2        0.0000 
     73 OG          5.1548  -29.3031  -13.0988 O.2       1 SER1        0.0000 
     74 OG          3.2178  -30.1645  -13.1758 O.2       1 SER1        0.0000 
     75 CA          1.2808  -31.0259  -13.2529 C.3       6 GLY6        0.0000 
     76 CZ          8.5108  -37.6953   -3.6485 C.ar      5 PHE5        0.0000 
     77 CA          7.8267  -36.0536   -4.8047 C.3       6 GLY6        0.0000 
     78 CA          7.2002  -37.3052   -4.2651 C.3       6 GLY6        0.0000 
     79 CZ          6.5737  -38.5567   -3.7255 C.ar      5 PHE5        0.0000 
     80 CA          5.8897  -36.9150   -4.8818 C.3       6 GLY6        0.0000 
     81 DU          5.2632  -38.1666   -4.3422 H         7 CUB7        0.0000 
     82 N           4.6367  -39.4181   -3.8026 N.2       2 ALA2        0.0000 
     83 CZ          4.5791  -36.5249   -5.4984 C.ar      5 PHE5        0.0000 
     84 CA          3.9527  -37.7764   -4.9589 C.3       6 GLY6        0.0000 
     85 N           3.3262  -39.0280   -4.4193 N.2       2 ALA2        0.0000 
     86 N           7.7030  -37.6667  -12.8597 N.2       2 ALA2        0.0000 
     87 O           7.0765  -38.9182  -12.3201 O.2       2 ALA2        0.0000 
     88 CZ          7.0189  -36.0250  -14.0159 C.ar      5 PHE5        0.0000 
     89 CA          6.3925  -37.2765  -13.4763 C.3       6 GLY6        0.0000 
     90 N           5.7660  -38.5281  -12.9368 N.2       2 ALA2        0.0000 
     91 CZ          6.3349  -34.3833  -15.1722 C.ar      5 PHE5        0.0000 
     92 CA          5.7084  -35.6348  -14.6326 C.3       6 GLY6        0.0000 
     93 NZ          5.0244  -33.9931  -15.7888 N.2       4 LYS4        0.0000 
     94 CA          4.3979  -35.2447  -15.2493 C.3       6 GLY6        0.0000 
     95 CZ          3.0873  -34.8545  -15.8659 C.ar      5 PHE5        0.0000 
     96 CA          8.7037  -37.1441  -14.6557 C.3       6 GLY6        0.0000 
     97 O           8.0772  -38.3957  -14.1161 O.2       2 ALA2        0.0000 
     98 CA          8.0196  -35.5024  -15.8119 C.3       6 GLY6        0.0000 
     99 OG          7.3931  -36.7540  -15.2723 O.2       1 SER1        0.0000 
    100 N           6.7666  -38.0055  -14.7328 N.2       2 ALA2        0.0000 
    101 CA          6.7091  -35.1123  -16.4286 C.3       6 GLY6        0.0000 
    102 CA          6.0826  -36.3638  -15.8890 C.3       6 GLY6        0.0000 
    103 N           5.4561  -37.6154  -15.3494 N.2       2 ALA2        0.0000 
    104 NZ          5.3985  -34.7221  -17.0453 N.2       4 LYS4        0.0000 
    105 N           4.7720  -35.9737  -16.5057 N.2       2 ALA2        0.0000 
@<TRIPOS>BOND
@<TRIPOS>SUBSTRUCTURE
     1 SER1        5 GROUP   
     2 ALA2        3 GROUP   
     3 ASP3       19 GROUP   
     4 LYS4       20 GROUP   
     5 PHE5        7 GROUP   
     6 GLY6        1 GROUP   
     7 CUB7       13 GROUP   
@<TRIPOS>SET

