#    Name: 4l32_1VF_1_INTS_M
#    Modification time : Mon Apr  7 23:53:06 2014

@<TRIPOS>MOLECULE
4l32_1VF_1_INTS_M
   57     0     6     0     0
SMALL
NO_CHARGES


@<TRIPOS>ATOM
      1 CA          5.3885  -35.9585   -5.6385 C.3       2 GLC5        0.0000 
      2 CA          4.7170  -38.0360   -5.9560 C.3       6 GLL5        0.0000 
      3 CA          6.0600  -33.8810   -5.3210 C.3       4 GLP5        0.0000 
      4 CA          3.8625  -41.3800   -5.8215 C.3       2 GLC5        0.0000 
      5 CA          4.4470  -39.3470   -5.1860 C.3       6 GLL5        0.0000 
      6 CA          3.2780  -43.4130   -6.4570 C.3       4 GLP5        0.0000 
      7 CA          6.1155  -35.7220   -4.6610 C.3       2 GLC5        0.0000 
      8 CA          6.1710  -37.5630   -4.0010 C.3       6 GLL5        0.0000 
      9 CA          9.7385  -38.8570   -7.7840 C.3       2 GLC5        0.0000 
     10 CA          7.9030  -38.3910   -8.5210 C.3       6 GLL5        0.0000 
     11 CA         11.5740  -39.3230   -7.0470 C.3       4 GLP5        0.0000 
     12 CA          5.0350  -37.5290  -12.9370 C.3       2 GLC5        0.0000 
     13 CA          6.9160  -37.3540  -11.9670 C.3       6 GLL5        0.0000 
     14 CA          3.1540  -37.7040  -13.9070 C.3       4 GLP5        0.0000 
     15 CA          8.1070  -36.1360  -11.7895 C.3       2 GLC5        0.0000 
     16 CA          9.2980  -34.9180  -11.6120 C.3       4 GLP5        0.0000 
     17 CA          5.6680  -38.2055  -16.8435 C.3       2 GLC5        0.0000 
     18 CA          6.5810  -36.5560  -16.0460 C.3       6 GLL5        0.0000 
     19 CA          4.7550  -39.8550  -17.6410 C.3       4 GLP5        0.0000 
     20 CA          8.7985  -36.6020  -16.2610 C.3       2 GLC5        0.0000 
     21 CA         11.0160  -36.6480  -16.4760 C.3       4 GLP5        0.0000 
     22 N           9.4800  -39.3540  -14.6830 N.am      1 SEC2        0.0000 
     23 N           8.3630  -38.4510  -15.0170 N.am      5 SEL2        0.0000 
     24 N          10.5970  -40.2570  -14.3490 N.am      3 SEP2        0.0000 
     25 N           9.0315  -38.4125  -16.3040 N.am      1 SEC2        0.0000 
     26 N           9.7000  -38.3740  -17.5910 N.am      3 SEP2        0.0000 
     27 CA          9.7230  -39.0090  -13.1850 C.3       2 GLC5        0.0000 
     28 CA          7.7060  -38.0730  -12.8650 C.3       6 GLL5        0.0000 
     29 CA         11.7400  -39.9450  -13.5050 C.3       4 GLP5        0.0000 
     30 CA          9.0455  -37.0115  -12.1485 C.3       2 GLC5        0.0000 
     31 CA         10.3850  -35.9500  -11.4320 C.3       4 GLP5        0.0000 
     32 CA          2.9170  -38.1363   -6.3915 C.3       2 GLC5        0.0000 
     33 CA          1.2520  -37.5810   -7.2120 C.3       4 GLP5        0.0000 
     34 CA          7.4045  -39.4550   -4.0055 C.3       2 GLC5        0.0000 
     35 CA          8.9220  -40.7550   -4.3530 C.3       4 GLP5        0.0000 
     36 CA          6.8915  -35.4877   -7.1925 C.3       2 GLC5        0.0000 
     37 CA          7.0390  -37.6490   -7.7330 C.3       6 GLL5        0.0000 
     38 CA          7.1850  -33.7670   -6.3310 C.3       4 GLP5        0.0000 
     39 CA          9.1423  -39.9850   -9.4352 C.3       2 GLC5        0.0000 
     40 CA         10.4050  -41.6190   -9.6560 C.3       4 GLP5        0.0000 
     41 CA          8.8948  -36.9202  -10.8332 C.3       2 GLC5        0.0000 
     42 CA          7.8560  -38.3110   -9.9080 C.3       6 GLL5        0.0000 
     43 CA          4.0332  -36.8915   -8.7802 C.3       2 GLC5        0.0000 
     44 CA          6.1080  -36.6780   -9.7800 C.3       6 GLL5        0.0000 
     45 CA          1.9340  -37.0600   -8.4830 C.3       4 GLP5        0.0000 
     46 CA          4.3840  -36.6270  -13.9403 C.3       2 GLC5        0.0000 
     47 CA          6.0440  -36.0580  -13.7630 C.3       6 GLL5        0.0000 
     48 CA          4.2535  -36.4347  -14.9595 C.3       2 GLC5        0.0000 
     49 CA          5.0080  -34.7880  -15.5450 C.3       6 GLL5        0.0000 
     50 CA          4.6410  -34.4237  -17.8795 C.3       2 GLC5        0.0000 
     51 CA          5.6980  -35.5430  -16.4790 C.3       6 GLL5        0.0000 
     52 CA          3.9290  -33.6820  -19.7470 C.3       4 GLP5        0.0000 
     53 CA          6.7793  -36.3532  -17.9503 C.3       2 GLC5        0.0000 
     54 CA          7.4190  -36.6570  -19.6380 C.3       4 GLP5        0.0000 
     55 CA          4.9090  -37.1983  -14.6327 C.3       2 GLC5        0.0000 
     56 CA          6.9800  -34.6279  -17.0050 C.3       2 GLC5        0.0000 
     57 CA          7.9930  -33.3950  -17.9810 C.3       4 GLP5        0.0000 
@<TRIPOS>BOND
@<TRIPOS>SUBSTRUCTURE
     1 SEC2       22 GROUP        1 X    SEC  0     ROOT SEC X 2
     2 GLC5        1 GROUP        1 X    GLC  0     **** GLC X 6
     3 SEP2       24 GROUP        1 Y    SEP  0     ROOT SEP Y 9
     4 GLP5        3 GROUP        1 Y    GLP  0     **** GLP Y 13
     5 SEL2       23 GROUP        1 Z    SEL  0     ROOT SEL Z 16
     6 GLL5        2 GROUP        1 Z    GLL  0     **** GLL Z 20
@<TRIPOS>SET

