#    Name: 4l32_1VF_1_ligand
#    Modification time : Mon Apr  7 23:53:06 2014

@<TRIPOS>MOLECULE
4l32_1VF_1_ligand
   47    50     1     0     0
SMALL
NO_CHARGES


@<TRIPOS>ATOM
      1 CAD         4.7170  -38.0360   -5.9560 C.3       1 1VF1204     0.0000 
      2 CAC         4.4470  -39.3470   -5.1860 C.3       1 1VF1204     0.0000 
      3 NAB         4.2100  -39.0400   -3.7620 N.4       1 1VF1204     0.0000 
      4 CAA         3.8670  -40.2800   -2.9970 C.3       1 1VF1204     0.0000 
      5 CAG         5.6030  -38.7470   -3.3150 C.3       1 1VF1204     0.0000 
      6 CAF         6.1710  -37.5630   -4.0010 C.3       1 1VF1204     0.0000 
      7 NAE         6.0720  -37.7300   -5.5060 N.am      1 1VF1204     0.0000 
      8 CAH         7.1420  -37.6650   -6.3290 C.2       1 1VF1204     0.0000 
      9 OAI         8.2730  -37.4440   -5.8850 O.2       1 1VF1204     0.0000 
     10 CAJ         7.0390  -37.6490   -7.7330 C.ar      1 1VF1204     0.0000 
     11 CAO         7.9030  -38.3910   -8.5210 C.ar      1 1VF1204     0.0000 
     12 CAN         7.8560  -38.3110   -9.9080 C.ar      1 1VF1204     0.0000 
     13 CAK         6.1570  -36.7680   -8.3750 C.ar      1 1VF1204     0.0000 
     14 CAL         6.1080  -36.6780   -9.7800 C.ar      1 1VF1204     0.0000 
     15 CAM         6.9530  -37.4700  -10.5610 C.ar      1 1VF1204     0.0000 
     16 CAP         6.9160  -37.3540  -11.9670 C.2       1 1VF1204     0.0000 
     17 OAZ         6.1490  -36.3210  -12.4080 O.3       1 1VF1204     0.0000 
     18 CAY         6.0440  -36.0580  -13.7630 C.ar      1 1VF1204     0.0000 
     19 CAX         5.1840  -35.0420  -14.1840 C.ar      1 1VF1204     0.0000 
     20 CAW         5.0080  -34.7880  -15.5450 C.ar      1 1VF1204     0.0000 
     21 CAV         5.6980  -35.5430  -16.4790 C.ar      1 1VF1204     0.0000 
     22 CAU         6.5810  -36.5560  -16.0460 C.ar      1 1VF1204     0.0000 
     23 CAT         6.7470  -36.8290  -14.6710 C.ar      1 1VF1204     0.0000 
     24 CAR         7.6180  -37.8330  -14.2290 C.2       1 1VF1204     0.0000 
     25 OAS         8.3630  -38.4510  -15.0170 O.2       1 1VF1204     0.0000 
     26 CAQ         7.7060  -38.0730  -12.8650 C.2       1 1VF1204     0.0000 
     27 H           4.0212  -37.3101   -5.6356 H         1 1VF1204     0.0000 
     28 H           4.6816  -38.2418   -6.9905 H         1 1VF1204     0.0000 
     29 H           5.3124  -39.9942   -5.3047 H         1 1VF1204     0.0000 
     30 H           3.5784  -39.8277   -5.6292 H         1 1VF1204     0.0000 
     31 H           3.6010  -38.2678   -3.5981 H         1 1VF1204     0.0000 
     32 H           6.2391  -39.6276   -3.5072 H         1 1VF1204     0.0000 
     33 H           5.6073  -38.5812   -2.2243 H         1 1VF1204     0.0000 
     34 H           7.2216  -37.4356   -3.7288 H         1 1VF1204     0.0000 
     35 H           5.6283  -36.6604   -3.7100 H         1 1VF1204     0.0000 
     36 H           8.5966  -39.0167   -8.0715 H         1 1VF1204     0.0000 
     37 H           8.5067  -38.8893  -10.4740 H         1 1VF1204     0.0000 
     38 H           5.5308  -36.1731   -7.8100 H         1 1VF1204     0.0000 
     39 H           5.4506  -36.0299  -10.2241 H         1 1VF1204     0.0000 
     40 H           4.6781  -34.4784  -13.4881 H         1 1VF1204     0.0000 
     41 H           4.3691  -34.0440  -15.8476 H         1 1VF1204     0.0000 
     42 H           5.5765  -35.3765  -17.4818 H         1 1VF1204     0.0000 
     43 H           7.1081  -37.0999  -16.7388 H         1 1VF1204     0.0000 
     44 H           8.3591  -38.7874  -12.5089 H         1 1VF1204     0.0000 
     45 H           4.5993  -40.9594   -3.0433 H         1 1VF1204     0.0000 
     46 H           3.7071  -40.0869   -2.0289 H         1 1VF1204     0.0000 
     47 H           3.0393  -40.7167   -3.3493 H         1 1VF1204     0.0000 
@<TRIPOS>BOND
     1    2    1 1    
     2    7    1 1    
     3   27    1 1    
     4   28    1 1    
     5    3    2 1    
     6   29    2 1    
     7   30    2 1    
     8    4    3 1    
     9    5    3 1    
    10   31    3 1    
    11   45    4 1    
    12   46    4 1    
    13   47    4 1    
    14    6    5 1    
    15   32    5 1    
    16   33    5 1    
    17    7    6 1    
    18   34    6 1    
    19   35    6 1    
    20    8    7 am   
    21    9    8 2    
    22   10    8 1    
    23   11   10 ar   
    24   13   10 ar   
    25   12   11 ar   
    26   36   11 1    
    27   15   12 ar   
    28   37   12 1    
    29   14   13 ar   
    30   38   13 1    
    31   15   14 ar   
    32   39   14 1    
    33   16   15 1    
    34   17   16 1    
    35   26   16 2    
    36   18   17 1    
    37   19   18 ar   
    38   23   18 ar   
    39   20   19 ar   
    40   40   19 1    
    41   21   20 ar   
    42   41   20 1    
    43   22   21 ar   
    44   42   21 1    
    45   23   22 ar   
    46   43   22 1    
    47   24   23 1    
    48   25   24 2    
    49   26   24 1    
    50   44   26 1    
@<TRIPOS>SUBSTRUCTURE
     1 1VF1204     1 GROUP   
@<TRIPOS>SET

