#    Name: 4ehu_ANP_2_INTS_M
#    Modification time : Mon Mar 24 17:51:35 2014

@<TRIPOS>MOLECULE
4ehu_ANP_2_INTS_M
   88     0    15     0     0
SMALL
NO_CHARGES


@<TRIPOS>ATOM
      1 N          21.7775   16.9805  -16.7165 N.am      2 SEC2        0.0000 
      2 N          21.3130   18.2130  -17.3170 N.am     12 SEL2        0.0000 
      3 N          22.2420   15.7480  -16.1160 N.am      7 SEP2        0.0000 
      4 N          21.0230   16.7945  -17.8410 N.am      2 SEC2        0.0000 
      5 N          20.7330   15.3760  -18.3650 N.am      7 SEP2        0.0000 
      6 N          21.3015   18.8065  -18.8445 N.am      2 SEC2        0.0000 
      7 N          21.2900   19.4000  -20.3720 N.am      7 SEP2        0.0000 
      8 N          20.3570   20.2210  -14.4170 N.am      2 SEC2        0.0000 
      9 N          20.0080   19.8630  -15.8820 N.am     12 SEL2        0.0000 
     10 N          20.7060   20.5790  -12.9520 N.am      7 SEP2        0.0000 
     11 N          19.3940   21.0000  -16.2055 N.am      2 SEC2        0.0000 
     12 N          18.7800   22.1370  -16.5290 N.am      7 SEP2        0.0000 
     13 Zn         21.7600   21.5730  -18.0015 Zn        4 ZIC7        0.0000 
     14 Zn         21.3450   20.6480  -17.8110 Zn       14 ZIL7        0.0000 
     15 Zn         22.1750   22.4980  -18.1920 Zn        9 ZIP7        0.0000 
     16 N          21.3175   20.0240  -19.0915 N.am      2 SEC2        0.0000 
     17 N          21.3450   20.6480  -17.8110 N.am     12 SEL2        0.0000 
     18 NZ         23.9590   23.1855  -15.7420 N.4       3 LYC4        0.0000 
     19 NZ         23.2390   22.1420  -16.3970 N.4      13 LYL4        0.0000 
     20 NZ         24.6790   24.2290  -15.0870 N.4       8 LYP4        0.0000 
     21 Zn         22.7070   22.3200  -17.2945 Zn        4 ZIC7        0.0000 
     22 Zn         23.2390   22.1420  -16.3970 Zn       14 ZIL7        0.0000 
     23 N          23.9590   23.1855  -15.7420 N.am      2 SEC2        0.0000 
     24 N          23.2390   22.1420  -16.3970 N.am     12 SEL2        0.0000 
     25 N          24.6790   24.2290  -15.0870 N.am      7 SEP2        0.0000 
     26 NZ         24.2105   22.7500  -14.5510 N.4       3 LYC4        0.0000 
     27 NZ         23.7420   21.2710  -14.0150 N.4      13 LYL4        0.0000 
     28 N          23.3420   20.5590  -12.8585 N.am      2 SEC2        0.0000 
     29 N          23.7420   21.2710  -14.0150 N.am     12 SEL2        0.0000 
     30 N          22.9420   19.8470  -11.7020 N.am      7 SEP2        0.0000 
     31 N          24.3765   21.4820  -12.7925 N.am      2 SEC2        0.0000 
     32 N          25.0110   21.6930  -11.5700 N.am      7 SEP2        0.0000 
     33 N          27.2650   21.4755  -18.6770 N.am      2 SEC2        0.0000 
     34 N          25.9730   21.6050  -18.0140 N.am     12 SEL2        0.0000 
     35 N          28.5570   21.3460  -19.3400 N.am      7 SEP2        0.0000 
     36 NZ         25.6520   23.1950  -15.3105 N.4       3 LYC4        0.0000 
     37 NZ         26.6250   22.1610  -15.5340 N.4      13 LYL4        0.0000 
     38 N          25.6520   23.1950  -15.3105 N.am      2 SEC2        0.0000 
     39 N          26.6250   22.1610  -15.5340 N.am     12 SEL2        0.0000 
     40 N          27.9825   22.5745  -15.3270 N.am      2 SEC2        0.0000 
     41 N          29.3400   22.9880  -15.1200 N.am      7 SEP2        0.0000 
     42 N          24.6975   18.9205  -16.3375 N.am      2 SEC2        0.0000 
     43 N          24.9690   20.3580  -15.9940 N.am     12 SEL2        0.0000 
     44 N          24.4260   17.4830  -16.6810 N.am      7 SEP2        0.0000 
     45 N          27.9545   20.6870  -18.0030 N.am      2 SEC2        0.0000 
     46 N          27.3520   20.0280  -16.6660 N.am     12 SEL2        0.0000 
     47 CA         26.9570   18.6360  -13.6735 C.3       5 GLC5        0.0000 
     48 CA         27.5790   19.1610  -15.5520 C.3      15 GLL5        0.0000 
     49 CA         26.3350   18.1110  -11.7950 C.3      10 GLP5        0.0000 
     50 CA         28.6925   17.1610  -17.7980 C.3       5 GLC5        0.0000 
     51 CA         28.5040   18.0520  -15.9820 C.3      15 GLL5        0.0000 
     52 CA         28.8810   16.2700  -19.6140 C.3      10 GLP5        0.0000 
     53 CA         27.6370   17.6300  -13.3180 C.3       5 GLC5        0.0000 
     54 CA         28.9390   17.1490  -14.8410 C.3      15 GLL5        0.0000 
     55 O          29.2370   15.1450  -13.9360 O.2       1 ALC1        0.0000 
     56 O          27.9970   16.0670  -14.7330 O.2      11 ALL1        0.0000 
     57 O          30.4770   14.2230  -13.1390 O.2       6 ALP1        0.0000 
     58 O          28.1725   15.1835  -13.6885 O.2       1 ALC1        0.0000 
     59 O          28.3480   14.3000  -12.6440 O.2       6 ALP1        0.0000 
     60 CA         32.2660   16.5600  -14.3080 C.3       5 GLC5        0.0000 
     61 CA         30.3300   16.7080  -15.2620 C.3      15 GLL5        0.0000 
     62 CA         34.2020   16.4120  -13.3540 C.3      10 GLP5        0.0000 
     63 O          30.3815   14.8325  -14.5300 O.2       1 ALC1        0.0000 
     64 O          30.2860   15.4420  -15.9210 O.2      11 ALL1        0.0000 
     65 CA         30.2860   19.4335  -17.4295 C.3       5 GLC5        0.0000 
     66 CA         30.8030   17.7330  -16.2880 C.3      15 GLL5        0.0000 
     67 CA         29.7690   21.1340  -18.5710 C.3      10 GLP5        0.0000 
     68 CA         29.8420   17.0015  -17.9510 C.3       5 GLC5        0.0000 
     69 CA         33.7305   21.3930  -16.8210 C.3       5 GLC5        0.0000 
     70 CA         33.8770   19.6380  -15.6610 C.3      15 GLL5        0.0000 
     71 CA         33.5840   23.1480  -17.9810 C.3      10 GLP5        0.0000 
     72 CA         36.7110   18.8330  -15.5250 C.3       5 GLC5        0.0000 
     73 CA         35.2800   19.8510  -16.0780 C.3      15 GLL5        0.0000 
     74 CA         38.1420   17.8150  -14.9720 C.3      10 GLP5        0.0000 
     75 CA         34.9360   20.7145  -17.8520 C.3       5 GLC5        0.0000 
     76 CA         34.5920   21.5780  -19.6260 C.3      10 GLP5        0.0000 
     77 CA         36.5775   17.9995  -16.3575 C.3       5 GLC5        0.0000 
     78 CA         35.0130   18.1840  -17.7430 C.3      15 GLL5        0.0000 
     79 CA         34.8025   19.8810  -18.6845 C.3       5 GLC5        0.0000 
     80 CA         35.1085   17.2560  -19.4285 C.3       5 GLC5        0.0000 
     81 CA         35.2040   16.3280  -21.1140 C.3      10 GLP5        0.0000 
     82 CA         26.2918   17.5478  -15.7005 C.3       5 GLC5        0.0000 
     83 CA         24.5420   16.4890  -15.6340 C.3      10 GLP5        0.0000 
     84 CA         28.9052   19.8702  -17.1690 C.3       5 GLC5        0.0000 
     85 CA         28.0752   15.7743  -16.4213 C.3       5 GLC5        0.0000 
     86 CA         27.4290   13.9480  -17.4310 C.3      10 GLP5        0.0000 
     87 CA         33.8495   17.7695  -14.6915 C.3       5 GLC5        0.0000 
     88 CA         33.1170   18.6160  -16.3970 C.3      15 GLL5        0.0000 
@<TRIPOS>BOND
@<TRIPOS>SUBSTRUCTURE
     1 ALC1       55 GROUP        1 X    ALC  0     ROOT ALC X 1
     2 SEC2        1 GROUP        1 X    SEC  0     **** SEC X 2
     3 LYC4       18 GROUP        1 X    LYC  0     **** LYC X 4
     4 ZIC7       13 GROUP        1 X    ZIC  0     **** ZIC X 5
     5 GLC5       47 GROUP        1 X    GLC  0     **** GLC X 6
     6 ALP1       57 GROUP        1 Y    ALP  0     ROOT ALP Y 8
     7 SEP2        3 GROUP        1 Y    SEP  0     **** SEP Y 9
     8 LYP4       20 GROUP        1 Y    LYP  0     **** LYP Y 11
     9 ZIP7       15 GROUP        1 Y    ZIP  0     **** ZIP Y 12
    10 GLP5       49 GROUP        1 Y    GLP  0     **** GLP Y 13
    11 ALL1       56 GROUP        1 Z    ALL  0     ROOT ALL Z 15
    12 SEL2        2 GROUP        1 Z    SEL  0     **** SEL Z 16
    13 LYL4       19 GROUP        1 Z    LYL  0     **** LYL Z 18
    14 ZIL7       14 GROUP        1 Z    ZIL  0     **** ZIL Z 19
    15 GLL5       48 GROUP        1 Z    GLL  0     **** GLL Z 20
@<TRIPOS>SET

