#    Name: 4ehu_ANP_2_ligand
#    Modification time : Mon Mar 24 17:51:36 2014

@<TRIPOS>MOLECULE
4ehu_ANP_2_ligand
   43    45     1     0     0
SMALL
NO_CHARGES


@<TRIPOS>ATOM
      1 PG         21.1730   19.5910  -16.7530 P.3       1 ANP301      0.0000 
      2 O1G        21.3130   18.2130  -17.3170 O.co2     1 ANP301      0.0000 
      3 O2G        20.0080   19.8630  -15.8820 O.co2     1 ANP301      0.0000 
      4 O3G        21.3450   20.6480  -17.8110 O.co2     1 ANP301      0.0000 
      5 PB         23.6050   20.9950  -15.4810 P.3       1 ANP301      0.0000 
      6 O1B        23.2390   22.1420  -16.3970 O.co2     1 ANP301      0.0000 
      7 O2B        23.7420   21.2710  -14.0150 O.co2     1 ANP301      0.0000 
      8 N3B        22.5390   19.6210  -15.6680 N.4       1 ANP301      0.0000 
      9 PA         26.2400   21.1670  -16.5920 P.3       1 ANP301      0.0000 
     10 O1A        25.9730   21.6050  -18.0140 O.co2     1 ANP301      0.0000 
     11 O2A        26.6250   22.1610  -15.5340 O.co2     1 ANP301      0.0000 
     12 O3A        24.9690   20.3580  -15.9940 O.3       1 ANP301      0.0000 
     13 O5'        27.3520   20.0280  -16.6660 O.3       1 ANP301      0.0000 
     14 C5'        27.5790   19.1610  -15.5520 C.3       1 ANP301      0.0000 
     15 C4'        28.5040   18.0520  -15.9820 C.3       1 ANP301      0.0000 
     16 O4'        29.7000   18.6060  -16.5300 O.3       1 ANP301      0.0000 
     17 C3'        28.9390   17.1490  -14.8410 C.3       1 ANP301      0.0000 
     18 O3'        27.9970   16.0670  -14.7330 O.3       1 ANP301      0.0000 
     19 C2'        30.3300   16.7080  -15.2620 C.3       1 ANP301      0.0000 
     20 O2'        30.2860   15.4420  -15.9210 O.3       1 ANP301      0.0000 
     21 C1'        30.8030   17.7330  -16.2880 C.3       1 ANP301      0.0000 
     22 N9         31.9190   18.5950  -15.8380 N.pl3     1 ANP301      0.0000 
     23 C8         31.8600   19.5090  -14.8550 C.2       1 ANP301      0.0000 
     24 N7         33.0550   20.1450  -14.7340 N.2       1 ANP301      0.0000 
     25 C5         33.8770   19.6380  -15.6610 C.ar      1 ANP301      0.0000 
     26 C6         35.2800   19.8510  -16.0780 C.ar      1 ANP301      0.0000 
     27 N6         36.0490   20.7770  -15.4490 N.pl3     1 ANP301      0.0000 
     28 N1         35.7580   19.1030  -17.0940 N.ar      1 ANP301      0.0000 
     29 C2         35.0130   18.1840  -17.7430 C.ar      1 ANP301      0.0000 
     30 N3         33.7370   17.9360  -17.3950 N.ar      1 ANP301      0.0000 
     31 C4         33.1170   18.6160  -16.3970 C.ar      1 ANP301      0.0000 
     32 H          26.6466   18.7139  -15.1951 H         1 ANP301      0.0000 
     33 H          28.0436   19.6937  -14.7171 H         1 ANP301      0.0000 
     34 H          28.0085   17.4391  -16.7242 H         1 ANP301      0.0000 
     35 H          29.0094   17.7400  -13.9672 H         1 ANP301      0.0000 
     36 H          30.9790   16.7302  -14.4378 H         1 ANP301      0.0000 
     37 H          31.0676   17.2229  -17.1941 H         1 ANP301      0.0000 
     38 H          31.0768   19.6957  -14.3029 H         1 ANP301      0.0000 
     39 H          36.9712   20.9045  -15.8141 H         1 ANP301      0.0000 
     40 H          35.6251   21.2495  -14.6763 H         1 ANP301      0.0000 
     41 H          35.4426   17.6479  -18.5422 H         1 ANP301      0.0000 
     42 H          28.2646   15.5727  -13.9059 H         1 ANP301      0.0000 
     43 H          30.3182   14.7659  -15.1849 H         1 ANP301      0.0000 
@<TRIPOS>BOND
     1    2    1 ar   
     2    3    1 ar   
     3    4    1 ar   
     4    8    1 1    
     5    6    5 ar   
     6    7    5 ar   
     7    8    5 1    
     8   12    5 1    
     9   10    9 ar   
    10   11    9 ar   
    11   12    9 1    
    12   13    9 1    
    13   14   13 1    
    14   15   14 1    
    15   32   14 1    
    16   33   14 1    
    17   16   15 1    
    18   17   15 1    
    19   34   15 1    
    20   21   16 1    
    21   18   17 1    
    22   19   17 1    
    23   35   17 1    
    24   42   18 1    
    25   20   19 1    
    26   21   19 1    
    27   36   19 1    
    28   43   20 1    
    29   22   21 1    
    30   37   21 1    
    31   23   22 1    
    32   31   22 1    
    33   24   23 2    
    34   38   23 1    
    35   25   24 1    
    36   26   25 ar   
    37   31   25 ar   
    38   27   26 1    
    39   28   26 ar   
    40   39   27 1    
    41   40   27 1    
    42   29   28 ar   
    43   30   29 ar   
    44   41   29 1    
    45   31   30 ar   
@<TRIPOS>SUBSTRUCTURE
     1 ANP301      1 GROUP   
@<TRIPOS>SET

