#    Name: 4fgy_0W3_1_INTS_M
#    Modification time : Mon Mar 24 20:00:42 2014

@<TRIPOS>MOLECULE
4fgy_0W3_1_INTS_M
  103     0     3     0     0
SMALL
NO_CHARGES


@<TRIPOS>ATOM
      1 CA         -1.1545  -16.3845  -11.4845 C.3       1 GLC5        0.0000 
      2 CA         -2.9710  -17.4530  -11.1970 C.3       3 GLL5        0.0000 
      3 CA          0.6620  -15.3160  -11.7720 C.3       2 GLP5        0.0000 
      4 CA         -5.4060  -19.5065   -8.8920 C.3       1 GLC5        0.0000 
      5 CA         -4.8750  -17.9030   -9.7290 C.3       3 GLL5        0.0000 
      6 CA         -5.9370  -21.1100   -8.0550 C.3       2 GLP5        0.0000 
      7 CA         -3.6475  -20.3440   -9.7750 C.3       1 GLC5        0.0000 
      8 CA         -3.5450  -18.4890  -10.2070 C.3       3 GLL5        0.0000 
      9 CA         -3.7500  -22.1990   -9.3430 C.3       2 GLP5        0.0000 
     10 CA         -7.8530  -16.2630  -10.0735 C.3       1 GLC5        0.0000 
     11 CA         -6.1070  -15.7360  -10.4900 C.3       3 GLL5        0.0000 
     12 CA         -9.5990  -16.7900   -9.6570 C.3       2 GLP5        0.0000 
     13 CA         -7.5680  -14.0690  -10.1930 C.3       1 GLC5        0.0000 
     14 CA         -9.0290  -12.4020   -9.8960 C.3       2 GLP5        0.0000 
     15 CA         -1.5420  -12.5925  -10.9295 C.3       1 GLC5        0.0000 
     16 CA         -2.9910  -12.9860   -9.4200 C.3       3 GLL5        0.0000 
     17 CA         -0.0930  -12.1990  -12.4390 C.3       2 GLP5        0.0000 
     18 CA         -2.4800  -17.6705  -14.7505 C.3       1 GLC5        0.0000 
     19 CA         -2.8420  -17.9650  -12.6550 C.3       3 GLL5        0.0000 
     20 CA         -2.1180  -17.3760  -16.8460 C.3       2 GLP5        0.0000 
     21 CA         -1.1990  -16.7895  -13.4410 C.3       1 GLC5        0.0000 
     22 CA          0.4440  -15.6140  -14.2270 C.3       2 GLP5        0.0000 
     23 CA         -5.0035  -16.5310  -13.4590 C.3       1 GLC5        0.0000 
     24 CA         -4.1760  -18.4730  -13.2210 C.3       3 GLL5        0.0000 
     25 CA         -5.8310  -14.5890  -13.6970 C.3       2 GLP5        0.0000 
     26 CA         -3.7545  -18.1850  -15.2645 C.3       1 GLC5        0.0000 
     27 CA         -3.3330  -17.8970  -17.3080 C.3       2 GLP5        0.0000 
     28 CA         -4.3075  -14.3390  -12.0755 C.3       1 GLC5        0.0000 
     29 CA         -2.7840  -14.0890  -10.4540 C.3       3 GLL5        0.0000 
     30 CA         -1.5890  -13.7950  -11.8150 C.3       1 GLC5        0.0000 
     31 CA         -0.3940  -13.5010  -13.1760 C.3       2 GLP5        0.0000 
     32 CA         -3.5940  -19.1670  -15.9935 C.3       1 GLC5        0.0000 
     33 CA         -3.8550  -20.4370  -14.6790 C.3       3 GLL5        0.0000 
     34 CA         -2.7700  -21.3025  -15.7840 C.3       1 GLC5        0.0000 
     35 CA         -1.6850  -22.1680  -16.8890 C.3       2 GLP5        0.0000 
     36 CA         -3.5255  -22.3555  -15.6615 C.3       1 GLC5        0.0000 
     37 CA         -5.3660  -22.5430  -14.4340 C.3       3 GLL5        0.0000 
     38 CA         -8.6360  -25.3315  -12.1460 C.3       1 GLC5        0.0000 
     39 CA         -7.8670  -23.6730  -13.2120 C.3       3 GLL5        0.0000 
     40 CA         -9.4050  -26.9900  -11.0800 C.3       2 GLP5        0.0000 
     41 CA         -4.8870  -26.3410   -9.9805 C.3       1 GLC5        0.0000 
     42 CA         -3.9490  -26.2730  -11.6310 C.3       3 GLL5        0.0000 
     43 CA         -5.8250  -26.4090   -8.3300 C.3       2 GLP5        0.0000 
     44 CA         -6.4700  -26.6240  -11.7285 C.3       1 GLC5        0.0000 
     45 CA         -4.8310  -26.1480  -12.8930 C.3       3 GLL5        0.0000 
     46 CA         -8.1090  -27.1000  -10.5640 C.3       2 GLP5        0.0000 
     47 CA         -4.0000  -28.0130  -13.7280 C.3       1 GLC5        0.0000 
     48 CA         -3.1690  -29.8780  -14.5630 C.3       2 GLP5        0.0000 
     49 CA         -1.0005  -22.6400  -14.7195 C.3       1 GLC5        0.0000 
     50 CA         -1.3530  -22.2140  -12.7700 C.3       3 GLL5        0.0000 
     51 CA         -0.6480  -23.0660  -16.6690 C.3       2 GLP5        0.0000 
     52 CA         -3.1100  -23.2865  -10.7535 C.3       1 GLC5        0.0000 
     53 CA         -2.4700  -24.3740  -12.1640 C.3       3 GLL5        0.0000 
     54 CA         -5.7565  -23.3085  -10.2690 C.3       1 GLC5        0.0000 
     55 CA         -5.9880  -24.5860  -11.3550 C.3       3 GLL5        0.0000 
     56 CA         -5.5250  -22.0310   -9.1830 C.3       2 GLP5        0.0000 
     57 CA         -5.0580  -27.7180  -10.0055 C.3       1 GLC5        0.0000 
     58 CA         -3.6320  -27.7120  -11.2790 C.3       3 GLL5        0.0000 
     59 CA         -6.4840  -27.7240   -8.7320 C.3       2 GLP5        0.0000 
     60 CA         -3.4005  -28.7950  -12.9210 C.3       1 GLC5        0.0000 
     61 CA         -2.2605  -22.1840  -14.9750 C.3       1 GLC5        0.0000 
     62 CA         -2.8360  -22.2000  -13.0610 C.3       3 GLL5        0.0000 
     63 CA          2.3380  -18.2475   -8.3905 C.3       1 GLC5        0.0000 
     64 CA          0.4740  -18.4940   -8.5210 C.3       3 GLL5        0.0000 
     65 CA          4.2020  -18.0010   -8.2600 C.3       2 GLP5        0.0000 
     66 CA          1.2230  -18.2375   -6.8360 C.3       1 GLC5        0.0000 
     67 CA          1.9720  -17.9810   -5.1510 C.3       2 GLP5        0.0000 
     68 CA         -4.8037  -15.8050   -7.0008 C.3       1 GLC5        0.0000 
     69 CA         -3.0520  -15.8280   -8.1350 C.3       3 GLL5        0.0000 
     70 CA         -5.8500  -15.8530   -5.5720 C.3       2 GLP5        0.0000 
     71 CA         -5.7083  -17.1135   -7.9985 C.3       1 GLC5        0.0000 
     72 CA         -4.7880  -16.3930  -10.0390 C.3       3 GLL5        0.0000 
     73 CA         -6.5850  -17.0790   -6.1130 C.3       2 GLP5        0.0000 
     74 CA         -5.6393  -15.3268  -11.9807 C.3       1 GLC5        0.0000 
     75 CA         -1.4792  -12.7938   -9.1050 C.3       1 GLC5        0.0000 
     76 CA         -0.0710  -12.0500   -8.2730 C.3       2 GLP5        0.0000 
     77 CA         -4.8005  -14.5219   -6.5424 C.3       1 GLC5        0.0000 
     78 CA         -3.7290  -13.5110   -8.1800 C.3       3 GLL5        0.0000 
     79 CA         -1.9110  -12.6204   -7.8929 C.3       1 GLC5        0.0000 
     80 CA         -2.8830  -14.4960   -7.3650 C.3       3 GLL5        0.0000 
     81 CA         -6.0777  -21.9234  -11.1110 C.3       1 GLC5        0.0000 
     82 CA         -5.7310  -20.4850  -13.0010 C.3       3 GLL5        0.0000 
     83 CA         -7.9515  -24.2600  -15.3535 C.3       1 GLC5        0.0000 
     84 CA         -8.4360  -24.2110  -17.3190 C.3       2 GLP5        0.0000 
     85 CA         -0.0068  -20.9172  -13.3455 C.3       1 GLC5        0.0000 
     86 CA         -1.0780  -21.1430  -11.7120 C.3       3 GLL5        0.0000 
     87 CA          1.2020  -20.1560  -14.4500 C.3       2 GLP5        0.0000 
     88 CA         -0.6940  -23.7355   -9.1472 C.3       1 GLC5        0.0000 
     89 CA         -0.5580  -21.6250  -10.3840 C.3       3 GLL5        0.0000 
     90 CA         -1.1250  -25.1430   -7.9000 C.3       2 GLP5        0.0000 
     91 CA         -2.0065  -22.2635   -9.8687 C.3       1 GLC5        0.0000 
     92 CA          0.0320  -23.0310  -10.4050 C.3       3 GLL5        0.0000 
     93 CA          0.8400  -20.1013  -11.6305 C.3       1 GLC5        0.0000 
     94 CA          0.4520  -20.5780   -9.9280 C.3       3 GLL5        0.0000 
     95 CA          1.7330  -19.1010  -13.1050 C.3       2 GLP5        0.0000 
     96 CA         -7.1501  -25.9281  -11.4191 C.3       1 GLC5        0.0000 
     97 CA         -2.8879  -22.0691  -10.9970 C.3       1 GLC5        0.0000 
     98 CA         -2.0038  -21.2305   -8.7395 C.3       1 GLC5        0.0000 
     99 CA         -0.2180  -19.8330   -8.7720 C.3       3 GLL5        0.0000 
    100 CA          1.6912  -22.8981  -10.2482 C.3       1 GLC5        0.0000 
    101 CA          3.3930  -23.7300  -10.2160 C.3       2 GLP5        0.0000 
    102 CA          0.7132  -19.1193   -6.0350 C.3       1 GLC5        0.0000 
    103 CA         -0.2970  -20.6910   -7.5000 C.3       3 GLL5        0.0000 
@<TRIPOS>BOND
@<TRIPOS>SUBSTRUCTURE
     1 GLC5        1 GROUP        1 X    GLC  0     ROOT GLC X 6
     2 GLP5        3 GROUP        1 Y    GLP  0     ROOT GLP Y 13
     3 GLL5        2 GROUP        1 Z    GLL  0     ROOT GLL Z 20
@<TRIPOS>SET

