#    Name: 4fgy_0W3_1_ligand
#    Modification time : Mon Mar 24 20:00:42 2014

@<TRIPOS>MOLECULE
4fgy_0W3_1_ligand
  121   122     1     0     0
SMALL
NO_CHARGES


@<TRIPOS>ATOM
      1 O0         -4.7940  -14.2900   -8.7890 O.3       1 0W3601      0.0000 
      2 O1         -3.8100  -16.2730  -11.0840 O.3       1 0W3601      0.0000 
      3 C2         -4.4630  -15.6860   -8.7240 C.3       1 0W3601      0.0000 
      4 O2         -3.7670  -11.9610  -10.0730 O.3       1 0W3601      0.0000 
      5 C3         -4.7880  -16.3930  -10.0390 C.3       1 0W3601      0.0000 
      6 O3         -5.2190  -18.0210  -12.3480 O.3       1 0W3601      0.0000 
      7 C4         -3.7290  -13.5110   -8.1800 C.3       1 0W3601      0.0000 
      8 O4         -5.9500  -20.1850  -11.6280 O.3       1 0W3601      0.0000 
      9 C5         -2.9710  -17.4530  -11.1970 C.3       1 0W3601      0.0000 
     10 O5         -1.5220  -26.4570  -11.6030 O.2       1 0W3601      0.0000 
     11 C6         -3.0520  -15.8280   -8.1350 C.3       1 0W3601      0.0000 
     12 O6         -0.1070  -24.1910  -12.4470 O.2       1 0W3601      0.0000 
     13 C7         -4.8750  -17.9030   -9.7290 C.3       1 0W3601      0.0000 
     14 O7         -1.7850  -21.7580   -5.2850 O.co2     1 0W3601      0.0000 
     15 C8         -2.8830  -14.4960   -7.3650 C.3       1 0W3601      0.0000 
     16 O8         -2.6110  -19.7740   -4.8340 O.co2     1 0W3601      0.0000 
     17 C9         -3.5450  -18.4890  -10.2070 C.3       1 0W3601      0.0000 
     18 C10        -6.1070  -15.7360  -10.4900 C.3       1 0W3601      0.0000 
     19 C11        -2.9910  -12.9860   -9.4200 C.3       1 0W3601      0.0000 
     20 C12        -2.8420  -17.9650  -12.6550 C.3       1 0W3601      0.0000 
     21 C13        -4.1960  -12.3780   -7.2530 C.3       1 0W3601      0.0000 
     22 C14        -4.1760  -18.4730  -13.2210 C.3       1 0W3601      0.0000 
     23 C15        -2.7840  -14.0890  -10.4540 C.3       1 0W3601      0.0000 
     24 C16        -4.3110  -19.9940  -13.3000 C.3       1 0W3601      0.0000 
     25 C17        -5.7310  -20.4850  -13.0010 C.3       1 0W3601      0.0000 
     26 C18        -3.8550  -20.4370  -14.6790 C.3       1 0W3601      0.0000 
     27 C19        -5.9510  -21.9900  -13.1250 C.3       1 0W3601      0.0000 
     28 C20        -7.4200  -22.3940  -13.0150 C.2       1 0W3601      0.0000 
     29 C21        -5.3660  -22.5430  -14.4340 C.3       1 0W3601      0.0000 
     30 C22        -7.8670  -23.6730  -13.2120 C.2       1 0W3601      0.0000 
     31 C23        -7.0670  -24.9450  -13.5640 C.3       1 0W3601      0.0000 
     32 C24        -5.7220  -24.9080  -12.8230 C.3       1 0W3601      0.0000 
     33 C25        -3.9490  -26.2730  -11.6310 C.3       1 0W3601      0.0000 
     34 C26        -2.5890  -25.6750  -11.8190 C.2       1 0W3601      0.0000 
     35 C27        -1.1990  -23.6480  -12.4130 C.2       1 0W3601      0.0000 
     36 C28        -4.8310  -26.1480  -12.8930 C.3       1 0W3601      0.0000 
     37 C29        -1.3530  -22.2140  -12.7700 C.3       1 0W3601      0.0000 
     38 C30        -2.4700  -24.3740  -12.1640 C.3       1 0W3601      0.0000 
     39 C31        -1.0780  -21.1430  -11.7120 C.3       1 0W3601      0.0000 
     40 C32        -0.5580  -21.6250  -10.3840 C.3       1 0W3601      0.0000 
     41 C33        -5.9880  -24.5860  -11.3550 C.3       1 0W3601      0.0000 
     42 C34        -3.6320  -27.7120  -11.2790 C.3       1 0W3601      0.0000 
     43 C35         0.4520  -20.5780   -9.9280 C.3       1 0W3601      0.0000 
     44 C36        -2.8360  -22.2000  -13.0610 C.3       1 0W3601      0.0000 
     45 C37        -0.2180  -19.8330   -8.7720 C.3       1 0W3601      0.0000 
     46 C38         0.0320  -23.0310  -10.4050 C.3       1 0W3601      0.0000 
     47 C39        -0.2970  -20.6910   -7.5000 C.3       1 0W3601      0.0000 
     48 C40         0.4740  -18.4940   -8.5210 C.3       1 0W3601      0.0000 
     49 C41        -0.7940  -19.8240   -6.3380 C.3       1 0W3601      0.0000 
     50 C42        -1.7920  -20.5090   -5.4280 C.2       1 0W3601      0.0000 
     51 H          -5.1604  -16.1380   -7.9419 H         1 0W3601      0.0000 
     52 H          -1.9608  -17.2036  -10.8349 H         1 0W3601      0.0000 
     53 H          -2.3427  -15.8781   -8.9091 H         1 0W3601      0.0000 
     54 H          -3.0246  -16.6309   -7.4572 H         1 0W3601      0.0000 
     55 H          -5.6783  -18.3303  -10.2802 H         1 0W3601      0.0000 
     56 H          -4.9759  -18.0421   -8.6791 H         1 0W3601      0.0000 
     57 H          -3.2835  -14.5989   -6.3942 H         1 0W3601      0.0000 
     58 H          -1.8690  -14.2049   -7.3863 H         1 0W3601      0.0000 
     59 H          -2.8791  -18.5961   -9.3831 H         1 0W3601      0.0000 
     60 H          -3.7163  -19.4075  -10.7175 H         1 0W3601      0.0000 
     61 H          -2.0321  -12.6110   -9.1283 H         1 0W3601      0.0000 
     62 H          -2.1088  -18.7751  -12.6777 H         1 0W3601      0.0000 
     63 H          -2.4721  -17.1490  -13.2809 H         1 0W3601      0.0000 
     64 H          -4.3193  -18.0597  -14.2048 H         1 0W3601      0.0000 
     65 H          -3.6295  -20.4295  -12.5688 H         1 0W3601      0.0000 
     66 H          -6.4272  -19.9646  -13.6104 H         1 0W3601      0.0000 
     67 H          -5.4100  -22.4842  -12.3012 H         1 0W3601      0.0000 
     68 H          -8.0601  -21.6145  -12.7766 H         1 0W3601      0.0000 
     69 H          -8.9209  -23.8847  -13.1217 H         1 0W3601      0.0000 
     70 H          -6.8912  -24.9703  -14.6273 H         1 0W3601      0.0000 
     71 H          -7.6256  -25.8127  -13.2522 H         1 0W3601      0.0000 
     72 H          -5.1435  -24.0483  -13.2156 H         1 0W3601      0.0000 
     73 H          -4.4224  -25.8127  -10.7957 H         1 0W3601      0.0000 
     74 H          -4.1862  -26.0827  -13.7672 H         1 0W3601      0.0000 
     75 H          -5.4526  -27.0374  -12.9767 H         1 0W3601      0.0000 
     76 H          -0.8597  -21.9998  -13.6842 H         1 0W3601      0.0000 
     77 H          -3.0637  -23.6974  -11.3961 H         1 0W3601      0.0000 
     78 H          -3.1440  -24.1442  -13.1089 H         1 0W3601      0.0000 
     79 H          -2.0195  -20.5656  -11.5485 H         1 0W3601      0.0000 
     80 H          -0.3573  -20.4065  -12.1416 H         1 0W3601      0.0000 
     81 H          -1.3876  -21.5953   -9.6676 H         1 0W3601      0.0000 
     82 H           0.6517  -19.8965  -10.7254 H         1 0W3601      0.0000 
     83 H           1.3387  -21.0590   -9.5780 H         1 0W3601      0.0000 
     84 H          -1.2557  -19.6112   -9.0851 H         1 0W3601      0.0000 
     85 H           0.6854  -21.0753   -7.2672 H         1 0W3601      0.0000 
     86 H          -0.9876  -21.5059   -7.6615 H         1 0W3601      0.0000 
     87 H          -1.2497  -18.9068   -6.7538 H         1 0W3601      0.0000 
     88 H           0.0793  -19.5000   -5.7428 H         1 0W3601      0.0000 
     89 H          -5.9866  -14.7650  -10.6965 H         1 0W3601      0.0000 
     90 H          -6.4742  -16.1676  -11.3140 H         1 0W3601      0.0000 
     91 H          -6.8139  -15.8004   -9.7856 H         1 0W3601      0.0000 
     92 H          -3.4245  -11.8745   -6.8641 H         1 0W3601      0.0000 
     93 H          -4.7658  -11.7135   -7.7366 H         1 0W3601      0.0000 
     94 H          -4.7364  -12.7244   -6.4862 H         1 0W3601      0.0000 
     95 H          -2.3007  -13.7539  -11.2628 H         1 0W3601      0.0000 
     96 H          -2.2472  -14.8478  -10.0852 H         1 0W3601      0.0000 
     97 H          -3.6530  -14.4706  -10.7690 H         1 0W3601      0.0000 
     98 H          -2.9030  -20.1857  -14.8539 H         1 0W3601      0.0000 
     99 H          -3.9219  -21.4284  -14.7916 H         1 0W3601      0.0000 
    100 H          -4.4055  -20.0220  -15.4033 H         1 0W3601      0.0000 
    101 H          -4.3816  -22.3794  -14.4992 H         1 0W3601      0.0000 
    102 H          -5.5051  -23.5299  -14.5152 H         1 0W3601      0.0000 
    103 H          -5.7871  -22.1206  -15.2366 H         1 0W3601      0.0000 
    104 H          -5.1414  -24.5463  -10.8242 H         1 0W3601      0.0000 
    105 H          -6.4445  -23.7031  -11.2453 H         1 0W3601      0.0000 
    106 H          -6.5723  -25.2736  -10.9239 H         1 0W3601      0.0000 
    107 H          -3.1190  -28.1679  -12.0063 H         1 0W3601      0.0000 
    108 H          -3.0819  -27.7782  -10.4465 H         1 0W3601      0.0000 
    109 H          -4.4620  -28.2482  -11.1253 H         1 0W3601      0.0000 
    110 H          -3.1210  -21.3461  -13.4965 H         1 0W3601      0.0000 
    111 H          -3.1013  -22.9444  -13.6738 H         1 0W3601      0.0000 
    112 H          -3.3790  -22.2992  -12.2272 H         1 0W3601      0.0000 
    113 H           0.8075  -23.0990  -11.0327 H         1 0W3601      0.0000 
    114 H           0.3602  -23.3096   -9.5024 H         1 0W3601      0.0000 
    115 H          -0.6406  -23.7117  -10.6953 H         1 0W3601      0.0000 
    116 H           1.4398  -18.6125   -8.2905 H         1 0W3601      0.0000 
    117 H           0.4351  -17.8995   -9.3242 H         1 0W3601      0.0000 
    118 H           0.0516  -17.9936   -7.7653 H         1 0W3601      0.0000 
    119 H          -3.6335  -12.1193  -11.0513 H         1 0W3601      0.0000 
    120 H          -4.7637  -17.4213  -11.6899 H         1 0W3601      0.0000 
    121 H          -5.9052  -19.1877  -11.5708 H         1 0W3601      0.0000 
@<TRIPOS>BOND
     1    3    1 1    
     2    7    1 1    
     3    5    2 1    
     4    9    2 1    
     5    5    3 1    
     6   11    3 1    
     7   51    3 1    
     8   19    4 1    
     9  119    4 1    
    10   13    5 1    
    11   18    5 1    
    12   22    6 1    
    13  120    6 1    
    14   15    7 1    
    15   19    7 1    
    16   21    7 1    
    17   25    8 1    
    18  121    8 1    
    19   17    9 1    
    20   20    9 1    
    21   52    9 1    
    22   34   10 2    
    23   15   11 1    
    24   53   11 1    
    25   54   11 1    
    26   35   12 2    
    27   17   13 1    
    28   55   13 1    
    29   56   13 1    
    30   50   14 ar   
    31   57   15 1    
    32   58   15 1    
    33   50   16 ar   
    34   59   17 1    
    35   60   17 1    
    36   89   18 1    
    37   90   18 1    
    38   91   18 1    
    39   23   19 1    
    40   61   19 1    
    41   22   20 1    
    42   62   20 1    
    43   63   20 1    
    44   92   21 1    
    45   93   21 1    
    46   94   21 1    
    47   24   22 1    
    48   64   22 1    
    49   95   23 1    
    50   96   23 1    
    51   97   23 1    
    52   25   24 1    
    53   26   24 1    
    54   65   24 1    
    55   27   25 1    
    56   66   25 1    
    57   98   26 1    
    58   99   26 1    
    59  100   26 1    
    60   28   27 1    
    61   29   27 1    
    62   67   27 1    
    63   30   28 2    
    64   68   28 1    
    65  101   29 1    
    66  102   29 1    
    67  103   29 1    
    68   31   30 1    
    69   69   30 1    
    70   32   31 1    
    71   70   31 1    
    72   71   31 1    
    73   36   32 1    
    74   41   32 1    
    75   72   32 1    
    76   34   33 1    
    77   36   33 1    
    78   42   33 1    
    79   73   33 1    
    80   38   34 1    
    81   37   35 1    
    82   38   35 1    
    83   74   36 1    
    84   75   36 1    
    85   39   37 1    
    86   44   37 1    
    87   76   37 1    
    88   77   38 1    
    89   78   38 1    
    90   40   39 1    
    91   79   39 1    
    92   80   39 1    
    93   43   40 1    
    94   46   40 1    
    95   81   40 1    
    96  104   41 1    
    97  105   41 1    
    98  106   41 1    
    99  107   42 1    
   100  108   42 1    
   101  109   42 1    
   102   45   43 1    
   103   82   43 1    
   104   83   43 1    
   105  110   44 1    
   106  111   44 1    
   107  112   44 1    
   108   47   45 1    
   109   48   45 1    
   110   84   45 1    
   111  113   46 1    
   112  114   46 1    
   113  115   46 1    
   114   49   47 1    
   115   85   47 1    
   116   86   47 1    
   117  116   48 1    
   118  117   48 1    
   119  118   48 1    
   120   50   49 1    
   121   87   49 1    
   122   88   49 1    
@<TRIPOS>SUBSTRUCTURE
     1 0W3601      1 GROUP   
@<TRIPOS>SET

