#    Name: 4iil_RBF_1_INTS_M
#    Modification time : Tue Mar 25 04:00:35 2014

@<TRIPOS>MOLECULE
4iil_RBF_1_INTS_M
   57     0     9     0     0
SMALL
NO_CHARGES


@<TRIPOS>ATOM
      1 O          23.9185   37.2845   14.5110 O.2       1 ALC1        0.0000 
      2 O          24.9230   37.8540   15.3620 O.2       7 ALL1        0.0000 
      3 O          22.9140   36.7150   13.6600 O.2       4 ALP1        0.0000 
      4 N          26.5285   41.4540   15.2030 N.am      2 SEC2        0.0000 
      5 N          27.5990   40.3000   15.3660 N.am      8 SEL2        0.0000 
      6 N          25.4580   42.6080   15.0400 N.am      5 SEP2        0.0000 
      7 CA         30.5895   44.3300   14.5115 C.3       3 GLC5        0.0000 
      8 CA         31.2260   43.4880   16.1940 C.3       9 GLL5        0.0000 
      9 CA         29.9530   45.1720   12.8290 C.3       6 GLP5        0.0000 
     10 CA         31.3110   45.3565   16.8275 C.3       3 GLC5        0.0000 
     11 CA         31.3960   47.2250   17.4610 C.3       6 GLP5        0.0000 
     12 CA         29.6690   44.3680   20.5475 C.3       3 GLC5        0.0000 
     13 CA         30.5190   43.4010   19.0640 C.3       9 GLL5        0.0000 
     14 CA         28.8190   45.3350   22.0310 C.3       6 GLP5        0.0000 
     15 CA         30.9575   45.3130   18.2625 C.3       3 GLC5        0.0000 
     16 CA         30.9220   42.8040   20.7020 C.3       3 GLC5        0.0000 
     17 CA         31.3250   42.2070   22.3400 C.3       6 GLP5        0.0000 
     18 CA         28.1770   43.5010   19.8200 C.3       3 GLC5        0.0000 
     19 CA         28.7310   41.7640   18.5110 C.3       9 GLL5        0.0000 
     20 CA         27.6230   45.2380   21.1290 C.3       6 GLP5        0.0000 
     21 CA         28.2855   40.0885   20.7720 C.3       3 GLC5        0.0000 
     22 CA         26.6050   39.9410   19.5000 C.3       9 GLL5        0.0000 
     23 CA         29.9660   40.2360   22.0440 C.3       6 GLP5        0.0000 
     24 CA         27.8185   38.7255   19.1885 C.3       3 GLC5        0.0000 
     25 CA         29.0320   37.5100   18.8770 C.3       6 GLP5        0.0000 
     26 CA         23.8530   40.6815   19.0145 C.3       3 GLC5        0.0000 
     27 CA         25.4800   40.7540   20.0590 C.3       9 GLL5        0.0000 
     28 CA         22.2260   40.6090   17.9700 C.3       6 GLP5        0.0000 
     29 O          25.0005   42.9775   20.7035 O.2       1 ALC1        0.0000 
     30 O          25.6840   42.0840   19.7250 O.2       7 ALL1        0.0000 
     31 O          24.3170   43.8710   21.6820 O.2       4 ALP1        0.0000 
     32 O          27.6990   40.2570   22.1935 O.2       1 ALC1        0.0000 
     33 O          26.5940   40.9980   22.1830 O.2       7 ALL1        0.0000 
     34 O          28.8040   39.5160   22.2040 O.2       4 ALP1        0.0000 
     35 O          23.1950   37.8360   21.9125 O.2       1 ALC1        0.0000 
     36 O          24.1520   38.5540   21.2340 O.2       7 ALL1        0.0000 
     37 O          22.2380   37.1180   22.5910 O.2       4 ALP1        0.0000 
     38 CA         26.3065   39.1110   24.9245 C.3       3 GLC5        0.0000 
     39 CA         24.9530   38.9000   23.4790 C.3       9 GLL5        0.0000 
     40 CA         27.6600   39.3220   26.3700 C.3       6 GLP5        0.0000 
     41 CA         24.4615   38.1095   25.1280 C.3       3 GLC5        0.0000 
     42 CA         23.9700   37.3190   26.7770 C.3       6 GLP5        0.0000 
     43 N          23.7735   40.4125   25.1365 N.am      2 SEC2        0.0000 
     44 N          23.8790   39.7090   23.9140 N.am      8 SEL2        0.0000 
     45 N          23.6680   41.1160   26.3590 N.am      5 SEP2        0.0000 
     46 O          22.6860   39.0705   24.0445 O.2       1 ALC1        0.0000 
     47 O          23.8790   39.7090   23.9140 O.2       7 ALL1        0.0000 
     48 O          21.4930   38.4320   24.1750 O.2       4 ALP1        0.0000 
     49 O          23.0585   38.4135   23.2525 O.2       1 ALC1        0.0000 
     50 CA         27.3975   43.2299   18.0240 C.3       3 GLC5        0.0000 
     51 CA         26.1870   44.9000   18.0850 C.3       6 GLP5        0.0000 
     52 CA         23.3842   40.2373   21.0838 C.3       3 GLC5        0.0000 
     53 CA         25.4150   40.5280   21.5820 C.3       9 GLL5        0.0000 
     54 CA         21.4590   40.6750   20.3930 C.3       6 GLP5        0.0000 
     55 CA         25.7822   37.3713   22.5720 C.3       3 GLC5        0.0000 
     56 CA         25.2040   39.0710   21.9670 C.3       9 GLL5        0.0000 
     57 CA         26.4860   35.7570   22.4210 C.3       6 GLP5        0.0000 
@<TRIPOS>BOND
@<TRIPOS>SUBSTRUCTURE
     1 ALC1        1 GROUP        1 X    ALC  0     ROOT ALC X 1
     2 SEC2        4 GROUP        1 X    SEC  0     **** SEC X 2
     3 GLC5        7 GROUP        1 X    GLC  0     **** GLC X 6
     4 ALP1        3 GROUP        1 Y    ALP  0     ROOT ALP Y 8
     5 SEP2        6 GROUP        1 Y    SEP  0     **** SEP Y 9
     6 GLP5        9 GROUP        1 Y    GLP  0     **** GLP Y 13
     7 ALL1        2 GROUP        1 Z    ALL  0     ROOT ALL Z 15
     8 SEL2        5 GROUP        1 Z    SEL  0     **** SEL Z 16
     9 GLL5        8 GROUP        1 Z    GLL  0     **** GLL Z 20
@<TRIPOS>SET

