#    Name: 4iil_RBF_1_ligand
#    Modification time : Tue Mar 25 04:00:35 2014

@<TRIPOS>MOLECULE
4iil_RBF_1_ligand
   47    49     1     0     0
SMALL
NO_CHARGES


@<TRIPOS>ATOM
      1 N1         25.2520   38.5700   17.5740 N.2       1 RBF401      0.0000 
      2 C2         24.5770   37.8050   16.6830 C.2       1 RBF401      0.0000 
      3 O2         23.6640   37.0510   17.0420 O.2       1 RBF401      0.0000 
      4 N3         24.9230   37.8540   15.3620 N.am      1 RBF401      0.0000 
      5 C4         25.8830   38.6780   14.8970 C.2       1 RBF401      0.0000 
      6 O4         26.1270   38.6910   13.6760 O.2       1 RBF401      0.0000 
      7 C4A        26.6020   39.4590   15.7780 C.2       1 RBF401      0.0000 
      8 N5         27.5990   40.3000   15.3660 N.2       1 RBF401      0.0000 
      9 C5A        28.2870   41.0110   16.2490 C.ar      1 RBF401      0.0000 
     10 C6         29.3670   41.8310   15.8240 C.ar      1 RBF401      0.0000 
     11 C7         30.1020   42.6100   16.6950 C.ar      1 RBF401      0.0000 
     12 C7M        31.2260   43.4880   16.1940 C.3       1 RBF401      0.0000 
     13 C8         29.7690   42.5750   18.0530 C.ar      1 RBF401      0.0000 
     14 C8M        30.5190   43.4010   19.0640 C.3       1 RBF401      0.0000 
     15 C9         28.7310   41.7640   18.5110 C.ar      1 RBF401      0.0000 
     16 C9A        27.9660   40.9500   17.6440 C.ar      1 RBF401      0.0000 
     17 N10        26.9250   40.1230   18.0680 N.pl3     1 RBF401      0.0000 
     18 C10        26.2590   39.3670   17.1450 C.2       1 RBF401      0.0000 
     19 C1'        26.6050   39.9410   19.5000 C.3       1 RBF401      0.0000 
     20 C2'        25.4800   40.7540   20.0590 C.3       1 RBF401      0.0000 
     21 O2'        25.6840   42.0840   19.7250 O.3       1 RBF401      0.0000 
     22 C3'        25.4150   40.5280   21.5820 C.3       1 RBF401      0.0000 
     23 O3'        26.5940   40.9980   22.1830 O.3       1 RBF401      0.0000 
     24 C4'        25.2040   39.0710   21.9670 C.3       1 RBF401      0.0000 
     25 O4'        24.1520   38.5540   21.2340 O.3       1 RBF401      0.0000 
     26 C5'        24.9530   38.9000   23.4790 C.3       1 RBF401      0.0000 
     27 O5'        23.8790   39.7090   23.9140 O.3       1 RBF401      0.0000 
     28 H          24.4152   37.2202   14.6872 H         1 RBF401      0.0000 
     29 H          29.6015   41.8327   14.8058 H         1 RBF401      0.0000 
     30 H          28.5047   41.7517   19.5270 H         1 RBF401      0.0000 
     31 H          27.5279   40.1435   20.1121 H         1 RBF401      0.0000 
     32 H          26.3876   38.8534   19.6933 H         1 RBF401      0.0000 
     33 H          24.5539   40.3636   19.6379 H         1 RBF401      0.0000 
     34 H          24.5500   41.0953   21.9542 H         1 RBF401      0.0000 
     35 H          26.1401   38.5397   21.7390 H         1 RBF401      0.0000 
     36 H          25.8965   39.1489   23.9930 H         1 RBF401      0.0000 
     37 H          24.7648   37.8278   23.6557 H         1 RBF401      0.0000 
     38 H          31.6618   43.9943   16.9382 H         1 RBF401      0.0000 
     39 H          31.9420   42.9542   15.7441 H         1 RBF401      0.0000 
     40 H          30.9027   44.1627   15.5305 H         1 RBF401      0.0000 
     41 H          31.4913   43.1682   19.0861 H         1 RBF401      0.0000 
     42 H          30.4563   44.3789   18.8647 H         1 RBF401      0.0000 
     43 H          30.1645   43.2672   19.9894 H         1 RBF401      0.0000 
     44 H          25.7103   42.5691   20.5990 H         1 RBF401      0.0000 
     45 H          27.2334   40.2307   22.1332 H         1 RBF401      0.0000 
     46 H          23.5717   38.0921   21.9047 H         1 RBF401      0.0000 
     47 H          23.1011   39.0856   23.9933 H         1 RBF401      0.0000 
@<TRIPOS>BOND
     1    2    1 1    
     2   18    1 2    
     3    3    2 2    
     4    4    2 am   
     5    5    4 am   
     6   28    4 1    
     7    6    5 2    
     8    7    5 1    
     9    8    7 2    
    10   18    7 1    
    11    9    8 1    
    12   10    9 ar   
    13   16    9 ar   
    14   11   10 ar   
    15   29   10 1    
    16   12   11 1    
    17   13   11 ar   
    18   38   12 1    
    19   39   12 1    
    20   40   12 1    
    21   14   13 1    
    22   15   13 ar   
    23   41   14 1    
    24   42   14 1    
    25   43   14 1    
    26   16   15 ar   
    27   30   15 1    
    28   17   16 1    
    29   18   17 1    
    30   19   17 1    
    31   20   19 1    
    32   31   19 1    
    33   32   19 1    
    34   21   20 1    
    35   22   20 1    
    36   33   20 1    
    37   44   21 1    
    38   23   22 1    
    39   24   22 1    
    40   34   22 1    
    41   45   23 1    
    42   25   24 1    
    43   26   24 1    
    44   35   24 1    
    45   46   25 1    
    46   27   26 1    
    47   36   26 1    
    48   37   26 1    
    49   47   27 1    
@<TRIPOS>SUBSTRUCTURE
     1 RBF401      1 GROUP   
@<TRIPOS>SET

