#    Name: 2vo6_M05_1_INTS_M
#    Modification time : Tue Mar 25 02:15:21 2014

@<TRIPOS>MOLECULE
2vo6_M05_1_INTS_M
   91     0    12     0     0
SMALL
NO_CHARGES


@<TRIPOS>ATOM
      1 CA          7.6210   11.3745    5.7770 C.3       4 GLC5        0.0000 
      2 CA          8.0460    9.6900    4.4010 C.3      12 GLL5        0.0000 
      3 CA          7.1960   13.0590    7.1530 C.3       8 GLP5        0.0000 
      4 CA          7.5420   11.5165    3.5740 C.3       4 GLC5        0.0000 
      5 CA          7.0380   13.3430    2.7470 C.3       8 GLP5        0.0000 
      6 CA          6.9925    8.2620    5.2430 C.3       4 GLC5        0.0000 
      7 CA          5.9390    6.8340    6.0850 C.3       8 GLP5        0.0000 
      8 CA          7.0465    9.6115    6.3690 C.3       4 GLC5        0.0000 
      9 CA          6.0470    9.5330    8.3370 C.3       8 GLP5        0.0000 
     10 OD1        10.4865    7.3690    5.2555 O.co2     3 ASC3        0.0000 
     11 OD1         9.9300    7.3980    3.9860 O.co2    11 ASL3        0.0000 
     12 OD1        11.0430    7.3400    6.5250 O.co2     7 ASP3        0.0000 
     13 O          10.4865    7.3690    5.2555 O.2       1 ALC1        0.0000 
     14 O           9.9300    7.3980    3.9860 O.2       9 ALL1        0.0000 
     15 O          11.0430    7.3400    6.5250 O.2       5 ALP1        0.0000 
     16 O          10.8060    6.6195    2.9165 O.2       1 ALC1        0.0000 
     17 O          11.6820    5.8410    1.8470 O.2       5 ALP1        0.0000 
     18 CA          7.3195    7.2880    3.4730 C.3       4 GLC5        0.0000 
     19 CA          7.8470    8.6670    2.1620 C.3      12 GLL5        0.0000 
     20 CA          6.7920    5.9090    4.7840 C.3       8 GLP5        0.0000 
     21 CA          7.1920    7.4390    0.7965 C.3       4 GLC5        0.0000 
     22 CA          6.5370    6.2110   -0.5690 C.3       8 GLP5        0.0000 
     23 CA         12.0680   11.9220    4.6190 C.3       4 GLC5        0.0000 
     24 CA         12.3860   11.2380    2.8080 C.3      12 GLL5        0.0000 
     25 CA         11.7500   12.6060    6.4300 C.3       8 GLP5        0.0000 
     26 CA         15.0975   13.1900    0.6005 C.3       4 GLC5        0.0000 
     27 CA         13.3150   13.4720   -0.3480 C.3      12 GLL5        0.0000 
     28 CA         16.8800   12.9080    1.5490 C.3       8 GLP5        0.0000 
     29 CA         14.1820   15.2725   -0.3720 C.3       4 GLC5        0.0000 
     30 CA         15.0490   17.0730   -0.3960 C.3       8 GLP5        0.0000 
     31 CA         12.8880   14.8990    0.9525 C.3       4 GLC5        0.0000 
     32 CA         12.4610   16.3260    2.2530 C.3       8 GLP5        0.0000 
     33 CA         13.1820   14.6170   -2.0320 C.3       4 GLC5        0.0000 
     34 CA         13.0490   15.7620   -3.7160 C.3       8 GLP5        0.0000 
     35 CA         11.5535    8.3495   -0.6465 C.3       4 GLC5        0.0000 
     36 CA         12.0960    9.8610    0.8600 C.3      12 GLL5        0.0000 
     37 CA         11.0110    6.8380   -2.1530 C.3       8 GLP5        0.0000 
     38 CA          4.4885   11.5840    5.4925 C.3       4 GLC5        0.0000 
     39 CA          4.1000    9.9300    4.6340 C.3      12 GLL5        0.0000 
     40 CA          4.8770   13.2380    6.3510 C.3       8 GLP5        0.0000 
     41 CA          3.6675   11.4955    3.3595 C.3       4 GLC5        0.0000 
     42 CA          3.2350   13.0610    2.0850 C.3       8 GLP5        0.0000 
     43 CA          2.6750    8.3545    4.6100 C.3       4 GLC5        0.0000 
     44 CA          1.2500    6.7790    4.5860 C.3       8 GLP5        0.0000 
     45 CA          5.0195    8.3820    5.3595 C.3       4 GLC5        0.0000 
     46 N           1.7620    9.4875    4.1445 N.am      2 SEC2        0.0000 
     47 N           3.1530    9.9190    3.6990 N.am     10 SEL2        0.0000 
     48 N           0.3710    9.0560    4.5900 N.am      6 SEP2        0.0000 
     49 CA          1.6270   10.4300    3.0045 C.3       4 GLC5        0.0000 
     50 CA          3.6560    9.7930    2.4730 C.3      12 GLL5        0.0000 
     51 CA         -0.4020   11.0670    3.5360 C.3       8 GLP5        0.0000 
     52 CA          2.4530    8.2860    3.5295 C.3       4 GLC5        0.0000 
     53 O           1.5795    9.9120    1.1300 O.2       1 ALC1        0.0000 
     54 O           2.9360    9.7380    1.3180 O.2       9 ALL1        0.0000 
     55 O           0.2230   10.0860    0.9420 O.2       5 ALP1        0.0000 
     56 CA          2.3195    8.7870   -1.0480 C.3       4 GLC5        0.0000 
     57 CA          3.7890    9.6400    0.2540 C.3      12 GLL5        0.0000 
     58 CA          0.8500    7.9340   -2.3500 C.3       8 GLP5        0.0000 
     59 CA          2.7965   10.7120   -1.0320 C.3       4 GLC5        0.0000 
     60 CA          1.8040   11.7840   -2.3180 C.3       8 GLP5        0.0000 
     61 CA          5.0995   10.9195   -0.8150 C.3       4 GLC5        0.0000 
     62 CA          5.0950    9.6150    0.7370 C.3      12 GLL5        0.0000 
     63 CA          5.1040   12.2240   -2.3670 C.3       8 GLP5        0.0000 
     64 CA         10.6480   11.2180    5.3175 C.3       4 GLC5        0.0000 
     65 CA          9.5460    9.8300    4.2050 C.3      12 GLL5        0.0000 
     66 CA          9.0655   11.6980    3.4210 C.3       4 GLC5        0.0000 
     67 CA          8.5850   13.5660    2.6370 C.3       8 GLP5        0.0000 
     68 CA          9.2535   10.8825    1.6505 C.3       4 GLC5        0.0000 
     69 CA          9.3570    8.7790    1.9980 C.3      12 GLL5        0.0000 
     70 CA          9.1500   12.9860    1.3030 C.3       8 GLP5        0.0000 
     71 CA         10.6848   11.8053    1.9143 C.3       4 GLC5        0.0000 
     72 CA         12.0530   10.0110    2.2430 C.3      12 GLL5        0.0000 
     73 CA         13.6955   12.8395    3.5042 C.3       4 GLC5        0.0000 
     74 CA         14.8100   13.9160    4.5970 C.3       8 GLP5        0.0000 
     75 CA         14.8380   12.5610    1.4387 C.3       4 GLC5        0.0000 
     76 CA         12.7760   12.2880    2.0150 C.3      12 GLL5        0.0000 
     77 CA         12.6285   14.2700    1.7908 C.3       4 GLC5        0.0000 
     78 CA         10.9730   12.6000    1.3157 C.3       4 GLC5        0.0000 
     79 CA         10.7190   11.6895    0.8817 C.3       4 GLC5        0.0000 
     80 CA         12.4800   10.9250    0.0610 C.3      12 GLL5        0.0000 
     81 CA         11.3024   12.4322   -1.1095 C.3       4 GLC5        0.0000 
     82 CA          9.8320   12.9990   -2.3230 C.3       8 GLP5        0.0000 
     83 CA          6.2515   11.5307    2.7203 C.3       4 GLC5        0.0000 
     84 CA          5.9140    9.7210    3.2330 C.3      12 GLL5        0.0000 
     85 CA          5.4705    7.7538    3.1377 C.3       4 GLC5        0.0000 
     86 CA          5.0160    9.7160    2.1540 C.3      12 GLL5        0.0000 
     87 CA          5.4760    5.7890    3.5820 C.3       8 GLP5        0.0000 
     88 CA          3.8977   11.4084    2.3341 C.3       4 GLC5        0.0000 
     89 CA          3.8385   11.3443    1.2902 C.3       4 GLC5        0.0000 
     90 CA          4.8975    7.8714    0.6184 C.3       4 GLC5        0.0000 
     91 CA          5.0660    6.0710   -0.0880 C.3       8 GLP5        0.0000 
@<TRIPOS>BOND
@<TRIPOS>SUBSTRUCTURE
     1 ALC1       13 GROUP        1 X    ALC  0     ROOT ALC X 1
     2 SEC2       46 GROUP        1 X    SEC  0     **** SEC X 2
     3 ASC3       10 GROUP        1 X    ASC  0     **** ASC X 3
     4 GLC5        1 GROUP        1 X    GLC  0     **** GLC X 6
     5 ALP1       15 GROUP        1 Y    ALP  0     ROOT ALP Y 8
     6 SEP2       48 GROUP        1 Y    SEP  0     **** SEP Y 9
     7 ASP3       12 GROUP        1 Y    ASP  0     **** ASP Y 10
     8 GLP5        3 GROUP        1 Y    GLP  0     **** GLP Y 13
     9 ALL1       14 GROUP        1 Z    ALL  0     ROOT ALL Z 15
    10 SEL2       47 GROUP        1 Z    SEL  0     **** SEL Z 16
    11 ASL3       11 GROUP        1 Z    ASL  0     **** ASL Z 17
    12 GLL5        2 GROUP        1 Z    GLL  0     **** GLL Z 20
@<TRIPOS>SET

