#    Name: 2vo6_M05_1_ligand
#    Modification time : Tue Mar 25 02:15:21 2014

@<TRIPOS>MOLECULE
2vo6_M05_1_ligand
   45    48     1     0     0
SMALL
NO_CHARGES


@<TRIPOS>ATOM
      1 N1          7.3220    9.6530    3.1190 N.3       1 M051352     0.0000 
      2 C8          8.0460    9.6900    4.4010 C.3       1 M051352     0.0000 
      3 C4         11.6270    8.8750    3.1240 C.3       1 M051352     0.0000 
      4 C5         10.1150    8.7130    3.3270 C.3       1 M051352     0.0000 
      5 N6          9.9300    7.3980    3.9860 N.4       1 M051352     0.0000 
      6 C2          7.8470    8.6670    2.1620 C.3       1 M051352     0.0000 
      7 C9         12.0530   10.0110    2.2430 C.ar      1 M051352     0.0000 
      8 C10        12.3860   11.2380    2.8080 C.ar      1 M051352     0.0000 
      9 C11        12.7760   12.2880    2.0150 C.ar      1 M051352     0.0000 
     10 C12        12.8160   12.1400    0.6420 C.ar      1 M051352     0.0000 
     11 CL1        13.3150   13.4720   -0.3480 Cl        1 M051352     0.0000 
     12 C14        12.4800   10.9250    0.0610 C.ar      1 M051352     0.0000 
     13 C15        12.0960    9.8610    0.8600 C.ar      1 M051352     0.0000 
     14 C16         5.9140    9.7210    3.2330 C.ar      1 M051352     0.0000 
     15 N17         5.4260    9.8920    4.4800 N.ar      1 M051352     0.0000 
     16 C18         4.1000    9.9300    4.6340 C.ar      1 M051352     0.0000 
     17 N19         3.1530    9.9190    3.6990 N.ar      1 M051352     0.0000 
     18 C20         3.6560    9.7930    2.4730 C.ar      1 M051352     0.0000 
     19 N21         2.9360    9.7380    1.3180 N.pl3     1 M051352     0.0000 
     20 C22         3.7890    9.6400    0.2540 C.2       1 M051352     0.0000 
     21 C23         5.0950    9.6150    0.7370 C.2       1 M051352     0.0000 
     22 C3          9.5460    9.8300    4.2050 C.3       1 M051352     0.0000 
     23 C17         9.3570    8.7790    1.9980 C.3       1 M051352     0.0000 
     24 C24         5.0160    9.7160    2.1540 C.ar      1 M051352     0.0000 
     25 H           7.8540    8.7701    4.9749 H         1 M051352     0.0000 
     26 H           7.6944   10.5344    5.0141 H         1 M051352     0.0000 
     27 H          12.0247    7.9190    2.7137 H         1 M051352     0.0000 
     28 H          12.1000    8.9862    4.1262 H         1 M051352     0.0000 
     29 H           7.3804    8.8043    1.1745 H         1 M051352     0.0000 
     30 H           7.6098    7.6449    2.4949 H         1 M051352     0.0000 
     31 H          12.3365   11.3515    3.8355 H         1 M051352     0.0000 
     32 H          13.0406   13.1912    2.4410 H         1 M051352     0.0000 
     33 H          12.5166   10.8165   -0.9614 H         1 M051352     0.0000 
     34 H          11.8422    8.9595    0.4347 H         1 M051352     0.0000 
     35 H           3.7421    9.9769    5.6806 H         1 M051352     0.0000 
     36 H           1.9719    9.7640    1.2570 H         1 M051352     0.0000 
     37 H           3.5457    9.5954   -0.6674 H         1 M051352     0.0000 
     38 H           5.8828    9.5458    0.2409 H         1 M051352     0.0000 
     39 H          10.0437    9.8045    5.1792 H         1 M051352     0.0000 
     40 H           9.7628   10.7950    3.7370 H         1 M051352     0.0000 
     41 H           9.7107    7.9671    1.3468 H         1 M051352     0.0000 
     42 H           9.5966    9.7289    1.4994 H         1 M051352     0.0000 
     43 H          10.2844    6.6489    3.4262 H         1 M051352     0.0000 
     44 H          10.4017    7.3543    4.8667 H         1 M051352     0.0000 
     45 H           8.9649    7.2025    4.1604 H         1 M051352     0.0000 
@<TRIPOS>BOND
     1    2    1 1    
     2    6    1 1    
     3   14    1 1    
     4   22    2 1    
     5   25    2 1    
     6   26    2 1    
     7    4    3 1    
     8    7    3 1    
     9   27    3 1    
    10   28    3 1    
    11    5    4 1    
    12   22    4 1    
    13   23    4 1    
    14   43    5 1    
    15   44    5 1    
    16   45    5 1    
    17   23    6 1    
    18   29    6 1    
    19   30    6 1    
    20    8    7 ar   
    21   13    7 ar   
    22    9    8 ar   
    23   31    8 1    
    24   10    9 ar   
    25   32    9 1    
    26   11   10 1    
    27   12   10 ar   
    28   13   12 ar   
    29   33   12 1    
    30   34   13 1    
    31   15   14 ar   
    32   24   14 ar   
    33   16   15 ar   
    34   17   16 ar   
    35   35   16 1    
    36   18   17 ar   
    37   19   18 1    
    38   24   18 ar   
    39   20   19 1    
    40   36   19 1    
    41   21   20 2    
    42   37   20 1    
    43   24   21 1    
    44   38   21 1    
    45   39   22 1    
    46   40   22 1    
    47   41   23 1    
    48   42   23 1    
@<TRIPOS>SUBSTRUCTURE
     1 M051352     1 GROUP   
@<TRIPOS>SET

