#    Name: 1buc_FAD_2_INTS_M
#    Modification time : Mon Mar 24 19:49:22 2014

@<TRIPOS>MOLECULE
1buc_FAD_2_INTS_M
   83     0     9     0     0
SMALL
NO_CHARGES


@<TRIPOS>ATOM
      1 N          73.6380    4.2565  101.4040 N.am      2 SEC2        0.0000 
      2 N          73.9570    3.3130  100.5100 N.am      8 SEL2        0.0000 
      3 N          73.3190    5.2000  102.2980 N.am      5 SEP2        0.0000 
      4 N          74.6230    4.7010  100.4465 N.am      2 SEC2        0.0000 
      5 N          75.2890    6.0890  100.3830 N.am      5 SEP2        0.0000 
      6 N          69.7525    4.4920  104.6020 N.am      2 SEC2        0.0000 
      7 N          69.9340    3.1460  104.7450 N.am      8 SEL2        0.0000 
      8 N          69.5710    5.8380  104.4590 N.am      5 SEP2        0.0000 
      9 O          68.6980    3.2155  105.3205 O.2       1 ALC1        0.0000 
     10 O          69.9340    3.1460  104.7450 O.2       7 ALL1        0.0000 
     11 O          67.4620    3.2850  105.8960 O.2       4 ALP1        0.0000 
     12 CA         74.5420    4.0675  105.3040 C.3       3 GLC5        0.0000 
     13 CA         74.4010    2.1660  106.4750 C.3       9 GLL5        0.0000 
     14 CA         74.6830    5.9690  104.1330 C.3       6 GLP5        0.0000 
     15 N          74.5145    1.9425  110.2460 N.am      2 SEC2        0.0000 
     16 N          74.2710    1.9100  108.7990 N.am      8 SEL2        0.0000 
     17 N          74.7580    1.9750  111.6930 N.am      5 SEP2        0.0000 
     18 CA         73.3025    3.4670  108.4470 C.3       3 GLC5        0.0000 
     19 CA         73.0400    1.4610  108.6170 C.3       9 GLL5        0.0000 
     20 CA         73.5650    5.4730  108.2770 C.3       6 GLP5        0.0000 
     21 N          72.7335   10.4730   94.5835 N.am      2 SEC2        0.0000 
     22 N          71.7090   11.1490   94.1130 N.am      8 SEL2        0.0000 
     23 N          73.7580    9.7970   95.0540 N.am      5 SEP2        0.0000 
     24 N          74.7270   13.1180   93.3480 N.am      2 SEC2        0.0000 
     25 N          73.4450   12.5920   93.9350 N.am      8 SEL2        0.0000 
     26 N          76.0090   13.6440   92.7610 N.am      5 SEP2        0.0000 
     27 N          74.6820   11.8080   93.8390 N.am      2 SEC2        0.0000 
     28 N          75.9190   11.0240   93.7430 N.am      5 SEP2        0.0000 
     29 O          72.0570   14.2190   92.2870 O.2       1 ALC1        0.0000 
     30 O          71.4410   13.1550   93.0080 O.2       7 ALL1        0.0000 
     31 O          72.6730   15.2830   91.5660 O.2       4 ALP1        0.0000 
     32 N          69.0255   13.2935   90.6495 N.am      2 SEC2        0.0000 
     33 N          69.6000   13.7730   91.8990 N.am      8 SEL2        0.0000 
     34 N          68.4510   12.8140   89.4000 N.am      5 SEP2        0.0000 
     35 N          67.2860   12.0665   91.9530 N.am      2 SEC2        0.0000 
     36 N          68.3240   11.4180   92.6220 N.am      8 SEL2        0.0000 
     37 N          66.2480   12.7150   91.2840 N.am      5 SEP2        0.0000 
     38 CA         63.6930    7.5275   90.6640 C.3       3 GLC5        0.0000 
     39 CA         64.7880    8.2280   92.0070 C.3       9 GLL5        0.0000 
     40 CA         62.5980    6.8270   89.3210 C.3       6 GLP5        0.0000 
     41 CA         64.6400    9.5485   93.6595 C.3       3 GLC5        0.0000 
     42 CA         64.4920   10.8690   95.3120 C.3       6 GLP5        0.0000 
     43 CA         72.5520    8.8615   94.4845 C.3       3 GLC5        0.0000 
     44 CA         70.6750    8.6460   94.9530 C.3       9 GLL5        0.0000 
     45 CA         74.4290    9.0770   94.0160 C.3       6 GLP5        0.0000 
     46 CA         70.5095    8.1415   93.1005 C.3       3 GLC5        0.0000 
     47 CA         70.3440    7.6370   91.2480 C.3       6 GLP5        0.0000 
     48 CA         68.3685    9.0000   97.3630 C.3       3 GLC5        0.0000 
     49 CA         70.1380    8.3700   96.3680 C.3       9 GLL5        0.0000 
     50 CA         66.5990    9.6300   98.3580 C.3       6 GLP5        0.0000 
     51 N          69.0800   10.5030   98.0805 N.am      2 SEC2        0.0000 
     52 N          70.1860    9.4670   97.2760 N.am      8 SEL2        0.0000 
     53 N          67.9740   11.5390   98.8850 N.am      5 SEP2        0.0000 
     54 CA         72.6220    7.3715   95.6555 C.3       3 GLC5        0.0000 
     55 CA         70.8620    7.1480   96.9550 C.3       9 GLL5        0.0000 
     56 CA         74.3820    7.5950   94.3560 C.3       6 GLP5        0.0000 
     57 CA         68.9305    5.3550   98.9565 C.3       3 GLC5        0.0000 
     58 CA         71.1240    5.6590   98.9880 C.3       9 GLL5        0.0000 
     59 CA         66.7370    5.0510   98.9250 C.3       6 GLP5        0.0000 
     60 CA         69.5753    3.6965  102.7985 C.3       3 GLC5        0.0000 
     61 CA         70.7000    2.3230  103.8570 C.3       9 GLL5        0.0000 
     62 CA         68.9340    5.4860  102.1630 C.3       6 GLP5        0.0000 
     63 CA         73.7384    3.7138  107.5249 C.3       3 GLC5        0.0000 
     64 CA         66.7473    9.9817   94.8268 C.3       3 GLC5        0.0000 
     65 CA         67.9030   10.1870   92.9940 C.3       9 GLL5        0.0000 
     66 CA         66.2120    9.9690   96.9140 C.3       6 GLP5        0.0000 
     67 CA         64.4810    7.6195   94.0427 C.3       3 GLC5        0.0000 
     68 CA         66.1200    8.5740   92.6540 C.3       9 GLL5        0.0000 
     69 CA         63.5080    6.8380   95.7550 C.3       6 GLP5        0.0000 
     70 CA         66.3450    9.0335   94.9698 C.3       3 GLC5        0.0000 
     71 CA         66.3867    8.7890   90.4751 C.3       3 GLC5        0.0000 
     72 CA         66.6620    9.8020   92.4850 C.3       9 GLL5        0.0000 
     73 CA         67.1840    8.8700   88.6620 C.3       6 GLP5        0.0000 
     74 CA         65.0360    6.8780   94.6192 C.3       3 GLC5        0.0000 
     75 CA         66.8360    7.6220   93.3970 C.3       9 GLL5        0.0000 
     76 CA         67.2650    9.2873   95.3682 C.3       3 GLC5        0.0000 
     77 CA         68.0370    7.9720   93.9160 C.3       9 GLL5        0.0000 
     78 CA         71.4952    9.8945   96.8192 C.3       3 GLC5        0.0000 
     79 CA         72.5840   11.2810   97.9780 C.3       6 GLP5        0.0000 
     80 CA         69.9565    5.9292  100.4535 C.3       3 GLC5        0.0000 
     81 CA         70.8340    7.0860   98.5000 C.3       9 GLL5        0.0000 
     82 CA         69.0163    8.1719   92.3467 C.3       3 GLC5        0.0000 
     83 CA         68.5990    9.2390   93.7290 C.3       9 GLL5        0.0000 
@<TRIPOS>BOND
@<TRIPOS>SUBSTRUCTURE
     1 ALC1        9 GROUP        1 X    ALC  0     ROOT ALC X 1
     2 SEC2        1 GROUP        1 X    SEC  0     **** SEC X 2
     3 GLC5       12 GROUP        1 X    GLC  0     **** GLC X 6
     4 ALP1       11 GROUP        1 Y    ALP  0     ROOT ALP Y 8
     5 SEP2        3 GROUP        1 Y    SEP  0     **** SEP Y 9
     6 GLP5       14 GROUP        1 Y    GLP  0     **** GLP Y 13
     7 ALL1       10 GROUP        1 Z    ALL  0     ROOT ALL Z 15
     8 SEL2        2 GROUP        1 Z    SEL  0     **** SEL Z 16
     9 GLL5       13 GROUP        1 Z    GLL  0     **** GLL Z 20
@<TRIPOS>SET

