#    Name: 1buc_FAD_2_ligand
#    Modification time : Mon Mar 24 19:49:22 2014

@<TRIPOS>MOLECULE
1buc_FAD_2_ligand
   84    89     1     0     0
SMALL
NO_CHARGES


@<TRIPOS>ATOM
      1 PA         73.0840    2.1920  100.1170 P.3       1 FAD385      0.0000 
      2 O1A        73.9570    3.3130  100.5100 O.co2     1 FAD385      0.0000 
      3 O2A        73.6660    0.8970   99.7460 O.co2     1 FAD385      0.0000 
      4 O5B        72.1040    1.8780  101.3270 O.3       1 FAD385      0.0000 
      5 C5B        71.3390    0.6760  101.2690 C.3       1 FAD385      0.0000 
      6 C4B        70.6460    0.3400  102.5890 C.3       1 FAD385      0.0000 
      7 O4B        71.5940    0.1570  103.6540 O.3       1 FAD385      0.0000 
      8 C3B        69.7330    1.4910  103.0110 C.3       1 FAD385      0.0000 
      9 O3B        68.6990    0.9410  103.8140 O.3       1 FAD385      0.0000 
     10 C2B        70.7000    2.3230  103.8570 C.3       1 FAD385      0.0000 
     11 O2B        69.9340    3.1460  104.7450 O.3       1 FAD385      0.0000 
     12 C1B        71.4260    1.2080  104.6110 C.3       1 FAD385      0.0000 
     13 N9A        72.7460    1.6660  105.1150 N.pl3     1 FAD385      0.0000 
     14 C8A        73.8340    2.1370  104.4310 C.2       1 FAD385      0.0000 
     15 N7A        74.8480    2.4500  105.1940 N.2       1 FAD385      0.0000 
     16 C5A        74.4010    2.1660  106.4750 C.ar      1 FAD385      0.0000 
     17 C6A        75.0020    2.2800  107.7420 C.ar      1 FAD385      0.0000 
     18 N6A        76.2430    2.7270  107.9370 N.pl3     1 FAD385      0.0000 
     19 N1A        74.2710    1.9100  108.7990 N.ar      1 FAD385      0.0000 
     20 C2A        73.0400    1.4610  108.6170 C.ar      1 FAD385      0.0000 
     21 N3A        72.3650    1.3050  107.4930 N.ar      1 FAD385      0.0000 
     22 C4A        73.1220    1.6860  106.4370 C.ar      1 FAD385      0.0000 
     23 N1         71.7090   11.1490   94.1130 N.2       1 FAD385      0.0000 
     24 C2         72.2580   12.3210   93.7370 C.2       1 FAD385      0.0000 
     25 O2         73.4450   12.5920   93.9350 O.2       1 FAD385      0.0000 
     26 N3         71.4410   13.1550   93.0080 N.am      1 FAD385      0.0000 
     27 C4         70.1380   12.9260   92.6160 C.2       1 FAD385      0.0000 
     28 O4         69.6000   13.7730   91.8990 O.2       1 FAD385      0.0000 
     29 C4X        69.5980   11.6700   93.0350 C.2       1 FAD385      0.0000 
     30 N5         68.3240   11.4180   92.6220 N.2       1 FAD385      0.0000 
     31 C5X        67.9030   10.1870   92.9940 C.ar      1 FAD385      0.0000 
     32 C6         66.6620    9.8020   92.4850 C.ar      1 FAD385      0.0000 
     33 C7         66.1200    8.5740   92.6540 C.ar      1 FAD385      0.0000 
     34 C7M        64.7880    8.2280   92.0070 C.3       1 FAD385      0.0000 
     35 C8         66.8360    7.6220   93.3970 C.ar      1 FAD385      0.0000 
     36 C8M        66.2920    6.2140   93.5700 C.3       1 FAD385      0.0000 
     37 C9         68.0370    7.9720   93.9160 C.ar      1 FAD385      0.0000 
     38 C9A        68.5990    9.2390   93.7290 C.ar      1 FAD385      0.0000 
     39 N10        69.8980    9.5760   94.1450 N.pl3     1 FAD385      0.0000 
     40 C10        70.4330   10.8420   93.7720 C.2       1 FAD385      0.0000 
     41 C1'        70.6750    8.6460   94.9530 C.3       1 FAD385      0.0000 
     42 C2'        70.1380    8.3700   96.3680 C.3       1 FAD385      0.0000 
     43 O2'        70.1860    9.4670   97.2760 O.3       1 FAD385      0.0000 
     44 C3'        70.8620    7.1480   96.9550 C.3       1 FAD385      0.0000 
     45 O3'        70.1480    6.0260   96.4490 O.3       1 FAD385      0.0000 
     46 C4'        70.8340    7.0860   98.5000 C.3       1 FAD385      0.0000 
     47 O4'        71.7970    7.9830   99.0670 O.3       1 FAD385      0.0000 
     48 C5'        71.1240    5.6590   98.9880 C.3       1 FAD385      0.0000 
     49 O5'        72.3730    5.1470   98.5070 O.3       1 FAD385      0.0000 
     50 P          72.4340    3.7150   97.7820 P.3       1 FAD385      0.0000 
     51 O1P        71.3080    3.6490   96.8240 O.co2     1 FAD385      0.0000 
     52 O2P        73.8210    3.4830   97.3220 O.co2     1 FAD385      0.0000 
     53 O3P        72.0850    2.6640   98.9560 O.3       1 FAD385      0.0000 
     54 H          71.9725   -0.1949  100.9967 H         1 FAD385      0.0000 
     55 H          70.5519    0.7338  100.4873 H         1 FAD385      0.0000 
     56 H          70.0370   -0.5323  102.4567 H         1 FAD385      0.0000 
     57 H          69.4420    2.0165  102.1829 H         1 FAD385      0.0000 
     58 H          71.3564    2.8126  103.2353 H         1 FAD385      0.0000 
     59 H          70.7999    0.8927  105.4167 H         1 FAD385      0.0000 
     60 H          73.8224    2.2229  103.4280 H         1 FAD385      0.0000 
     61 H          76.5608    2.7438  108.8850 H         1 FAD385      0.0000 
     62 H          76.7443    3.0052  107.1177 H         1 FAD385      0.0000 
     63 H          72.4956    1.1735  109.5458 H         1 FAD385      0.0000 
     64 H          71.8713   14.1053   92.7051 H         1 FAD385      0.0000 
     65 H          66.1220   10.5317   91.9323 H         1 FAD385      0.0000 
     66 H          68.5832    7.2767   94.4850 H         1 FAD385      0.0000 
     67 H          71.7276    9.0083   95.0625 H         1 FAD385      0.0000 
     68 H          70.7659    7.6591   94.4344 H         1 FAD385      0.0000 
     69 H          69.0761    8.0354   96.2344 H         1 FAD385      0.0000 
     70 H          71.8691    7.1463   96.6152 H         1 FAD385      0.0000 
     71 H          69.8296    7.3434   98.8215 H         1 FAD385      0.0000 
     72 H          70.2757    5.0221   98.6671 H         1 FAD385      0.0000 
     73 H          71.0943    5.6770  100.0957 H         1 FAD385      0.0000 
     74 H          64.8271    8.3078   91.0110 H         1 FAD385      0.0000 
     75 H          64.5062    7.2914   92.2152 H         1 FAD385      0.0000 
     76 H          64.0548    8.8313   92.3208 H         1 FAD385      0.0000 
     77 H          66.1764    5.7500   92.6917 H         1 FAD385      0.0000 
     78 H          66.9010    5.6460   94.1236 H         1 FAD385      0.0000 
     79 H          65.3997    6.2135   94.0215 H         1 FAD385      0.0000 
     80 H          67.8568    1.1076  103.3011 H         1 FAD385      0.0000 
     81 H          69.0116    2.7602  104.7242 H         1 FAD385      0.0000 
     82 H          70.5333    9.0806   98.1304 H         1 FAD385      0.0000 
     83 H          70.6937    5.2311   96.7141 H         1 FAD385      0.0000 
     84 H          72.6141    7.8773   98.5002 H         1 FAD385      0.0000 
@<TRIPOS>BOND
     1    2    1 ar   
     2    3    1 ar   
     3    4    1 1    
     4   53    1 1    
     5    5    4 1    
     6    6    5 1    
     7   54    5 1    
     8   55    5 1    
     9    7    6 1    
    10    8    6 1    
    11   56    6 1    
    12   12    7 1    
    13    9    8 1    
    14   10    8 1    
    15   57    8 1    
    16   80    9 1    
    17   11   10 1    
    18   12   10 1    
    19   58   10 1    
    20   81   11 1    
    21   13   12 1    
    22   59   12 1    
    23   14   13 1    
    24   22   13 1    
    25   15   14 2    
    26   60   14 1    
    27   16   15 1    
    28   17   16 ar   
    29   22   16 ar   
    30   18   17 1    
    31   19   17 ar   
    32   61   18 1    
    33   62   18 1    
    34   20   19 ar   
    35   21   20 ar   
    36   63   20 1    
    37   22   21 ar   
    38   24   23 1    
    39   40   23 2    
    40   25   24 2    
    41   26   24 am   
    42   27   26 am   
    43   64   26 1    
    44   28   27 2    
    45   29   27 1    
    46   30   29 2    
    47   40   29 1    
    48   31   30 1    
    49   32   31 ar   
    50   38   31 ar   
    51   33   32 ar   
    52   65   32 1    
    53   34   33 1    
    54   35   33 ar   
    55   74   34 1    
    56   75   34 1    
    57   76   34 1    
    58   36   35 1    
    59   37   35 ar   
    60   77   36 1    
    61   78   36 1    
    62   79   36 1    
    63   38   37 ar   
    64   66   37 1    
    65   39   38 1    
    66   40   39 1    
    67   41   39 1    
    68   42   41 1    
    69   67   41 1    
    70   68   41 1    
    71   43   42 1    
    72   44   42 1    
    73   69   42 1    
    74   82   43 1    
    75   45   44 1    
    76   46   44 1    
    77   70   44 1    
    78   83   45 1    
    79   47   46 1    
    80   48   46 1    
    81   71   46 1    
    82   84   47 1    
    83   49   48 1    
    84   72   48 1    
    85   73   48 1    
    86   50   49 1    
    87   51   50 ar   
    88   52   50 ar   
    89   53   50 1    
@<TRIPOS>SUBSTRUCTURE
     1 FAD385      1 GROUP   
@<TRIPOS>SET

