#    Name: 4e1d_ADP_1_INTS_M
#    Modification time : Tue Mar 25 10:30:26 2014

@<TRIPOS>MOLECULE
4e1d_ADP_1_INTS_M
   56     0    15     0     0
SMALL
NO_CHARGES


@<TRIPOS>ATOM
      1 NZ         31.0570   86.5975    4.8350 N.4       3 LYC4        0.0000 
      2 NZ         32.5980   87.0270    3.9500 N.4      13 LYL4        0.0000 
      3 NZ         29.5160   86.1680    5.7200 N.4       8 LYP4        0.0000 
      4 Zn         35.2135   89.5600    3.6280 Zn        4 ZIC7        0.0000 
      5 Zn         34.0730   89.0170    3.6210 Zn       14 ZIL7        0.0000 
      6 Zn         36.3540   90.1030    3.6350 Zn        9 ZIP7        0.0000 
      7 Zn         36.6010   89.2250    4.6370 Zn        4 ZIC7        0.0000 
      8 Zn         36.8480   88.3470    5.6390 Zn       14 ZIL7        0.0000 
      9 CA         35.2515   87.4345    9.7400 C.3       5 GLC5        0.0000 
     10 CA         34.1960   88.5220    8.4700 C.3      15 GLL5        0.0000 
     11 CA         36.3070   86.3470   11.0100 C.3      10 GLP5        0.0000 
     12 CA         32.5495   87.4295    9.1075 C.3       5 GLC5        0.0000 
     13 CA         30.9030   86.3370    9.7450 C.3      10 GLP5        0.0000 
     14 CA         31.9605   90.8920    9.6270 C.3       5 GLC5        0.0000 
     15 CA         33.8220   89.7630    9.2370 C.3      15 GLL5        0.0000 
     16 CA         30.0990   92.0210   10.0170 C.3      10 GLP5        0.0000 
     17 CA         35.2485   91.7085    8.1740 C.3       5 GLC5        0.0000 
     18 CA         34.9660   90.5170    9.9130 C.3      15 GLL5        0.0000 
     19 CA         35.5310   92.9000    6.4350 C.3      10 GLP5        0.0000 
     20 CA         35.3385   89.6410   13.4770 C.3       5 GLC5        0.0000 
     21 CA         34.8670   90.0550   11.3690 C.3      15 GLL5        0.0000 
     22 CA         35.8100   89.2270   15.5850 C.3      10 GLP5        0.0000 
     23 O          36.5925   91.0820   12.5055 O.2       1 ALC1        0.0000 
     24 O          35.3560   90.9960   12.3140 O.2      11 ALL1        0.0000 
     25 O          37.8290   91.1680   12.6970 O.2       6 ALP1        0.0000 
     26 CA         31.7315   90.9665   10.7690 C.3       5 GLC5        0.0000 
     27 CA         33.3640   89.9120   11.5210 C.3      15 GLL5        0.0000 
     28 CA         33.2855   88.5210   15.3740 C.3       5 GLC5        0.0000 
     29 CA         31.9710   88.1390   14.3630 C.3      15 GLL5        0.0000 
     30 CA         34.6000   88.9030   16.3850 C.3      10 GLP5        0.0000 
     31 CA         32.5110   89.1965   15.9895 C.3       5 GLC5        0.0000 
     32 CA         31.1440   88.1920   15.5010 C.3      15 GLL5        0.0000 
     33 CA         33.8780   90.2010   16.4780 C.3      10 GLP5        0.0000 
     34 N          29.6595   89.8370   16.7475 N.am      2 SEC2        0.0000 
     35 N          30.4680   89.3440   15.7340 N.am     12 SEL2        0.0000 
     36 N          28.8510   90.3300   17.7610 N.am      7 SEP2        0.0000 
     37 CA         30.1325   90.8020   16.6990 C.3       5 GLC5        0.0000 
     38 CA         30.6280   90.3690   14.8830 C.3      15 GLL5        0.0000 
     39 CA         29.6370   91.2350   18.5150 C.3      10 GLP5        0.0000 
     40 CA         30.7330   92.4225   15.2940 C.3       5 GLC5        0.0000 
     41 CA         30.8380   94.4760   15.7050 C.3      10 GLP5        0.0000 
     42 CA         32.2530   90.2850   15.6805 C.3       5 GLC5        0.0000 
     43 CA         29.7710   89.0575   13.7345 C.3       5 GLC5        0.0000 
     44 CA         28.9140   87.7460   12.5860 C.3      10 GLP5        0.0000 
     45 CA         32.9610   89.7445   15.0275 C.3       5 GLC5        0.0000 
     46 CA         32.0440   89.2880   13.5770 C.3      15 GLL5        0.0000 
     47 CA         30.6625   90.0345   11.9695 C.3       5 GLC5        0.0000 
     48 CA         29.2810   90.7810   10.3620 C.3      10 GLP5        0.0000 
     49 CA         36.0685   89.7248    8.8272 C.3       5 GLC5        0.0000 
     50 CA         38.1280   90.3070    8.8010 C.3      10 GLP5        0.0000 
     51 CA         36.5222   90.2965    9.7210 C.3       5 GLC5        0.0000 
     52 CA         35.9168   88.7447   10.7185 C.3       5 GLC5        0.0000 
     53 CA         37.2030   87.3920   10.9650 C.3      10 GLP5        0.0000 
     54 CA         33.8178   91.7537   12.2990 C.3       5 GLC5        0.0000 
     55 CA         33.5200   93.5240   13.1530 C.3      10 GLP5        0.0000 
     56 CA         30.3574   88.2364   13.4202 C.3       5 GLC5        0.0000 
@<TRIPOS>BOND
@<TRIPOS>SUBSTRUCTURE
     1 ALC1       23 GROUP        1 X    ALC  0     ROOT ALC X 1
     2 SEC2       34 GROUP        1 X    SEC  0     **** SEC X 2
     3 LYC4        1 GROUP        1 X    LYC  0     **** LYC X 4
     4 ZIC7        4 GROUP        1 X    ZIC  0     **** ZIC X 5
     5 GLC5        9 GROUP        1 X    GLC  0     **** GLC X 6
     6 ALP1       25 GROUP        1 Y    ALP  0     ROOT ALP Y 8
     7 SEP2       36 GROUP        1 Y    SEP  0     **** SEP Y 9
     8 LYP4        3 GROUP        1 Y    LYP  0     **** LYP Y 11
     9 ZIP7        6 GROUP        1 Y    ZIP  0     **** ZIP Y 12
    10 GLP5       11 GROUP        1 Y    GLP  0     **** GLP Y 13
    11 ALL1       24 GROUP        1 Z    ALL  0     ROOT ALL Z 15
    12 SEL2       35 GROUP        1 Z    SEL  0     **** SEL Z 16
    13 LYL4        2 GROUP        1 Z    LYL  0     **** LYL Z 18
    14 ZIL7        5 GROUP        1 Z    ZIL  0     **** ZIL Z 19
    15 GLL5       10 GROUP        1 Z    GLL  0     **** GLL Z 20
@<TRIPOS>SET

