#    Name: 4e1d_ADP_1_ligand
#    Modification time : Tue Mar 25 10:30:26 2014

@<TRIPOS>MOLECULE
4e1d_ADP_1_ligand
   39    41     1     0     0
SMALL
NO_CHARGES


@<TRIPOS>ATOM
      1 PB         34.0170   87.5770    4.1120 P.3       1 ADP401      0.0000 
      2 O1B        34.9630   86.7440    3.3600 O.co2     1 ADP401      0.0000 
      3 O2B        32.5980   87.0270    3.9500 O.co2     1 ADP401      0.0000 
      4 O3B        34.0730   89.0170    3.6210 O.co2     1 ADP401      0.0000 
      5 PA         35.7310   87.7420    6.5340 P.3       1 ADP401      0.0000 
      6 O1A        36.2080   86.4630    7.1150 O.co2     1 ADP401      0.0000 
      7 O2A        36.8480   88.3470    5.6390 O.co2     1 ADP401      0.0000 
      8 O3A        34.4040   87.5100    5.6650 O.3       1 ADP401      0.0000 
      9 O5'        35.3830   88.7680    7.7020 O.3       1 ADP401      0.0000 
     10 C5'        34.1960   88.5220    8.4700 C.3       1 ADP401      0.0000 
     11 C4'        33.8220   89.7630    9.2370 C.3       1 ADP401      0.0000 
     12 O4'        32.8840   89.4290   10.2830 O.3       1 ADP401      0.0000 
     13 C3'        34.9660   90.5170    9.9130 C.3       1 ADP401      0.0000 
     14 O3'        34.8590   91.9250    9.7290 O.3       1 ADP401      0.0000 
     15 C2'        34.8670   90.0550   11.3690 C.3       1 ADP401      0.0000 
     16 O2'        35.3560   90.9960   12.3140 O.3       1 ADP401      0.0000 
     17 C1'        33.3640   89.9120   11.5210 C.3       1 ADP401      0.0000 
     18 N9         32.9310   89.0000   12.5830 N.pl3     1 ADP401      0.0000 
     19 C8         33.3420   87.7130   12.7910 C.2       1 ADP401      0.0000 
     20 N7         32.8000   87.1490   13.8480 N.2       1 ADP401      0.0000 
     21 C5         31.9710   88.1390   14.3630 C.ar      1 ADP401      0.0000 
     22 C6         31.1440   88.1920   15.5010 C.ar      1 ADP401      0.0000 
     23 N6         31.0500   87.2080   16.3850 N.pl3     1 ADP401      0.0000 
     24 N1         30.4680   89.3440   15.7340 N.ar      1 ADP401      0.0000 
     25 C2         30.6280   90.3690   14.8830 C.ar      1 ADP401      0.0000 
     26 N3         31.3910   90.4420   13.7870 N.ar      1 ADP401      0.0000 
     27 C4         32.0440   89.2880   13.5770 C.ar      1 ADP401      0.0000 
     28 H          34.3475   87.7048    9.1861 H         1 ADP401      0.0000 
     29 H          33.3533   88.2474    7.8233 H         1 ADP401      0.0000 
     30 H          33.3280   90.4684    8.5514 H         1 ADP401      0.0000 
     31 H          35.8843   90.1041    9.5118 H         1 ADP401      0.0000 
     32 H          35.2898   89.0889   11.4418 H         1 ADP401      0.0000 
     33 H          32.9552   90.9086   11.6989 H         1 ADP401      0.0000 
     34 H          33.9977   87.2643   12.1782 H         1 ADP401      0.0000 
     35 H          31.6294   86.4101   16.2185 H         1 ADP401      0.0000 
     36 H          30.4082   87.3529   17.1381 H         1 ADP401      0.0000 
     37 H          30.0468   91.2806   15.1229 H         1 ADP401      0.0000 
     38 H          34.8504   92.3068   10.6532 H         1 ADP401      0.0000 
     39 H          36.1964   90.5897   12.6726 H         1 ADP401      0.0000 
@<TRIPOS>BOND
     1    2    1 ar   
     2    3    1 ar   
     3    4    1 ar   
     4    8    1 1    
     5    6    5 ar   
     6    7    5 ar   
     7    8    5 1    
     8    9    5 1    
     9   10    9 1    
    10   11   10 1    
    11   28   10 1    
    12   29   10 1    
    13   12   11 1    
    14   13   11 1    
    15   30   11 1    
    16   17   12 1    
    17   14   13 1    
    18   15   13 1    
    19   31   13 1    
    20   38   14 1    
    21   16   15 1    
    22   17   15 1    
    23   32   15 1    
    24   39   16 1    
    25   18   17 1    
    26   33   17 1    
    27   19   18 1    
    28   27   18 1    
    29   20   19 2    
    30   34   19 1    
    31   21   20 1    
    32   22   21 ar   
    33   27   21 ar   
    34   23   22 1    
    35   24   22 ar   
    36   35   23 1    
    37   36   23 1    
    38   25   24 ar   
    39   26   25 ar   
    40   37   25 1    
    41   27   26 ar   
@<TRIPOS>SUBSTRUCTURE
     1 ADP401      1 GROUP   
@<TRIPOS>SET

