#    Name: 3a4p_DFQ_1_INTS_M
#    Modification time : Mon Apr  7 18:55:48 2014

@<TRIPOS>MOLECULE
3a4p_DFQ_1_INTS_M
   88     0     9     0     0
SMALL
NO_CHARGES


@<TRIPOS>ATOM
      1 CA        -27.5020  -21.0220   -1.0890 C.3       3 GLC5        0.0000 
      2 CA        -26.4880  -19.7530   -2.5780 C.3       9 GLL5        0.0000 
      3 CA        -28.5160  -22.2910    0.4000 C.3       6 GLP5        0.0000 
      4 O         -26.0820  -21.6940   -1.6110 O.2       1 ALC1        0.0000 
      5 O         -25.5060  -20.3830   -1.6950 O.2       7 ALL1        0.0000 
      6 O         -26.6580  -23.0050   -1.5270 O.2       4 ALP1        0.0000 
      7 CA        -22.7175  -22.3645   -1.2685 C.3       3 GLC5        0.0000 
      8 CA        -23.5800  -20.5570   -0.4260 C.3       9 GLL5        0.0000 
      9 CA        -21.8550  -24.1720   -2.1110 C.3       6 GLP5        0.0000 
     10 CA        -21.5140  -22.0385   -0.6555 C.3       3 GLC5        0.0000 
     11 CA        -22.3230  -20.1790    0.0650 C.3       9 GLL5        0.0000 
     12 CA        -20.7050  -23.8980   -1.3760 C.3       6 GLP5        0.0000 
     13 CA        -23.0005  -23.7450    2.0310 C.3       3 GLC5        0.0000 
     14 CA        -21.9490  -22.2980    1.3090 C.3       9 GLL5        0.0000 
     15 CA        -24.0520  -25.1920    2.7530 C.3       6 GLP5        0.0000 
     16 N         -22.0490  -24.2325    2.3820 N.am      2 SEC2        0.0000 
     17 N         -21.4330  -22.9740    2.3300 N.am      8 SEL2        0.0000 
     18 N         -22.6650  -25.4910    2.4340 N.am      5 SEP2        0.0000 
     19 CA        -22.3780  -23.3055    3.5880 C.3       3 GLC5        0.0000 
     20 CA        -20.6780  -22.3830    3.2490 C.3       9 GLL5        0.0000 
     21 CA        -24.0780  -24.2280    3.9270 C.3       6 GLP5        0.0000 
     22 CA        -20.4020  -24.9695    3.1570 C.3       3 GLC5        0.0000 
     23 CA        -20.1370  -23.1410    4.2900 C.3       9 GLL5        0.0000 
     24 CA        -20.6670  -26.7980    2.0240 C.3       6 GLP5        0.0000 
     25 CA        -21.8620  -23.9805    4.7695 C.3       3 GLC5        0.0000 
     26 CA        -23.5870  -24.8200    5.2490 C.3       6 GLP5        0.0000 
     27 CA        -19.9550  -23.0850    7.1220 C.3       3 GLC5        0.0000 
     28 CA        -19.3700  -22.5020    5.2560 C.3       9 GLL5        0.0000 
     29 CA        -20.5400  -23.6680    8.9880 C.3       6 GLP5        0.0000 
     30 CA        -16.5265  -19.4380    4.6020 C.3       3 GLC5        0.0000 
     31 CA        -17.8120  -19.1660    6.1240 C.3       9 GLL5        0.0000 
     32 CA        -15.2410  -19.7100    3.0800 C.3       6 GLP5        0.0000 
     33 CA        -15.6710  -18.2450    5.4135 C.3       3 GLC5        0.0000 
     34 CA        -16.4480  -19.0800    6.8660 C.3       9 GLL5        0.0000 
     35 CA        -14.8940  -17.4100    3.9610 C.3       6 GLP5        0.0000 
     36 CA        -19.9455  -21.8785    8.9100 C.3       3 GLC5        0.0000 
     37 CA        -19.3510  -20.0890    8.8320 C.3       9 GLL5        0.0000 
     38 CA        -17.7950  -21.4835    8.1520 C.3       3 GLC5        0.0000 
     39 CA        -16.2390  -22.8780    7.4720 C.3       6 GLP5        0.0000 
     40 CA        -20.7695  -20.5250    9.8890 C.3       3 GLC5        0.0000 
     41 CA        -22.1880  -20.9610   10.9460 C.3       6 GLP5        0.0000 
     42 CA        -19.4155  -19.2400   10.8660 C.3       3 GLC5        0.0000 
     43 CA        -19.4800  -18.3910   12.9000 C.3       6 GLP5        0.0000 
     44 CA        -17.5930  -20.4650    9.9730 C.3       3 GLC5        0.0000 
     45 CA        -15.8350  -20.8410   11.1140 C.3       6 GLP5        0.0000 
     46 CA        -22.8425  -17.2115   10.1490 C.3       3 GLC5        0.0000 
     47 CA        -21.4380  -18.1690    9.4760 C.3       9 GLL5        0.0000 
     48 CA        -24.2470  -16.2540   10.8220 C.3       6 GLP5        0.0000 
     49 CA        -22.6585  -16.4695    9.2570 C.3       3 GLC5        0.0000 
     50 CA        -21.0700  -16.6850    7.6920 C.3       9 GLL5        0.0000 
     51 CA        -19.6275  -14.4470    6.7630 C.3       3 GLC5        0.0000 
     52 CA        -20.3740  -16.3540    6.5420 C.3       9 GLL5        0.0000 
     53 CA        -18.8810  -12.5400    6.9840 C.3       6 GLP5        0.0000 
     54 CA        -18.5915  -17.4590    2.6740 C.3       3 GLC5        0.0000 
     55 CA        -18.5320  -16.6870    4.6710 C.3       9 GLL5        0.0000 
     56 CA        -18.6510  -18.2310    0.6770 C.3       6 GLP5        0.0000 
     57 CA        -17.7335  -15.5415    3.0415 C.3       3 GLC5        0.0000 
     58 CA        -16.9350  -14.3960    1.4120 C.3       6 GLP5        0.0000 
     59 CA        -16.7130  -17.0485    4.3160 C.3       3 GLC5        0.0000 
     60 CA        -17.6575  -15.3210    5.6550 C.3       3 GLC5        0.0000 
     61 CA        -16.7830  -13.9550    6.6390 C.3       6 GLP5        0.0000 
     62 CA        -24.3693  -20.2820    0.9318 C.3       3 GLC5        0.0000 
     63 CA        -25.7870  -20.1960    2.0440 C.3       6 GLP5        0.0000 
     64 CA        -20.3395  -19.3945    0.6313 C.3       3 GLC5        0.0000 
     65 CA        -23.8140  -20.9068    1.6258 C.3       3 GLC5        0.0000 
     66 CA        -21.7330  -20.9370    1.1060 C.3       9 GLL5        0.0000 
     67 CA        -18.5228  -22.0472    3.0270 C.3       3 GLC5        0.0000 
     68 CA        -20.4290  -21.0120    3.1350 C.3       9 GLL5        0.0000 
     69 CA        -17.0130  -23.4000    2.4450 C.3       6 GLP5        0.0000 
     70 CA        -21.5292  -20.7967    4.1880 C.3       3 GLC5        0.0000 
     71 CA        -23.0260  -20.8990    4.7670 C.3       6 GLP5        0.0000 
     72 CA        -19.4097  -19.3729    2.0125 C.3       3 GLC5        0.0000 
     73 CA        -19.6360  -20.3770    4.0830 C.3       9 GLL5        0.0000 
     74 CA        -22.3385  -21.1777    3.1104 C.3       3 GLC5        0.0000 
     75 CA        -18.7103  -23.0810    3.1072 C.3       3 GLC5        0.0000 
     76 CA        -21.7167  -21.8305    4.2683 C.3       3 GLC5        0.0000 
     77 CA        -18.1243  -22.6105    3.8253 C.3       3 GLC5        0.0000 
     78 CA        -17.7373  -22.3495    6.3388 C.3       3 GLC5        0.0000 
     79 CA        -21.1307  -21.3600    4.9863 C.3       3 GLC5        0.0000 
     80 CA        -16.6845  -21.0005    6.9835 C.3       3 GLC5        0.0000 
     81 CA        -16.6365  -17.3880    7.3540 C.3       3 GLC5        0.0000 
     82 CA        -16.1430  -15.6530    8.2130 C.3       6 GLP5        0.0000 
     83 CA        -21.6373  -19.4855    9.9335 C.3       3 GLC5        0.0000 
     84 CA        -20.7350  -17.8510    8.3660 C.3       9 GLL5        0.0000 
     85 CA        -20.7032  -17.5535   10.8240 C.3       3 GLC5        0.0000 
     86 CA        -20.3200  -17.0970   12.7270 C.3       6 GLP5        0.0000 
     87 CA        -22.2586  -18.7304    7.2127 C.3       3 GLC5        0.0000 
     88 CA        -23.5690  -20.0100    6.1780 C.3       6 GLP5        0.0000 
@<TRIPOS>BOND
@<TRIPOS>SUBSTRUCTURE
     1 ALC1        4 GROUP        1 X    ALC  0     ROOT ALC X 1
     2 SEC2       16 GROUP        1 X    SEC  0     **** SEC X 2
     3 GLC5        1 GROUP        1 X    GLC  0     **** GLC X 6
     4 ALP1        6 GROUP        1 Y    ALP  0     ROOT ALP Y 8
     5 SEP2       18 GROUP        1 Y    SEP  0     **** SEP Y 9
     6 GLP5        3 GROUP        1 Y    GLP  0     **** GLP Y 13
     7 ALL1        5 GROUP        1 Z    ALL  0     ROOT ALL Z 15
     8 SEL2       17 GROUP        1 Z    SEL  0     **** SEL Z 16
     9 GLL5        2 GROUP        1 Z    GLL  0     **** GLL Z 20
@<TRIPOS>SET

