#    Name: 3a4p_DFQ_1_ligand
#    Modification time : Mon Apr  7 18:55:48 2014

@<TRIPOS>MOLECULE
3a4p_DFQ_1_ligand
   45    47     1     0     0
SMALL
NO_CHARGES


@<TRIPOS>ATOM
      1 C1        -26.4880  -19.7530   -2.5780 C.3       1 DFQ1362     0.0000 
      2 N2        -25.5060  -20.3830   -1.6950 N.am      1 DFQ1362     0.0000 
      3 C4        -24.3700  -19.7870   -1.2970 C.2       1 DFQ1362     0.0000 
      4 O5        -23.9990  -18.6600   -1.6490 O.2       1 DFQ1362     0.0000 
      5 C6        -23.5800  -20.5570   -0.4260 C.2       1 DFQ1362     0.0000 
      6 C7        -22.3230  -20.1790    0.0650 C.2       1 DFQ1362     0.0000 
      7 C8        -21.7330  -20.9370    1.1060 C.ar      1 DFQ1362     0.0000 
      8 C9        -20.9730  -20.2930    2.0910 C.ar      1 DFQ1362     0.0000 
      9 C10       -20.4290  -21.0120    3.1350 C.ar      1 DFQ1362     0.0000 
     10 C11       -19.6360  -20.3770    4.0830 C.ar      1 DFQ1362     0.0000 
     11 C12       -21.9490  -22.2980    1.3090 C.ar      1 DFQ1362     0.0000 
     12 N13       -21.4330  -22.9740    2.3300 N.ar      1 DFQ1362     0.0000 
     13 C14       -20.6780  -22.3830    3.2490 C.ar      1 DFQ1362     0.0000 
     14 C15       -20.1370  -23.1410    4.2900 C.ar      1 DFQ1362     0.0000 
     15 C16       -19.3700  -22.5020    5.2560 C.ar      1 DFQ1362     0.0000 
     16 C17       -19.1010  -21.1400    5.1550 C.ar      1 DFQ1362     0.0000 
     17 O18       -18.3020  -20.5960    6.1210 O.3       1 DFQ1362     0.0000 
     18 C19       -17.8120  -19.1660    6.1240 C.3       1 DFQ1362     0.0000 
     19 C20       -16.4480  -19.0800    6.8660 C.3       1 DFQ1362     0.0000 
     20 C21       -18.9650  -18.3240    6.7330 C.ar      1 DFQ1362     0.0000 
     21 C22       -19.6940  -18.6780    7.8930 C.ar      1 DFQ1362     0.0000 
     22 CL23      -19.3510  -20.0890    8.8320 Cl        1 DFQ1362     0.0000 
     23 C24       -20.7350  -17.8510    8.3660 C.ar      1 DFQ1362     0.0000 
     24 F25       -21.4380  -18.1690    9.4760 F         1 DFQ1362     0.0000 
     25 C26       -21.0700  -16.6850    7.6920 C.ar      1 DFQ1362     0.0000 
     26 C27       -20.3740  -16.3540    6.5420 C.ar      1 DFQ1362     0.0000 
     27 C28       -19.3480  -17.1660    6.0850 C.ar      1 DFQ1362     0.0000 
     28 CL29      -18.5320  -16.6870    4.6710 Cl        1 DFQ1362     0.0000 
     29 H         -25.7479  -21.3575   -1.3809 H         1 DFQ1362     0.0000 
     30 H         -23.9658  -21.4947   -0.1180 H         1 DFQ1362     0.0000 
     31 H         -21.8358  -19.3730   -0.3161 H         1 DFQ1362     0.0000 
     32 H         -20.8247  -19.2743    2.0267 H         1 DFQ1362     0.0000 
     33 H         -19.4337  -19.3828    4.0228 H         1 DFQ1362     0.0000 
     34 H         -22.5598  -22.7959    0.5981 H         1 DFQ1362     0.0000 
     35 H         -20.3041  -24.1455    4.3370 H         1 DFQ1362     0.0000 
     36 H         -18.9970  -23.0390    6.0535 H         1 DFQ1362     0.0000 
     37 H         -17.6776  -18.8610    5.0953 H         1 DFQ1362     0.0000 
     38 H         -21.8181  -16.0820    8.0400 H         1 DFQ1362     0.0000 
     39 H         -20.6203  -15.4969    6.0209 H         1 DFQ1362     0.0000 
     40 H         -26.0905  -19.5116   -3.4633 H         1 DFQ1362     0.0000 
     41 H         -27.2646  -20.3561   -2.7601 H         1 DFQ1362     0.0000 
     42 H         -26.8567  -18.9115   -2.1830 H         1 DFQ1362     0.0000 
     43 H         -15.7494  -19.6439    6.4256 H         1 DFQ1362     0.0000 
     44 H         -16.0968  -18.1440    6.8902 H         1 DFQ1362     0.0000 
     45 H         -16.5206  -19.3905    7.8138 H         1 DFQ1362     0.0000 
@<TRIPOS>BOND
     1    2    1 1    
     2   40    1 1    
     3   41    1 1    
     4   42    1 1    
     5    3    2 am   
     6   29    2 1    
     7    4    3 2    
     8    5    3 1    
     9    6    5 2    
    10   30    5 1    
    11    7    6 1    
    12   31    6 1    
    13    8    7 ar   
    14   11    7 ar   
    15    9    8 ar   
    16   32    8 1    
    17   10    9 ar   
    18   13    9 ar   
    19   16   10 ar   
    20   33   10 1    
    21   12   11 ar   
    22   34   11 1    
    23   13   12 ar   
    24   14   13 ar   
    25   15   14 ar   
    26   35   14 1    
    27   16   15 ar   
    28   36   15 1    
    29   17   16 1    
    30   18   17 1    
    31   19   18 1    
    32   20   18 1    
    33   37   18 1    
    34   43   19 1    
    35   44   19 1    
    36   45   19 1    
    37   21   20 ar   
    38   27   20 ar   
    39   22   21 1    
    40   23   21 ar   
    41   24   23 1    
    42   25   23 ar   
    43   26   25 ar   
    44   38   25 1    
    45   27   26 ar   
    46   39   26 1    
    47   28   27 1    
@<TRIPOS>SUBSTRUCTURE
     1 DFQ1362     1 GROUP   
@<TRIPOS>SET

