#    Name: 1tw1_GDU_2_INTS_M
#    Modification time : Tue Mar 25 05:44:05 2014

@<TRIPOS>MOLECULE
1tw1_GDU_2_INTS_M
   86     0    15     0     0
SMALL
NO_CHARGES


@<TRIPOS>ATOM
      1 O          16.5020   71.8605   31.0855 O.2       1 ALC1        0.0000 
      2 O          15.6640   72.0170   32.2430 O.2      11 ALL1        0.0000 
      3 O          17.3400   71.7040   29.9280 O.2       6 ALP1        0.0000 
      4 CA         12.7190   72.9865   33.4540 C.3       5 GLC5        0.0000 
      5 CA         14.4990   73.4830   33.7590 C.3      15 GLL5        0.0000 
      6 CA         10.9390   72.4900   33.1490 C.3      10 GLP5        0.0000 
      7 CA         15.4530   75.3200   33.3105 C.3       5 GLC5        0.0000 
      8 CA         16.4070   77.1570   32.8620 C.3      10 GLP5        0.0000 
      9 CA         13.3945   75.2315   33.8860 C.3       5 GLC5        0.0000 
     10 CA         12.2900   76.9800   34.0130 C.3      10 GLP5        0.0000 
     11 CA         12.8535   71.8115   33.9790 C.3       5 GLC5        0.0000 
     12 CA         14.2700   72.4270   34.5590 C.3      15 GLL5        0.0000 
     13 CA         11.4370   71.1960   33.3990 C.3      10 GLP5        0.0000 
     14 N          15.8385   69.5175   31.2035 N.am      2 SEC2        0.0000 
     15 N          15.9050   69.8110   32.6420 N.am     12 SEL2        0.0000 
     16 N          15.7720   69.2240   29.7650 N.am      7 SEP2        0.0000 
     17 CA         13.4055   68.1785   35.3200 C.3       5 GLC5        0.0000 
     18 CA         14.5020   69.9610   35.0920 C.3      15 GLL5        0.0000 
     19 CA         12.3090   66.3960   35.5480 C.3      10 GLP5        0.0000 
     20 CA         13.2760   70.2130   33.7415 C.3       5 GLC5        0.0000 
     21 CA         12.0500   70.4650   32.3910 C.3      10 GLP5        0.0000 
     22 N          16.3870   67.0220   36.6605 N.am      2 SEC2        0.0000 
     23 N          15.5980   67.9600   35.8960 N.am     12 SEL2        0.0000 
     24 N          17.1760   66.0840   37.4250 N.am      7 SEP2        0.0000 
     25 O          15.0540   67.3315   34.7215 O.2       1 ALC1        0.0000 
     26 O          15.5980   67.9600   35.8960 O.2      11 ALL1        0.0000 
     27 O          14.5100   66.7030   33.5470 O.2       6 ALP1        0.0000 
     28 N          16.7855   67.7255   37.7765 N.am      2 SEC2        0.0000 
     29 N          16.3950   69.3670   38.1280 N.am     12 SEL2        0.0000 
     30 N          16.5855   69.9390   39.7450 N.am      2 SEC2        0.0000 
     31 N          16.7760   70.5110   41.3620 N.am      7 SEP2        0.0000 
     32 O          17.6090   70.0515   38.7660 O.2       1 ALC1        0.0000 
     33 O          16.3950   69.3670   38.1280 O.2      11 ALL1        0.0000 
     34 O          18.8230   70.7360   39.4040 O.2       6 ALP1        0.0000 
     35 O          16.5855   69.9390   39.7450 O.2       1 ALC1        0.0000 
     36 O          16.7760   70.5110   41.3620 O.2       6 ALP1        0.0000 
     37 Zn         17.1680   72.2545   39.9295 Zn        4 ZIC7        0.0000 
     38 Zn         16.4840   72.2580   39.3150 Zn       14 ZIL7        0.0000 
     39 Zn         17.8520   72.2510   40.5440 Zn        9 ZIP7        0.0000 
     40 N          16.8860   73.9825   37.1055 N.am      2 SEC2        0.0000 
     41 N          15.7840   74.4520   38.0390 N.am     12 SEL2        0.0000 
     42 N          17.9880   73.5130   36.1720 N.am      7 SEP2        0.0000 
     43 NZ         16.6615   73.3470   43.2275 N.4       3 LYC4        0.0000 
     44 NZ         16.3740   73.0710   41.7050 N.4      13 LYL4        0.0000 
     45 NZ         16.9490   73.6230   44.7500 N.4       8 LYP4        0.0000 
     46 Zn         17.1130   72.6610   41.1245 Zn        4 ZIC7        0.0000 
     47 Zn         16.3740   73.0710   41.7050 Zn       14 ZIL7        0.0000 
     48 NZ         15.6920   74.1255   43.5315 N.4       3 LYC4        0.0000 
     49 NZ         14.4350   74.6280   42.3130 N.4      13 LYL4        0.0000 
     50 N          13.3810   75.4405   41.6785 N.am      2 SEC2        0.0000 
     51 N          14.4350   74.6280   42.3130 N.am     12 SEL2        0.0000 
     52 N          12.3270   76.2530   41.0440 N.am      7 SEP2        0.0000 
     53 CA         10.8075   69.2580   43.7350 C.3       5 GLC5        0.0000 
     54 CA         11.6970   70.3420   42.1500 C.3      15 GLL5        0.0000 
     55 CA          9.9180   68.1740   45.3200 C.3      10 GLP5        0.0000 
     56 CA          8.7845   74.8795   41.1130 C.3       5 GLC5        0.0000 
     57 CA         10.3990   73.8400   40.9610 C.3      15 GLL5        0.0000 
     58 CA          7.1700   75.9190   41.2650 C.3      10 GLP5        0.0000 
     59 O          14.2360   69.3800   42.2200 O.2       1 ALC1        0.0000 
     60 O          13.8460   69.8620   43.1990 O.2      11 ALL1        0.0000 
     61 O          14.6260   68.8980   41.2410 O.2       6 ALP1        0.0000 
     62 N          11.7660   68.2310   42.9595 N.am      2 SEC2        0.0000 
     63 N          11.6180   68.9730   41.7830 N.am     12 SEL2        0.0000 
     64 N          11.9140   67.4890   44.1360 N.am      7 SEP2        0.0000 
     65 O          12.4790   68.3875   40.8180 O.2       1 ALC1        0.0000 
     66 O          11.6180   68.9730   41.7830 O.2      11 ALL1        0.0000 
     67 O          13.3400   67.8020   39.8530 O.2       6 ALP1        0.0000 
     68 O          13.1220   68.9355   41.5120 O.2       1 ALC1        0.0000 
     69 N           8.6155   74.6510   40.1205 N.am      2 SEC2        0.0000 
     70 N           9.2920   73.3420   40.2090 N.am     12 SEL2        0.0000 
     71 N           7.9390   75.9600   40.0320 N.am      7 SEP2        0.0000 
     72 O           8.5195   72.0195   40.4565 O.2       1 ALC1        0.0000 
     73 O           9.2920   73.3420   40.2090 O.2      11 ALL1        0.0000 
     74 O           7.7470   70.6970   40.7040 O.2       6 ALP1        0.0000 
     75 CA         17.3090   68.7905   36.0643 C.3       5 GLC5        0.0000 
     76 CA         15.6790   70.1070   37.1360 C.3      15 GLL5        0.0000 
     77 CA         18.9200   67.8270   35.6590 C.3      10 GLP5        0.0000 
     78 CA         15.2973   68.6500   38.5998 C.3       5 GLC5        0.0000 
     79 CA         15.6580   67.2080   39.9440 C.3      10 GLP5        0.0000 
     80 CA         12.7205   68.7050   43.3218 C.3       5 GLC5        0.0000 
     81 CA         13.1940   66.8290   44.0300 C.3      10 GLP5        0.0000 
     82 CA         10.5290   69.9295   40.1112 C.3       5 GLC5        0.0000 
     83 CA          9.8070   69.0540   38.4500 C.3      10 GLP5        0.0000 
     84 CA         11.4157   74.8580   40.4578 C.3       5 GLC5        0.0000 
     85 CA         11.3460   72.7200   41.3980 C.3      15 GLL5        0.0000 
     86 CA         11.9590   76.4360   39.7360 C.3      10 GLP5        0.0000 
@<TRIPOS>BOND
@<TRIPOS>SUBSTRUCTURE
     1 ALC1        1 GROUP        1 X    ALC  0     ROOT ALC X 1
     2 SEC2       14 GROUP        1 X    SEC  0     **** SEC X 2
     3 LYC4       43 GROUP        1 X    LYC  0     **** LYC X 4
     4 ZIC7       37 GROUP        1 X    ZIC  0     **** ZIC X 5
     5 GLC5        4 GROUP        1 X    GLC  0     **** GLC X 6
     6 ALP1        3 GROUP        1 Y    ALP  0     ROOT ALP Y 8
     7 SEP2       16 GROUP        1 Y    SEP  0     **** SEP Y 9
     8 LYP4       45 GROUP        1 Y    LYP  0     **** LYP Y 11
     9 ZIP7       39 GROUP        1 Y    ZIP  0     **** ZIP Y 12
    10 GLP5        6 GROUP        1 Y    GLP  0     **** GLP Y 13
    11 ALL1        2 GROUP        1 Z    ALL  0     ROOT ALL Z 15
    12 SEL2       15 GROUP        1 Z    SEL  0     **** SEL Z 16
    13 LYL4       44 GROUP        1 Z    LYL  0     **** LYL Z 18
    14 ZIL7       38 GROUP        1 Z    ZIL  0     **** ZIL Z 19
    15 GLL5        5 GROUP        1 Z    GLL  0     **** GLL Z 20
@<TRIPOS>SET

