#    Name: 1tw1_GDU_2_ligand
#    Modification time : Tue Mar 25 05:44:05 2014

@<TRIPOS>MOLECULE
1tw1_GDU_2_ligand
   58    60     1     0     0
SMALL
NO_CHARGES


@<TRIPOS>ATOM
      1 N1         14.7340   71.1320   34.2210 N.am      1 GDU404      0.0000 
      2 C2         15.4600   70.8970   33.0210 C.2       1 GDU404      0.0000 
      3 N3         15.6640   72.0170   32.2430 N.am      1 GDU404      0.0000 
      4 C4         15.2370   73.3260   32.5120 C.2       1 GDU404      0.0000 
      5 C5         14.4990   73.4830   33.7590 C.2       1 GDU404      0.0000 
      6 C6         14.2700   72.4270   34.5590 C.2       1 GDU404      0.0000 
      7 O2         15.9050   69.8110   32.6420 O.2       1 GDU404      0.0000 
      8 O4         15.5280   74.1800   31.6930 O.2       1 GDU404      0.0000 
      9 C1D        14.5020   69.9610   35.0920 C.3       1 GDU404      0.0000 
     10 C2D        15.7170   69.4010   35.8030 C.3       1 GDU404      0.0000 
     11 O2D        15.5980   67.9600   35.8960 O.3       1 GDU404      0.0000 
     12 C3D        15.6790   70.1070   37.1360 C.3       1 GDU404      0.0000 
     13 C4D        14.1940   70.0770   37.3750 C.3       1 GDU404      0.0000 
     14 O4D        13.5520   70.1030   36.0990 O.3       1 GDU404      0.0000 
     15 O3D        16.3950   69.3670   38.1280 O.3       1 GDU404      0.0000 
     16 C5D        13.7870   71.1950   38.3660 C.3       1 GDU404      0.0000 
     17 O5D        14.1670   72.4690   37.9220 O.3       1 GDU404      0.0000 
     18 PA         15.3820   73.1990   38.6500 P.3       1 GDU404      0.0000 
     19 O1A        16.4840   72.2580   39.3150 O.co2     1 GDU404      0.0000 
     20 O2A        15.7840   74.4520   38.0390 O.co2     1 GDU404      0.0000 
     21 O3A        14.6940   73.7250   39.8800 O.3       1 GDU404      0.0000 
     22 PB         14.9960   73.6110   41.3940 P.3       1 GDU404      0.0000 
     23 O1B        16.3740   73.0710   41.7050 O.co2     1 GDU404      0.0000 
     24 O2B        14.4350   74.6280   42.3130 O.co2     1 GDU404      0.0000 
     25 O3B        14.1360   72.3240   41.6770 O.3       1 GDU404      0.0000 
     26 C1'        13.2820   72.2300   42.8120 C.3       1 GDU404      0.0000 
     27 C2'        12.7970   70.8200   43.0770 C.3       1 GDU404      0.0000 
     28 C3'        11.6970   70.3420   42.1500 C.3       1 GDU404      0.0000 
     29 C4'        10.8050   71.2680   41.3950 C.3       1 GDU404      0.0000 
     30 C5'        11.3460   72.7200   41.3980 C.3       1 GDU404      0.0000 
     31 C6'        10.3990   73.8400   40.9610 C.3       1 GDU404      0.0000 
     32 O2'        13.8460   69.8620   43.1990 O.3       1 GDU404      0.0000 
     33 O3'        11.6180   68.9730   41.7830 O.3       1 GDU404      0.0000 
     34 O4'         9.5950   71.2720   42.1530 O.3       1 GDU404      0.0000 
     35 O5'        12.0580   73.0590   42.6170 O.3       1 GDU404      0.0000 
     36 O6'         9.2920   73.3420   40.2090 O.3       1 GDU404      0.0000 
     37 H          16.2122   71.8808   31.3230 H         1 GDU404      0.0000 
     38 H          14.1699   74.4335   33.9859 H         1 GDU404      0.0000 
     39 H          13.7439   72.5308   35.4519 H         1 GDU404      0.0000 
     40 H          14.1583   69.0979   34.4276 H         1 GDU404      0.0000 
     41 H          16.5793   69.7154   35.2669 H         1 GDU404      0.0000 
     42 H          15.9854   71.0949   37.0025 H         1 GDU404      0.0000 
     43 H          13.9859   69.1104   37.8793 H         1 GDU404      0.0000 
     44 H          14.2447   70.9339   39.3420 H         1 GDU404      0.0000 
     45 H          12.6906   71.1069   38.5085 H         1 GDU404      0.0000 
     46 H          13.7752   72.5811   43.7157 H         1 GDU404      0.0000 
     47 H          12.2866   70.8771   44.1153 H         1 GDU404      0.0000 
     48 H          10.7826   70.1973   43.1840 H         1 GDU404      0.0000 
     49 H          10.6561   70.9406   40.4180 H         1 GDU404      0.0000 
     50 H          12.1709   72.7095   40.5663 H         1 GDU404      0.0000 
     51 H          10.9925   74.5668   40.3767 H         1 GDU404      0.0000 
     52 H          10.0655   74.3671   41.8736 H         1 GDU404      0.0000 
     53 H          15.2168   67.6746   35.0166 H         1 GDU404      0.0000 
     54 H          16.7859   70.0590   38.7349 H         1 GDU404      0.0000 
     55 H          13.7092   69.2301   42.4362 H         1 GDU404      0.0000 
     56 H          12.3591   68.8383   41.1252 H         1 GDU404      0.0000 
     57 H           9.2559   70.3325   42.1039 H         1 GDU404      0.0000 
     58 H           9.0592   72.4694   40.6383 H         1 GDU404      0.0000 
@<TRIPOS>BOND
     1    2    1 1    
     2    6    1 1    
     3    9    1 1    
     4    3    2 1    
     5    7    2 2    
     6    4    3 1    
     7   37    3 1    
     8    5    4 1    
     9    8    4 2    
    10    6    5 2    
    11   38    5 1    
    12   39    6 1    
    13   10    9 1    
    14   14    9 1    
    15   40    9 1    
    16   11   10 1    
    17   12   10 1    
    18   41   10 1    
    19   53   11 1    
    20   13   12 1    
    21   15   12 1    
    22   42   12 1    
    23   14   13 1    
    24   16   13 1    
    25   43   13 1    
    26   54   15 1    
    27   17   16 1    
    28   44   16 1    
    29   45   16 1    
    30   18   17 1    
    31   19   18 ar   
    32   20   18 ar   
    33   21   18 1    
    34   22   21 1    
    35   23   22 ar   
    36   24   22 ar   
    37   25   22 1    
    38   26   25 1    
    39   27   26 1    
    40   35   26 1    
    41   46   26 1    
    42   28   27 1    
    43   32   27 1    
    44   47   27 1    
    45   29   28 1    
    46   33   28 1    
    47   48   28 1    
    48   30   29 1    
    49   34   29 1    
    50   49   29 1    
    51   31   30 1    
    52   35   30 1    
    53   50   30 1    
    54   36   31 1    
    55   51   31 1    
    56   52   31 1    
    57   55   32 1    
    58   56   33 1    
    59   57   34 1    
    60   58   36 1    
@<TRIPOS>SUBSTRUCTURE
     1 GDU404      1 GROUP   
@<TRIPOS>SET

