#    Name: 1wbk_568_1_INTS_M
#    Modification time : Tue Mar 25 08:52:39 2014

@<TRIPOS>MOLECULE
1wbk_568_1_INTS_M
  102     0     9     0     0
SMALL
NO_CHARGES


@<TRIPOS>ATOM
      1 N           9.2355   29.4105    6.3720 N.am      2 SEC2        0.0000 
      2 N           8.3920   28.2340    6.9480 N.am      8 SEL2        0.0000 
      3 N          10.0790   30.5870    5.7960 N.am      5 SEP2        0.0000 
      4 CA          8.0850   29.5360    5.6685 C.3       3 GLC5        0.0000 
      5 CA          8.3160   27.4230    5.7600 C.3       9 GLL5        0.0000 
      6 CA          7.8540   31.6490    5.5770 C.3       6 GLP5        0.0000 
      7 CA          6.9030   26.7085    9.4435 C.3       3 GLC5        0.0000 
      8 CA          8.5430   27.3770    8.0760 C.3       9 GLL5        0.0000 
      9 CA          5.2630   26.0400   10.8110 C.3       6 GLP5        0.0000 
     10 CA         11.1715   28.6000    8.0530 C.3       3 GLC5        0.0000 
     11 CA          9.5020   28.1690    8.9720 C.3       9 GLL5        0.0000 
     12 CA         12.8410   29.0310    7.1340 C.3       6 GLP5        0.0000 
     13 CA          9.6040   30.3695    9.2270 C.3       3 GLC5        0.0000 
     14 CA          9.7060   32.5700    9.4820 C.3       6 GLP5        0.0000 
     15 CA          8.4450   27.0815   10.6080 C.3       3 GLC5        0.0000 
     16 CA          7.3880   25.9940   12.2440 C.3       6 GLP5        0.0000 
     17 N           9.2060   30.6890    8.7380 N.am      2 SEC2        0.0000 
     18 N           8.8860   29.4350    9.2940 N.am      8 SEL2        0.0000 
     19 N           9.5260   31.9430    8.1820 N.am      5 SEP2        0.0000 
     20 O          10.8565   26.8175    4.3415 O.2       1 ALC1        0.0000 
     21 O          10.1930   25.8190    5.2210 O.2       7 ALL1        0.0000 
     22 O          11.5200   27.8160    3.4620 O.2       4 ALP1        0.0000 
     23 CA         12.9160   26.4015    3.4360 C.3       3 GLC5        0.0000 
     24 CA         12.1370   24.5860    4.3610 C.3       9 GLL5        0.0000 
     25 CA         13.6950   28.2170    2.5110 C.3       6 GLP5        0.0000 
     26 O          15.1425   25.7930    5.6610 O.2       1 ALC1        0.0000 
     27 O          14.6010   25.0920    4.6350 O.2       7 ALL1        0.0000 
     28 O          15.6840   26.4940    6.6870 O.2       4 ALP1        0.0000 
     29 CA         12.6345   21.5535    4.0705 C.3       3 GLC5        0.0000 
     30 CA         13.9290   22.8920    5.0270 C.3       9 GLL5        0.0000 
     31 CA         11.3400   20.2150    3.1140 C.3       6 GLP5        0.0000 
     32 O          14.5890   23.6195    2.7925 O.2       1 ALC1        0.0000 
     33 O          14.2790   22.5670    3.6450 O.2       7 ALL1        0.0000 
     34 O          14.8990   24.6720    1.9400 O.2       4 ALP1        0.0000 
     35 O          17.5415   21.8545    5.3150 O.2       1 ALC1        0.0000 
     36 O          16.5120   20.6570    5.4620 O.2       7 ALL1        0.0000 
     37 O          18.5710   23.0520    5.1680 O.2       4 ALP1        0.0000 
     38 CA         16.8855   15.9090    3.6490 C.3       3 GLC5        0.0000 
     39 CA         17.8070   17.8630    3.6140 C.3       9 GLL5        0.0000 
     40 CA         15.9640   13.9550    3.6840 C.3       6 GLP5        0.0000 
     41 CA         17.4950   15.8970    0.0580 C.3       3 GLC5        0.0000 
     42 CA         17.1910   17.7220    1.2610 C.3       9 GLL5        0.0000 
     43 CA         17.7990   14.0720   -1.1450 C.3       6 GLP5        0.0000 
     44 CA         17.5305   15.4225    2.4960 C.3       3 GLC5        0.0000 
     45 CA         18.0400   17.3160    2.3260 C.3       9 GLL5        0.0000 
     46 CA         17.0210   13.5290    2.6660 C.3       6 GLP5        0.0000 
     47 N          19.6785   20.2615    4.0285 N.am      2 SEC2        0.0000 
     48 N          19.0480   19.9210    5.4590 N.am      8 SEL2        0.0000 
     49 N          20.3090   20.6020    2.5980 N.am      5 SEP2        0.0000 
     50 O          20.3265   19.2235    5.4560 O.2       1 ALC1        0.0000 
     51 O          19.0480   19.9210    5.4590 O.2       7 ALL1        0.0000 
     52 O          21.6050   18.5260    5.4530 O.2       4 ALP1        0.0000 
     53 CA         10.5629   27.8570    6.2651 C.3       3 GLC5        0.0000 
     54 CA          8.9970   26.0610    6.0550 C.3       9 GLL5        0.0000 
     55 CA         12.0780   29.1890    5.8150 C.3       6 GLP5        0.0000 
     56 CA         11.4460   22.8500    1.0580 C.3       3 GLC5        0.0000 
     57 CA          9.8010   24.3260    2.1710 C.3       9 GLL5        0.0000 
     58 CA         12.3390   21.5170   -0.0310 C.3       6 GLP5        0.0000 
     59 CA          8.0725   22.5203    4.4115 C.3       3 GLC5        0.0000 
     60 CA          8.8970   23.3270    2.6520 C.3       9 GLL5        0.0000 
     61 CA          7.9430   21.5750    6.1410 C.3       6 GLP5        0.0000 
     62 CA         10.5325   21.9850    2.7568 C.3       3 GLC5        0.0000 
     63 CA          8.5320   23.6208    0.5895 C.3       3 GLC5        0.0000 
     64 CA          7.5070   23.6040    2.7120 C.3       9 GLL5        0.0000 
     65 CA          8.8620   23.7760   -1.5030 C.3       6 GLP5        0.0000 
     66 CA          6.7188   22.5034    1.7575 C.3       3 GLC5        0.0000 
     67 CA          5.8330   20.8400    1.0260 C.3       6 GLP5        0.0000 
     68 CA          8.1587   24.5697    0.2775 C.3       3 GLC5        0.0000 
     69 CA          7.0070   24.8680    2.2960 C.3       9 GLL5        0.0000 
     70 CA         10.7495   26.1348    0.7025 C.3       3 GLC5        0.0000 
     71 CA          9.2950   25.5880    1.7550 C.3       9 GLL5        0.0000 
     72 CA         11.5750   27.3840   -0.5460 C.3       6 GLP5        0.0000 
     73 CA          9.3930   24.3308    0.2240 C.3       3 GLC5        0.0000 
     74 CA         17.6272   20.6193    3.5345 C.3       3 GLC5        0.0000 
     75 CA         16.7670   18.7870    3.8320 C.3       9 GLL5        0.0000 
     76 CA         18.4960   22.2350    2.5090 C.3       6 GLP5        0.0000 
     77 CA         15.9080   17.4228    0.0315 C.3       3 GLC5        0.0000 
     78 CA         16.1350   18.6530    1.4730 C.3       9 GLL5        0.0000 
     79 CA         15.1530   16.6580   -1.3040 C.3       6 GLP5        0.0000 
     80 CA         15.5150   16.5508    1.6445 C.3       3 GLC5        0.0000 
     81 CA         14.3670   14.9140    1.9220 C.3       6 GLP5        0.0000 
     82 CA         17.0630   20.2311    1.5162 C.3       3 GLC5        0.0000 
     83 CA         17.5190   22.1390    1.3410 C.3       6 GLP5        0.0000 
     84 CA         18.8522   17.1590    0.5353 C.3       3 GLC5        0.0000 
     85 CA         20.0890   16.7990   -0.7230 C.3       6 GLP5        0.0000 
     86 CA         20.0841   18.2220    3.2299 C.3       3 GLC5        0.0000 
     87 CA         22.0520   18.9240    3.1710 C.3       6 GLP5        0.0000 
     88 CA         18.5370   23.9119    8.3475 C.3       3 GLC5        0.0000 
     89 CA         16.6860   22.3180    8.7070 C.3       9 GLL5        0.0000 
     90 CA         19.8590   25.3050    8.2280 C.3       6 GLP5        0.0000 
     91 CA         18.0850   22.3302   10.4645 C.3       3 GLC5        0.0000 
     92 CA         18.0760   22.1030    8.5420 C.3       9 GLL5        0.0000 
     93 CA         17.7890   23.1320   12.1020 C.3       6 GLP5        0.0000 
     94 CA         17.5023   21.6230   11.0125 C.3       3 GLC5        0.0000 
     95 CA         16.5180   20.2180   10.0090 C.3       9 GLL5        0.0000 
     96 CA         15.7349   20.1992   11.3957 C.3       3 GLC5        0.0000 
     97 CA         17.9130   20.0100    9.8370 C.3       9 GLL5        0.0000 
     98 CA         14.9120   19.6560   13.1100 C.3       6 GLP5        0.0000 
     99 CA         16.9580   22.6424   10.5090 C.3       3 GLC5        0.0000 
    100 CA         15.9000   21.3710    9.4400 C.3       9 GLL5        0.0000 
    101 CA         15.3295   23.7804    9.8040 C.3       3 GLC5        0.0000 
    102 CA         14.5320   25.4080   10.6920 C.3       6 GLP5        0.0000 
@<TRIPOS>BOND
@<TRIPOS>SUBSTRUCTURE
     1 ALC1       20 GROUP        1 X    ALC  0     ROOT ALC X 1
     2 SEC2        1 GROUP        1 X    SEC  0     **** SEC X 2
     3 GLC5        4 GROUP        1 X    GLC  0     **** GLC X 6
     4 ALP1       22 GROUP        1 Y    ALP  0     ROOT ALP Y 8
     5 SEP2        3 GROUP        1 Y    SEP  0     **** SEP Y 9
     6 GLP5        6 GROUP        1 Y    GLP  0     **** GLP Y 13
     7 ALL1       21 GROUP        1 Z    ALL  0     ROOT ALL Z 15
     8 SEL2        2 GROUP        1 Z    SEL  0     **** SEL Z 16
     9 GLL5        5 GROUP        1 Z    GLL  0     **** GLL Z 20
@<TRIPOS>SET

