#    Name: 1wbk_568_1_ligand
#    Modification time : Tue Mar 25 08:52:39 2014

@<TRIPOS>MOLECULE
1wbk_568_1_ligand
   85    89     1     0     0
SMALL
NO_CHARGES


@<TRIPOS>ATOM
      1 O1          8.3920   28.2340    6.9480 O.3       1 5681100     0.0000 
      2 C2          8.3160   27.4230    5.7600 C.3       1 5681100     0.0000 
      3 C3          8.9970   26.0610    6.0550 C.3       1 5681100     0.0000 
      4 C4          9.4390   26.3080    7.5230 C.3       1 5681100     0.0000 
      5 C5          8.5430   27.3770    8.0760 C.3       1 5681100     0.0000 
      6 C6          9.5020   28.1690    8.9720 C.3       1 5681100     0.0000 
      7 O7          8.8860   29.4350    9.2940 O.3       1 5681100     0.0000 
      8 N8         10.1930   25.8190    5.2210 N.am      1 5681100     0.0000 
      9 C9         10.9320   24.6860    5.2830 C.2       1 5681100     0.0000 
     10 O10        10.6510   23.7460    6.0360 O.2       1 5681100     0.0000 
     11 C11        12.1370   24.5860    4.3610 C.3       1 5681100     0.0000 
     12 O12        11.8900   23.5500    3.3540 O.3       1 5681100     0.0000 
     13 C13        11.3050   24.0400    2.1230 C.3       1 5681100     0.0000 
     14 C14         9.8010   24.3260    2.1710 C.ar      1 5681100     0.0000 
     15 C15         8.8970   23.3270    2.6520 C.ar      1 5681100     0.0000 
     16 C16         7.5070   23.6040    2.7120 C.ar      1 5681100     0.0000 
     17 C17         7.0070   24.8680    2.2960 C.ar      1 5681100     0.0000 
     18 C18         7.9040   25.8590    1.8200 C.ar      1 5681100     0.0000 
     19 C19         9.2950   25.5880    1.7550 C.ar      1 5681100     0.0000 
     20 C20        13.4560   24.3360    5.1630 C.3       1 5681100     0.0000 
     21 O21        14.6010   25.0920    4.6350 O.3       1 5681100     0.0000 
     22 C22        13.9290   22.8920    5.0270 C.3       1 5681100     0.0000 
     23 O23        14.2790   22.5670    3.6450 O.3       1 5681100     0.0000 
     24 C24        15.1710   22.6500    5.9110 C.3       1 5681100     0.0000 
     25 C25        15.3230   21.1460    5.8770 C.2       1 5681100     0.0000 
     26 N26        16.5120   20.6570    5.4620 N.am      1 5681100     0.0000 
     27 C27        16.7500   19.2200    5.2880 C.3       1 5681100     0.0000 
     28 C28        18.1820   18.8100    5.7570 C.3       1 5681100     0.0000 
     29 C29        18.5780   17.5850    4.8890 C.3       1 5681100     0.0000 
     30 C30        17.8070   17.8630    3.6140 C.ar      1 5681100     0.0000 
     31 C31        16.7670   18.7870    3.8320 C.ar      1 5681100     0.0000 
     32 C32        15.9110   19.1960    2.7710 C.ar      1 5681100     0.0000 
     33 C33        16.1350   18.6530    1.4730 C.ar      1 5681100     0.0000 
     34 C34        17.1910   17.7220    1.2610 C.ar      1 5681100     0.0000 
     35 C35        18.0400   17.3160    2.3260 C.ar      1 5681100     0.0000 
     36 O36        19.0480   19.9210    5.4590 O.3       1 5681100     0.0000 
     37 O37        14.3390   20.4560    6.1640 O.2       1 5681100     0.0000 
     38 O38        14.8810   23.1460    7.2730 O.3       1 5681100     0.0000 
     39 C39        16.0220   23.5510    8.0770 C.3       1 5681100     0.0000 
     40 C40        16.6860   22.3180    8.7070 C.ar      1 5681100     0.0000 
     41 C41        18.0760   22.1030    8.5420 C.ar      1 5681100     0.0000 
     42 C42        18.6860   20.9540    9.1120 C.ar      1 5681100     0.0000 
     43 C43        17.9130   20.0100    9.8370 C.ar      1 5681100     0.0000 
     44 C44        16.5180   20.2180   10.0090 C.ar      1 5681100     0.0000 
     45 C45        15.9000   21.3710    9.4400 C.ar      1 5681100     0.0000 
     46 H           8.8403   27.8765    4.9234 H         1 5681100     0.0000 
     47 H           7.2886   27.2193    5.4713 H         1 5681100     0.0000 
     48 H           8.2917   25.3113    6.0465 H         1 5681100     0.0000 
     49 H          10.4615   26.6340    7.5214 H         1 5681100     0.0000 
     50 H           9.3224   25.3939    8.0731 H         1 5681100     0.0000 
     51 H           7.7577   27.0615    8.5222 H         1 5681100     0.0000 
     52 H          10.4355   28.3041    8.4293 H         1 5681100     0.0000 
     53 H           9.6936   27.5779    9.8654 H         1 5681100     0.0000 
     54 H          10.4406   26.5950    4.5635 H         1 5681100     0.0000 
     55 H          12.2475   25.5580    3.8603 H         1 5681100     0.0000 
     56 H          11.4796   23.3153    1.2889 H         1 5681100     0.0000 
     57 H          11.8125   24.9810    1.7937 H         1 5681100     0.0000 
     58 H           9.2545   22.4239    2.9484 H         1 5681100     0.0000 
     59 H           6.8607   22.8920    3.0559 H         1 5681100     0.0000 
     60 H           6.0094   25.0602    2.3399 H         1 5681100     0.0000 
     61 H           7.5481   26.7676    1.5241 H         1 5681100     0.0000 
     62 H           9.9370   26.3017    1.4080 H         1 5681100     0.0000 
     63 H          13.3080   24.5472    6.1892 H         1 5681100     0.0000 
     64 H          13.1478   22.2342    5.3806 H         1 5681100     0.0000 
     65 H          15.9907   23.1114    5.4660 H         1 5681100     0.0000 
     66 H          17.3159   21.2798    5.2462 H         1 5681100     0.0000 
     67 H          16.0632   18.6091    5.8169 H         1 5681100     0.0000 
     68 H          18.1483   18.5462    6.7546 H         1 5681100     0.0000 
     69 H          18.2272   16.7097    5.3498 H         1 5681100     0.0000 
     70 H          19.6117   17.6112    4.7091 H         1 5681100     0.0000 
     71 H          15.1664   19.8519    2.9328 H         1 5681100     0.0000 
     72 H          15.5389   18.9314    0.6964 H         1 5681100     0.0000 
     73 H          17.3411   17.3375    0.3212 H         1 5681100     0.0000 
     74 H          18.7850   16.6591    2.1696 H         1 5681100     0.0000 
     75 H          15.7190   24.2210    8.8862 H         1 5681100     0.0000 
     76 H          16.7724   24.0646    7.4699 H         1 5681100     0.0000 
     77 H          18.6382   22.7693    8.0165 H         1 5681100     0.0000 
     78 H          19.6918   20.8059    8.9987 H         1 5681100     0.0000 
     79 H          18.3570   19.1842   10.2338 H         1 5681100     0.0000 
     80 H          15.9615   19.5508   10.5339 H         1 5681100     0.0000 
     81 H          14.9022   21.5229    9.5533 H         1 5681100     0.0000 
     82 H           8.0518   29.4643    8.7433 H         1 5681100     0.0000 
     83 H          14.9815   25.5711    5.4260 H         1 5681100     0.0000 
     84 H          14.6954   23.4001    3.2808 H         1 5681100     0.0000 
     85 H          19.9689   19.5319    5.4345 H         1 5681100     0.0000 
@<TRIPOS>BOND
     1    2    1 1    
     2    5    1 1    
     3    3    2 1    
     4   46    2 1    
     5   47    2 1    
     6    4    3 1    
     7    8    3 1    
     8   48    3 1    
     9    5    4 1    
    10   49    4 1    
    11   50    4 1    
    12    6    5 1    
    13   51    5 1    
    14    7    6 1    
    15   52    6 1    
    16   53    6 1    
    17   82    7 1    
    18    9    8 am   
    19   54    8 1    
    20   10    9 2    
    21   11    9 1    
    22   12   11 1    
    23   20   11 1    
    24   55   11 1    
    25   13   12 1    
    26   14   13 1    
    27   56   13 1    
    28   57   13 1    
    29   15   14 ar   
    30   19   14 ar   
    31   16   15 ar   
    32   58   15 1    
    33   17   16 ar   
    34   59   16 1    
    35   18   17 ar   
    36   60   17 1    
    37   19   18 ar   
    38   61   18 1    
    39   62   19 1    
    40   21   20 1    
    41   22   20 1    
    42   63   20 1    
    43   83   21 1    
    44   23   22 1    
    45   24   22 1    
    46   64   22 1    
    47   84   23 1    
    48   25   24 1    
    49   38   24 1    
    50   65   24 1    
    51   26   25 am   
    52   37   25 2    
    53   27   26 1    
    54   66   26 1    
    55   28   27 1    
    56   31   27 1    
    57   67   27 1    
    58   29   28 1    
    59   36   28 1    
    60   68   28 1    
    61   30   29 1    
    62   69   29 1    
    63   70   29 1    
    64   31   30 ar   
    65   35   30 ar   
    66   32   31 ar   
    67   33   32 ar   
    68   71   32 1    
    69   34   33 ar   
    70   72   33 1    
    71   35   34 ar   
    72   73   34 1    
    73   74   35 1    
    74   85   36 1    
    75   39   38 1    
    76   40   39 1    
    77   75   39 1    
    78   76   39 1    
    79   41   40 ar   
    80   45   40 ar   
    81   42   41 ar   
    82   77   41 1    
    83   43   42 ar   
    84   78   42 1    
    85   44   43 ar   
    86   79   43 1    
    87   45   44 ar   
    88   80   44 1    
    89   81   45 1    
@<TRIPOS>SUBSTRUCTURE
     1 5681100     1 GROUP   
@<TRIPOS>SET

