#    Name: 1PWM_1_CAVITY_N1_ALL.mol2
#    Modification time : Tue Mar 11 01:59:56 2014

@<TRIPOS>MOLECULE
1PWM_1_CAVITY_N1_ALL.mol2
   83     0     5     0     0
SMALL
NO_CHARGES


@<TRIPOS>ATOM
      1 O          21.8772   -9.8617    9.2272 O.2       2 ALA2        0.0000 
      2 OG         20.4229  -10.0413    8.9068 O.2       1 SER1        0.0000 
      3 CZ         24.2002  -10.4209   13.0405 C.ar      3 PHE5        0.0000 
      4 DU         22.8650   -9.5930   11.6151 H         5 CUB7        0.0000 
      5 CA         22.9840   -8.5855   10.5102 C.3       4 GLY6        0.0000 
      6 CZ         21.2916  -10.7800   12.3996 C.ar      3 PHE5        0.0000 
      7 DU         21.4106   -9.7725   11.2947 H         5 CUB7        0.0000 
      8 O          21.5297   -8.7651   10.1898 O.2       2 ALA2        0.0000 
      9 DU         19.8372  -10.9596   12.0791 H         5 CUB7        0.0000 
     10 OG         19.9563   -9.9521   10.9742 O.2       1 SER1        0.0000 
     11 OG         18.5020  -10.1316   10.6538 O.2       1 SER1        0.0000 
     12 CZ         16.9286  -11.3187   11.4382 C.ar      3 PHE5        0.0000 
     13 CZ         23.9718   -8.3167   12.8982 C.ar      3 PHE5        0.0000 
     14 CA         24.0909   -7.3093   11.7933 C.3       4 GLY6        0.0000 
     15 CZ         22.5175   -8.4963   12.5777 C.ar      3 PHE5        0.0000 
     16 O          22.6365   -7.4888   11.4728 O.2       2 ALA2        0.0000 
     17 CZ         20.9441   -9.6833   13.3621 C.ar      3 PHE5        0.0000 
     18 O          21.0631   -8.6758   12.2572 O.2       2 ALA2        0.0000 
     19 CZ         19.3707  -10.8704   14.1466 C.ar      3 PHE5        0.0000 
     20 CZ         19.4897   -9.8629   13.0417 C.ar      3 PHE5        0.0000 
     21 CA         19.6088   -8.8554   11.9368 C.3       4 GLY6        0.0000 
     22 DU         17.7973  -12.0574   14.9310 H         5 CUB7        0.0000 
     23 CZ         17.9163  -11.0499   13.8261 C.ar      3 PHE5        0.0000 
     24 CZ         18.0354  -10.0424   12.7212 C.ar      3 PHE5        0.0000 
     25 CZ         18.1545   -9.0350   11.6163 C.ar      3 PHE5        0.0000 
     26 CA         25.1977   -6.0330   13.0763 C.3       4 GLY6        0.0000 
     27 CA         25.3168   -5.0255   11.9714 C.3       4 GLY6        0.0000 
     28 CZ         23.6243   -7.2201   13.8607 C.ar      3 PHE5        0.0000 
     29 O          23.7434   -6.2126   12.7558 O.2       2 ALA2        0.0000 
     30 CZ         22.1700   -7.3996   13.5403 C.ar      3 PHE5        0.0000 
     31 O          22.2890   -6.3921   12.4354 O.2       2 ALA2        0.0000 
     32 O          20.7156   -7.5792   13.2198 O.2       2 ALA2        0.0000 
     33 CZ         18.7850  -11.7887   17.3189 C.ar      3 PHE5        0.0000 
     34 CZ         18.9041  -10.7812   16.2140 C.ar      3 PHE5        0.0000 
     35 CZ         19.0232   -9.7737   15.1091 C.ar      3 PHE5        0.0000 
     36 CZ         19.1422   -8.7662   14.0042 C.ar      3 PHE5        0.0000 
     37 CA         19.2613   -7.7587   12.8993 C.3       4 GLY6        0.0000 
     38 O          17.3307  -11.9682   16.9985 O.2       2 ALA2        0.0000 
     39 DU         17.4498  -10.9607   15.8936 H         5 CUB7        0.0000 
     40 CZ         17.5688   -9.9532   14.7887 C.ar      3 PHE5        0.0000 
     41 CZ         17.6879   -8.9457   13.6838 C.ar      3 PHE5        0.0000 
     42 DU         15.7573  -13.1552   17.7829 H         5 CUB7        0.0000 
     43 DU         15.8764  -12.1478   16.6780 H         5 CUB7        0.0000 
     44 CZ         15.9954  -11.1403   15.5731 C.ar      3 PHE5        0.0000 
     45 CZ         16.1145  -10.1328   14.4682 C.ar      3 PHE5        0.0000 
     46 CA         14.4220  -12.3273   16.3576 C.3       4 GLY6        0.0000 
     47 CZ         14.5411  -11.3198   15.2527 C.ar      3 PHE5        0.0000 
     48 O          20.3681   -6.4825   14.1824 O.2       2 ALA2        0.0000 
     49 CZ         18.5566   -9.6845   17.1766 C.ar      3 PHE5        0.0000 
     50 CZ         18.6757   -8.6770   16.0717 C.ar      3 PHE5        0.0000 
     51 CZ         18.7947   -7.6695   14.9668 C.ar      3 PHE5        0.0000 
     52 CA         18.9138   -6.6620   13.8619 C.3       4 GLY6        0.0000 
     53 O          17.1023   -9.8640   16.8561 O.2       2 ALA2        0.0000 
     54 DU         17.2213   -8.8565   15.7512 H         5 CUB7        0.0000 
     55 CA         17.3404   -7.8491   14.6463 C.3       4 GLY6        0.0000 
     56 O          15.4098  -12.0586   18.7455 O.2       2 ALA2        0.0000 
     57 O          15.5289  -11.0511   17.6406 O.2       2 ALA2        0.0000 
     58 DU         15.6479  -10.0436   16.5357 H         5 CUB7        0.0000 
     59 CZ         15.7670   -9.0361   15.4308 C.ar      3 PHE5        0.0000 
     60 CZ         15.8861   -8.0286   14.3259 C.ar      3 PHE5        0.0000 
     61 CA         14.0745  -11.2306   17.3201 C.3       4 GLY6        0.0000 
     62 CA         14.1936  -10.2231   16.2152 C.3       4 GLY6        0.0000 
     63 CZ         14.3127   -9.2156   15.1103 C.ar      3 PHE5        0.0000 
     64 CA         19.9016   -6.3933   16.2498 C.3       4 GLY6        0.0000 
     65 CZ         18.3282   -7.5803   17.0343 C.ar      3 PHE5        0.0000 
     66 CA         18.4473   -6.5728   15.9294 C.3       4 GLY6        0.0000 
     67 CZ         18.5663   -5.5653   14.8245 C.ar      3 PHE5        0.0000 
     68 CZ         16.7548   -8.7673   17.8187 C.ar      3 PHE5        0.0000 
     69 DU         16.8739   -7.7599   16.7138 H         5 CUB7        0.0000 
     70 CZ         16.9929   -6.7524   15.6089 C.ar      3 PHE5        0.0000 
     71 CZ         17.1120   -5.7449   14.5040 C.ar      3 PHE5        0.0000 
     72 O          15.1814   -9.9544   18.6031 O.2       2 ALA2        0.0000 
     73 CA         15.3004   -8.9469   17.4982 C.3       4 GLY6        0.0000 
     74 CZ         15.4195   -7.9394   16.3933 C.ar      3 PHE5        0.0000 
     75 CZ         15.5386   -6.9319   15.2885 C.ar      3 PHE5        0.0000 
     76 CZ         13.9652   -8.1190   16.0729 C.ar      3 PHE5        0.0000 
     77 CA         17.9807   -6.4836   17.9968 C.3       4 GLY6        0.0000 
     78 CZ         16.4073   -7.6706   18.7813 C.ar      3 PHE5        0.0000 
     79 DU         16.5264   -6.6632   17.6764 H         5 CUB7        0.0000 
     80 CZ         16.6454   -5.6557   16.5715 C.ar      3 PHE5        0.0000 
     81 CZ         14.9530   -7.8502   18.4608 C.ar      3 PHE5        0.0000 
     82 N          15.0720   -6.8427   17.3559 N.2       2 ALA2        0.0000 
     83 O          15.1911   -5.8352   16.2510 O.2       2 ALA2        0.0000 
@<TRIPOS>BOND
@<TRIPOS>SUBSTRUCTURE
     1 SER1        2 GROUP   
     2 ALA2        1 GROUP   
     3 PHE5        3 GROUP   
     4 GLY6        5 GROUP   
     5 CUB7        4 GROUP   
@<TRIPOS>SET

