#    Name: 1pwm_FID_1_INTS_M
#    Modification time : Mon Mar 24 22:22:06 2014

@<TRIPOS>MOLECULE
1pwm_FID_1_INTS_M
   39     0     9     0     0
SMALL
NO_CHARGES


@<TRIPOS>ATOM
      1 O          14.1360   -5.0740   18.2670 O.2       1 ALC1        0.0000 
      2 O          15.3650   -5.6880   18.3290 O.2       7 ALL1        0.0000 
      3 O          12.9070   -4.4600   18.2050 O.2       4 ALP1        0.0000 
      4 CA         18.2930   -8.2460   18.4120 C.3       3 GLC5        0.0000 
      5 CA         17.0240   -7.0630   17.3570 C.3       9 GLL5        0.0000 
      6 CA         19.5620   -9.4290   19.4670 C.3       6 GLP5        0.0000 
      7 CA         17.3045   -5.2340   18.6205 C.3       3 GLC5        0.0000 
      8 CA         17.5850   -3.4050   19.8840 C.3       6 GLP5        0.0000 
      9 CA         15.6090  -10.6860   19.8765 C.3       3 GLC5        0.0000 
     10 CA         14.6030  -11.1640   18.3540 C.3       9 GLL5        0.0000 
     11 CA         16.6150  -10.2080   21.3990 C.3       6 GLP5        0.0000 
     12 CA         13.8485  -10.0875   19.7990 C.3       3 GLC5        0.0000 
     13 CA         13.0940   -9.0110   21.2440 C.3       6 GLP5        0.0000 
     14 CA         13.5810  -10.7845   16.2035 C.3       3 GLC5        0.0000 
     15 CA         15.6910  -11.0090   16.2930 C.3       9 GLL5        0.0000 
     16 CA         11.4710  -10.5600   16.1140 C.3       6 GLP5        0.0000 
     17 CA         17.3740   -6.5175   13.2815 C.3       3 GLC5        0.0000 
     18 CA         18.0510   -6.9950   15.0590 C.3       9 GLL5        0.0000 
     19 CA         16.6970   -6.0400   11.5040 C.3       6 GLP5        0.0000 
     20 N          20.2190   -5.0370   12.9015 N.am      2 SEC2        0.0000 
     21 N          19.7260   -5.4950   14.2140 N.am      8 SEL2        0.0000 
     22 N          20.7120   -4.5790   11.5890 N.am      5 SEP2        0.0000 
     23 CA         19.3160   -7.4925   18.0940 C.3       3 GLC5        0.0000 
     24 CA         18.2370   -6.6220   16.5190 C.3       9 GLL5        0.0000 
     25 CA         20.3950   -8.3630   19.6690 C.3       6 GLP5        0.0000 
     26 CA         19.4590   -5.5415   17.2945 C.3       3 GLC5        0.0000 
     27 CA         20.6810   -4.4610   18.0700 C.3       6 GLP5        0.0000 
     28 N          14.8400   -4.8920   15.2530 N.am      2 SEC2        0.0000 
     29 N          15.2910   -5.9460   16.0510 N.am      8 SEL2        0.0000 
     30 N          14.3890   -3.8380   14.4550 N.am      5 SEP2        0.0000 
     31 N          14.9250   -5.6940   21.1905 N.am      2 SEC2        0.0000 
     32 N          16.0360   -5.9400   20.5350 N.am      8 SEL2        0.0000 
     33 N          13.8140   -5.4480   21.8460 N.am      5 SEP2        0.0000 
     34 CA         13.3954   -9.6861   17.9931 C.3       3 GLC5        0.0000 
     35 CA         11.6880   -8.8700   17.9660 C.3       6 GLP5        0.0000 
     36 CA         17.4560   -4.9328   15.0685 C.3       3 GLC5        0.0000 
     37 CA         16.7680   -3.0570   14.3480 C.3       6 GLP5        0.0000 
     38 CA         19.9885   -7.8928   16.0510 C.3       3 GLC5        0.0000 
     39 CA         21.8330   -8.9770   16.3130 C.3       6 GLP5        0.0000 
@<TRIPOS>BOND
@<TRIPOS>SUBSTRUCTURE
     1 ALC1        1 GROUP        1 X    ALC  0     ROOT ALC X 1
     2 SEC2       20 GROUP        1 X    SEC  0     **** SEC X 2
     3 GLC5        4 GROUP        1 X    GLC  0     **** GLC X 6
     4 ALP1        3 GROUP        1 Y    ALP  0     ROOT ALP Y 8
     5 SEP2       22 GROUP        1 Y    SEP  0     **** SEP Y 9
     6 GLP5        6 GROUP        1 Y    GLP  0     **** GLP Y 13
     7 ALL1        2 GROUP        1 Z    ALL  0     ROOT ALL Z 15
     8 SEL2       21 GROUP        1 Z    SEL  0     **** SEL Z 16
     9 GLL5        5 GROUP        1 Z    GLL  0     **** GLL Z 20
@<TRIPOS>SET

