#    Name: 1cbs_REA_1_INTS_M
#    Modification time : Mon Mar 24 20:29:20 2014

@<TRIPOS>MOLECULE
1cbs_REA_1_INTS_M
   72     0     9     0     0
SMALL
NO_CHARGES


@<TRIPOS>ATOM
      1 CA         19.5100   27.2665   13.7985 C.3       3 GLC5        0.0000 
      2 CA         19.5550   28.4790   15.4880 C.3       9 GLL5        0.0000 
      3 CA         19.4650   26.0540   12.1090 C.3       6 GLP5        0.0000 
      4 CA         24.1260   28.8705   18.8505 C.3       3 GLC5        0.0000 
      5 CA         22.2420   27.8510   18.2970 C.3       9 GLL5        0.0000 
      6 CA         26.0100   29.8900   19.4040 C.3       6 GLP5        0.0000 
      7 CA         20.2455   24.4250   20.9875 C.3       3 GLC5        0.0000 
      8 CA         22.1590   25.5360   21.1310 C.3       9 GLL5        0.0000 
      9 CA         18.3320   23.3140   20.8440 C.3       6 GLP5        0.0000 
     10 CA         21.0030   20.8755   24.0035 C.3       3 GLC5        0.0000 
     11 CA         22.1350   22.4730   24.8340 C.3       9 GLL5        0.0000 
     12 CA         19.8710   19.2780   23.1730 C.3       6 GLP5        0.0000 
     13 CA         24.1240   30.3135   18.6760 C.3       3 GLC5        0.0000 
     14 CA         22.2380   30.7370   17.9480 C.3       9 GLL5        0.0000 
     15 CA         21.3795   30.3490   19.7415 C.3       3 GLC5        0.0000 
     16 CA         20.5210   29.9610   21.5350 C.3       6 GLP5        0.0000 
     17 CA         25.1815   29.7055   15.3305 C.3       3 GLC5        0.0000 
     18 CA         23.2920   29.6200   15.9480 C.3       9 GLL5        0.0000 
     19 CA         27.0710   29.7910   14.7130 C.3       6 GLP5        0.0000 
     20 CA         23.5410   27.6290   15.9940 C.3       3 GLC5        0.0000 
     21 CA         23.7900   25.6380   16.0400 C.3       6 GLP5        0.0000 
     22 CA         24.6510   29.7550   17.6760 C.3       3 GLC5        0.0000 
     23 CA         19.5515   24.5955   16.7300 C.3       3 GLC5        0.0000 
     24 CA         19.7910   26.4490   16.9470 C.3       9 GLL5        0.0000 
     25 CA         19.3120   22.7420   16.5130 C.3       6 GLP5        0.0000 
     26 CA         18.6035   25.8715   15.1675 C.3       3 GLC5        0.0000 
     27 CA         17.4160   25.2940   13.3880 C.3       6 GLP5        0.0000 
     28 CA         21.7905   26.0435   16.4935 C.3       3 GLC5        0.0000 
     29 CA         17.8620   26.5880   17.3680 C.3       3 GLC5        0.0000 
     30 CA         15.9330   26.7270   17.7890 C.3       6 GLP5        0.0000 
     31 CA         24.7260   26.3855   18.3260 C.3       3 GLC5        0.0000 
     32 CA         24.1810   26.8410   20.3850 C.3       9 GLL5        0.0000 
     33 CA         25.2710   25.9300   16.2670 C.3       6 GLP5        0.0000 
     34 CA         26.3490   27.1140   19.9685 C.3       3 GLC5        0.0000 
     35 CA         28.5170   27.3870   19.5520 C.3       6 GLP5        0.0000 
     36 CA         25.0665   24.8620   20.5645 C.3       3 GLC5        0.0000 
     37 CA         25.9520   22.8830   20.7440 C.3       6 GLP5        0.0000 
     38 CA         25.4170   26.7960   22.2170 C.3       3 GLC5        0.0000 
     39 CA         26.6530   26.7510   24.0490 C.3       6 GLP5        0.0000 
     40 CA         25.0955   28.3655   19.8945 C.3       3 GLC5        0.0000 
     41 CA         23.5090   28.7960   21.2295 C.3       3 GLC5        0.0000 
     42 CA         22.8370   30.7510   22.0740 C.3       6 GLP5        0.0000 
     43 CA         25.1275   23.3150   22.6165 C.3       3 GLC5        0.0000 
     44 CA         24.3030   23.7470   24.4890 C.3       9 GLL5        0.0000 
     45 CA         25.8860   23.6535   25.5690 C.3       3 GLC5        0.0000 
     46 CA         27.4690   23.5600   26.6490 C.3       6 GLP5        0.0000 
     47 CA         25.4780   25.2490   24.2690 C.3       3 GLC5        0.0000 
     48 NZ         24.5190   20.7905   24.9755 N.4       2 LYC4        0.0000 
     49 NZ         23.6400   21.0750   25.9780 N.4       8 LYL4        0.0000 
     50 NZ         25.0300   19.3770   23.3950 N.4       5 LYP4        0.0000 
     51 N          23.8900   19.8275   24.9810 N.am      1 SEC2        0.0000 
     52 N          23.6400   21.0750   25.9780 N.am      7 SEL2        0.0000 
     53 N          24.1400   18.5800   23.9840 N.am      4 SEP2        0.0000 
     54 N          24.5190   20.7905   24.9755 N.am      1 SEC2        0.0000 
     55 N          25.3980   20.5060   23.9730 N.am      4 SEP2        0.0000 
     56 N          23.8155   20.0785   26.7725 N.am      1 SEC2        0.0000 
     57 N          23.9910   19.0820   27.5670 N.am      4 SEP2        0.0000 
     58 CA         21.4425   30.5768   13.5047 C.3       3 GLC5        0.0000 
     59 CA         20.9210   30.5240   15.8410 C.3       9 GLL5        0.0000 
     60 CA         22.3020   31.0740   11.6650 C.3       6 GLP5        0.0000 
     61 CA         22.3485   26.8835   16.4712 C.3       3 GLC5        0.0000 
     62 CA         20.3890   27.8120   16.5870 C.3       9 GLL5        0.0000 
     63 CA         23.0850   26.2810   17.7836 C.3       3 GLC5        0.0000 
     64 CA         21.4505   28.4425   20.5311 C.3       3 GLC5        0.0000 
     65 CA         24.2540   23.6790   21.6780 C.3       3 GLC5        0.0000 
     66 CA         22.8750   24.9240   22.2340 C.3       9 GLL5        0.0000 
     67 CA         22.3880   23.3170   20.9026 C.3       3 GLC5        0.0000 
     68 CA         22.2370   24.0260   22.9900 C.3       9 GLL5        0.0000 
     69 CA         22.3990   22.0060   19.4690 C.3       6 GLP5        0.0000 
     70 CA         23.4521   24.1560   26.1786 C.3       3 GLC5        0.0000 
     71 CA         22.8560   23.3770   24.1250 C.3       9 GLL5        0.0000 
     72 CA         23.5050   24.9760   27.8730 C.3       6 GLP5        0.0000 
@<TRIPOS>BOND
@<TRIPOS>SUBSTRUCTURE
     1 SEC2       51 GROUP        1 X    SEC  0     ROOT SEC X 2
     2 LYC4       48 GROUP        1 X    LYC  0     **** LYC X 4
     3 GLC5        1 GROUP        1 X    GLC  0     **** GLC X 6
     4 SEP2       53 GROUP        1 Y    SEP  0     ROOT SEP Y 9
     5 LYP4       50 GROUP        1 Y    LYP  0     **** LYP Y 11
     6 GLP5        3 GROUP        1 Y    GLP  0     **** GLP Y 13
     7 SEL2       52 GROUP        1 Z    SEL  0     ROOT SEL Z 16
     8 LYL4       49 GROUP        1 Z    LYL  0     **** LYL Z 18
     9 GLL5        2 GROUP        1 Z    GLL  0     **** GLL Z 20
@<TRIPOS>SET

