#    Name: 1cbs_REA_1_ligand
#    Modification time : Mon Mar 24 20:29:20 2014

@<TRIPOS>MOLECULE
1cbs_REA_1_ligand
   49    49     1     0     0
SMALL
NO_CHARGES


@<TRIPOS>ATOM
      1 C1         21.9720   29.8310   16.7390 C.3       1 REA200      0.0000 
      2 C2         20.9210   30.5240   15.8410 C.3       1 REA200      0.0000 
      3 C3         20.2450   29.6350   14.8480 C.3       1 REA200      0.0000 
      4 C4         19.5550   28.4790   15.4880 C.3       1 REA200      0.0000 
      5 C5         20.3890   27.8120   16.5870 C.2       1 REA200      0.0000 
      6 C6         21.4250   28.4460   17.2180 C.2       1 REA200      0.0000 
      7 C7         22.2420   27.8510   18.2970 C.2       1 REA200      0.0000 
      8 C8         21.8680   26.9770   19.2400 C.2       1 REA200      0.0000 
      9 C9         22.7050   26.4340   20.2860 C.2       1 REA200      0.0000 
     10 C10        22.1590   25.5360   21.1310 C.2       1 REA200      0.0000 
     11 C11        22.8750   24.9240   22.2340 C.2       1 REA200      0.0000 
     12 C12        22.2370   24.0260   22.9900 C.2       1 REA200      0.0000 
     13 C13        22.8560   23.3770   24.1250 C.2       1 REA200      0.0000 
     14 C14        22.1350   22.4730   24.8340 C.2       1 REA200      0.0000 
     15 C15        22.5630   21.7100   26.0160 C.2       1 REA200      0.0000 
     16 C16        22.2380   30.7370   17.9480 C.3       1 REA200      0.0000 
     17 C17        23.2920   29.6200   15.9480 C.3       1 REA200      0.0000 
     18 C18        19.7910   26.4490   16.9470 C.3       1 REA200      0.0000 
     19 C19        24.1810   26.8410   20.3850 C.3       1 REA200      0.0000 
     20 C20        24.3030   23.7470   24.4890 C.3       1 REA200      0.0000 
     21 O1         23.6400   21.0750   25.9780 O.co2     1 REA200      0.0000 
     22 O2         21.8400   21.7120   27.0370 O.co2     1 REA200      0.0000 
     23 H          21.4241   31.3619   15.3149 H         1 REA200      0.0000 
     24 H          20.1638   30.9917   16.5042 H         1 REA200      0.0000 
     25 H          20.9922   29.2620   14.1253 H         1 REA200      0.0000 
     26 H          19.5122   30.2256   14.2702 H         1 REA200      0.0000 
     27 H          19.3119   27.7181   14.7280 H         1 REA200      0.0000 
     28 H          18.6001   28.8084   15.9299 H         1 REA200      0.0000 
     29 H          23.2699   28.1990   18.2800 H         1 REA200      0.0000 
     30 H          20.8551   26.6198   19.2553 H         1 REA200      0.0000 
     31 H          21.1556   25.2341   21.0179 H         1 REA200      0.0000 
     32 H          23.8415   25.2080   22.3855 H         1 REA200      0.0000 
     33 H          21.2455   23.7489   22.7903 H         1 REA200      0.0000 
     34 H          21.1241   22.2594   24.5283 H         1 REA200      0.0000 
     35 H          22.9122   30.3383   18.5697 H         1 REA200      0.0000 
     36 H          22.5876   31.6322   17.6715 H         1 REA200      0.0000 
     37 H          21.4074   30.8986   18.4809 H         1 REA200      0.0000 
     38 H          23.6807   30.4870   15.6362 H         1 REA200      0.0000 
     39 H          23.9901   29.1689   16.5040 H         1 REA200      0.0000 
     40 H          23.1520   29.0528   15.1364 H         1 REA200      0.0000 
     41 H          19.7737   25.8316   16.1605 H         1 REA200      0.0000 
     42 H          20.3140   25.9923   17.6667 H         1 REA200      0.0000 
     43 H          18.8502   26.5313   17.2757 H         1 REA200      0.0000 
     44 H          24.6393   26.3923   21.1522 H         1 REA200      0.0000 
     45 H          24.6891   26.5996   19.5582 H         1 REA200      0.0000 
     46 H          24.2864   27.8267   20.5164 H         1 REA200      0.0000 
     47 H          24.9363   23.5494   23.7408 H         1 REA200      0.0000 
     48 H          24.3953   24.7197   24.7019 H         1 REA200      0.0000 
     49 H          24.6262   23.2401   25.2881 H         1 REA200      0.0000 
@<TRIPOS>BOND
     1    2    1 1    
     2    6    1 1    
     3   16    1 1    
     4   17    1 1    
     5    3    2 1    
     6   23    2 1    
     7   24    2 1    
     8    4    3 1    
     9   25    3 1    
    10   26    3 1    
    11    5    4 1    
    12   27    4 1    
    13   28    4 1    
    14    6    5 2    
    15   18    5 1    
    16    7    6 1    
    17    8    7 2    
    18   29    7 1    
    19    9    8 1    
    20   30    8 1    
    21   10    9 2    
    22   19    9 1    
    23   11   10 1    
    24   31   10 1    
    25   12   11 2    
    26   32   11 1    
    27   13   12 1    
    28   33   12 1    
    29   14   13 2    
    30   20   13 1    
    31   15   14 1    
    32   34   14 1    
    33   21   15 ar   
    34   22   15 ar   
    35   35   16 1    
    36   36   16 1    
    37   37   16 1    
    38   38   17 1    
    39   39   17 1    
    40   40   17 1    
    41   41   18 1    
    42   42   18 1    
    43   43   18 1    
    44   44   19 1    
    45   45   19 1    
    46   46   19 1    
    47   47   20 1    
    48   48   20 1    
    49   49   20 1    
@<TRIPOS>SUBSTRUCTURE
     1 REA200      1 GROUP   
@<TRIPOS>SET

