#    Name: 3mee_T27_1_INTS_M
#    Modification time : Mon Mar 24 23:06:59 2014

@<TRIPOS>MOLECULE
3mee_T27_1_INTS_M
   91     0     9     0     0
SMALL
NO_CHARGES


@<TRIPOS>ATOM
      1 N           9.5930   16.2950   12.1085 N.am      2 SEC2        0.0000 
      2 N          10.8860   15.6060   12.7320 N.am      8 SEL2        0.0000 
      3 N           8.3000   16.9840   11.4850 N.am      5 SEP2        0.0000 
      4 CA          9.8785   15.6955   18.2400 C.3       3 GLC5        0.0000 
      5 CA         11.5640   15.0820   19.5120 C.3       9 GLL5        0.0000 
      6 CA          8.1930   16.3090   16.9680 C.3       6 GLP5        0.0000 
      7 CA         11.6065   10.2410   16.8640 C.3       3 GLC5        0.0000 
      8 CA         12.8020   12.0820   16.4820 C.3       9 GLL5        0.0000 
      9 CA         10.4110    8.4000   17.2460 C.3       6 GLP5        0.0000 
     10 CA         13.5600   12.4910   14.9030 C.3       3 GLC5        0.0000 
     11 CA         14.3180   12.9000   13.3240 C.3       6 GLP5        0.0000 
     12 CA         14.1845   10.4040   16.4070 C.3       3 GLC5        0.0000 
     13 CA         15.5670    8.7260   16.3320 C.3       6 GLP5        0.0000 
     14 CA         12.9555   10.6235   14.9850 C.3       3 GLC5        0.0000 
     15 CA         13.1090    9.1650   13.4880 C.3       6 GLP5        0.0000 
     16 CA         12.4370   18.4780   19.1215 C.3       3 GLC5        0.0000 
     17 CA         12.5070   17.0340   18.1710 C.3       9 GLL5        0.0000 
     18 CA         12.3670   19.9220   20.0720 C.3       6 GLP5        0.0000 
     19 CA         13.9180   16.5770   19.1800 C.3       3 GLC5        0.0000 
     20 CA         15.3290   16.1200   20.1890 C.3       6 GLP5        0.0000 
     21 CA         12.9205   18.6555   16.7265 C.3       3 GLC5        0.0000 
     22 CA         13.3340   20.2770   15.2820 C.3       6 GLP5        0.0000 
     23 CA         11.0825   17.6585   11.5730 C.3       3 GLC5        0.0000 
     24 CA         12.1530   16.2920   12.8070 C.3       9 GLL5        0.0000 
     25 CA         10.0120   19.0250   10.3390 C.3       6 GLP5        0.0000 
     26 CA         13.7505   15.4050   12.2690 C.3       3 GLC5        0.0000 
     27 CA         15.3480   14.5180   11.7310 C.3       6 GLP5        0.0000 
     28 CA         13.1705   18.2040   14.6165 C.3       3 GLC5        0.0000 
     29 CA         13.0070   16.1310   13.9510 C.3       9 GLL5        0.0000 
     30 CA          9.1725   15.9270   14.2100 C.3       3 GLC5        0.0000 
     31 CA         10.4550   14.7380   13.7900 C.3       9 GLL5        0.0000 
     32 CA          7.8900   17.1160   14.6300 C.3       6 GLP5        0.0000 
     33 CA         10.3395   13.3375   12.2860 C.3       3 GLC5        0.0000 
     34 CA         10.2240   11.9370   10.7820 C.3       6 GLP5        0.0000 
     35 CA         12.3865   13.8190   13.5570 C.3       3 GLC5        0.0000 
     36 O           8.5740   14.1610   12.5415 O.2       1 ALC1        0.0000 
     37 O           9.2310   14.0560   13.6990 O.2       7 ALL1        0.0000 
     38 O           7.9170   14.2660   11.3840 O.2       4 ALP1        0.0000 
     39 CA          9.4240   12.5500   12.6930 C.3       3 GLC5        0.0000 
     40 CA          8.6240   13.1630   14.6040 C.3       9 GLL5        0.0000 
     41 CA          7.9040    9.9980   15.1080 C.3       3 GLC5        0.0000 
     42 CA          6.6830   11.6460   15.1180 C.3       9 GLL5        0.0000 
     43 CA          9.1250    8.3500   15.0980 C.3       6 GLP5        0.0000 
     44 CA          7.8850    9.3315   16.1760 C.3       3 GLC5        0.0000 
     45 CA          6.6450   10.3130   17.2540 C.3       9 GLL5        0.0000 
     46 CA          7.2535    9.2975   19.0520 C.3       3 GLC5        0.0000 
     47 CA          7.8620    8.2820   20.8500 C.3       6 GLP5        0.0000 
     48 CA          4.6950    9.8685   17.3670 C.3       3 GLC5        0.0000 
     49 CA          2.7450    9.4240   17.4800 C.3       6 GLP5        0.0000 
     50 CA         11.6415   11.0485   21.7150 C.3       3 GLC5        0.0000 
     51 CA         10.3360   11.8730   21.0880 C.3       9 GLL5        0.0000 
     52 CA         12.9470   10.2240   22.3420 C.3       6 GLP5        0.0000 
     53 CA          9.0990   10.0775   20.9690 C.3       3 GLC5        0.0000 
     54 CA         12.3105   12.7560   21.5155 C.3       3 GLC5        0.0000 
     55 CA         10.5850   13.1880   20.9250 C.3       9 GLL5        0.0000 
     56 CA         14.0360   12.3240   22.1060 C.3       6 GLP5        0.0000 
     57 CA          9.9730   14.5575   22.3980 C.3       3 GLC5        0.0000 
     58 CA          9.3610   15.9270   23.8710 C.3       6 GLP5        0.0000 
     59 CA         11.1490   10.9660   22.9645 C.3       3 GLC5        0.0000 
     60 CA          9.6860   11.3950   22.2750 C.3       9 GLL5        0.0000 
     61 CA         12.6120   10.5370   23.6540 C.3       6 GLP5        0.0000 
     62 CA          8.4645   10.1430   22.7330 C.3       3 GLC5        0.0000 
     63 CA          7.2430    8.8910   23.1910 C.3       6 GLP5        0.0000 
     64 CA          8.9955   12.5780   23.5780 C.3       3 GLC5        0.0000 
     65 CA          8.3050   13.7610   24.8810 C.3       6 GLP5        0.0000 
     66 CA          7.8405   12.6075   22.0230 C.3       3 GLC5        0.0000 
     67 CA          5.9950   13.8200   21.7710 C.3       6 GLP5        0.0000 
     68 CA         14.0638   14.4852   18.2383 C.3       3 GLC5        0.0000 
     69 CA         12.3990   13.1570   17.4890 C.3       9 GLL5        0.0000 
     70 CA         15.5920   15.0940   19.0880 C.3       6 GLP5        0.0000 
     71 CA         13.2747   11.7118   18.5463 C.3       3 GLC5        0.0000 
     72 CA         13.9490   10.8040   20.1070 C.3       6 GLP5        0.0000 
     73 CA         12.7322   12.0060   19.6393 C.3       3 GLC5        0.0000 
     74 CA         11.7290   12.7320   18.6610 C.3       9 GLL5        0.0000 
     75 CA         13.7482   15.2045   19.0038 C.3       3 GLC5        0.0000 
     76 CA         11.0615   17.1570   17.1185 C.3       3 GLC5        0.0000 
     77 CA         12.2450   15.5480   18.3270 C.3       9 GLL5        0.0000 
     78 CA          9.7470   18.0230   15.9880 C.3       6 GLP5        0.0000 
     79 CA         13.5515   14.3003   13.8987 C.3       3 GLC5        0.0000 
     80 CA         11.1593   16.8819   15.0877 C.3       3 GLC5        0.0000 
     81 CA         12.5630   15.2700   14.9960 C.3       9 GLL5        0.0000 
     82 CA          6.1790   11.4410   18.4393 C.3       3 GLC5        0.0000 
     83 CA          7.2990   11.2590   16.3710 C.3       9 GLL5        0.0000 
     84 CA          5.3860   12.0960   20.0660 C.3       6 GLP5        0.0000 
     85 CA          8.5560   14.6330   16.1020 C.3       3 GLC5        0.0000 
     86 CA          8.8485   10.2484   15.6555 C.3       3 GLC5        0.0000 
     87 CA          9.2140   12.7510   15.8680 C.3       9 GLL5        0.0000 
     88 CA          7.9365   11.0575   13.1535 C.3       3 GLC5        0.0000 
     89 CA          8.8550    9.9990   11.6280 C.3       6 GLP5        0.0000 
     90 CA          5.7245    9.9279   15.3521 C.3       3 GLC5        0.0000 
     91 CA          4.6310    8.9730   14.2050 C.3       6 GLP5        0.0000 
@<TRIPOS>BOND
@<TRIPOS>SUBSTRUCTURE
     1 ALC1       36 GROUP        1 X    ALC  0     ROOT ALC X 1
     2 SEC2        1 GROUP        1 X    SEC  0     **** SEC X 2
     3 GLC5        4 GROUP        1 X    GLC  0     **** GLC X 6
     4 ALP1       38 GROUP        1 Y    ALP  0     ROOT ALP Y 8
     5 SEP2        3 GROUP        1 Y    SEP  0     **** SEP Y 9
     6 GLP5        6 GROUP        1 Y    GLP  0     **** GLP Y 13
     7 ALL1       37 GROUP        1 Z    ALL  0     ROOT ALL Z 15
     8 SEL2        2 GROUP        1 Z    SEL  0     **** SEL Z 16
     9 GLL5        5 GROUP        1 Z    GLL  0     **** GLL Z 20
@<TRIPOS>SET

