#    Name: 3mee_T27_1_ligand
#    Modification time : Mon Mar 24 23:07:00 2014

@<TRIPOS>MOLECULE
3mee_T27_1_ligand
   46    48     1     0     0
SMALL
NO_CHARGES


@<TRIPOS>ATOM
      1 C1         12.3990   13.1570   17.4890 C.ar      1 T27561      0.0000 
      2 N2         10.8860   15.6060   12.7320 N.ar      1 T27561      0.0000 
      3 C3         11.3020   13.6840   19.6820 C.ar      1 T27561      0.0000 
      4 C4         11.5640   15.0820   19.5120 C.ar      1 T27561      0.0000 
      5 C5         12.2450   15.5480   18.3270 C.ar      1 T27561      0.0000 
      6 C6         12.6720   14.5960   17.2880 C.ar      1 T27561      0.0000 
      7 C7         12.8020   12.0820   16.4820 C.3       1 T27561      0.0000 
      8 C2         11.7290   12.7320   18.6610 C.ar      1 T27561      0.0000 
      9 C8         12.5070   17.0340   18.1710 C.3       1 T27561      0.0000 
     10 N1         13.3170   15.0540   16.1420 N.pl3     1 T27561      0.0000 
     11 C9         12.1530   16.2920   12.8070 C.ar      1 T27561      0.0000 
     12 C10        13.0070   16.1310   13.9510 C.ar      1 T27561      0.0000 
     13 C11        12.5630   15.2700   14.9960 C.ar      1 T27561      0.0000 
     14 N3         11.3110   14.5990   14.8970 N.ar      1 T27561      0.0000 
     15 C12        10.4550   14.7380   13.7900 C.ar      1 T27561      0.0000 
     16 N4          9.2310   14.0560   13.6990 N.pl3     1 T27561      0.0000 
     17 C13         7.2990   11.2590   16.3710 C.ar      1 T27561      0.0000 
     18 C14         8.5610   11.8260   16.7450 C.ar      1 T27561      0.0000 
     19 C15         9.2140   12.7510   15.8680 C.ar      1 T27561      0.0000 
     20 C16         8.6240   13.1630   14.6040 C.ar      1 T27561      0.0000 
     21 C17         7.3530   12.5860   14.2400 C.ar      1 T27561      0.0000 
     22 C18         6.6830   11.6460   15.1180 C.ar      1 T27561      0.0000 
     23 N5          6.1030    9.5480   17.9500 N.1       1 T27561      0.0000 
     24 C19         6.6450   10.3130   17.2540 C.1       1 T27561      0.0000 
     25 C20        10.3360   11.8730   21.0880 C.2       1 T27561      0.0000 
     26 C21        10.5850   13.1880   20.9250 C.2       1 T27561      0.0000 
     27 N6          9.2000   11.0020   23.2500 N.1       1 T27561      0.0000 
     28 C22         9.6860   11.3950   22.2750 C.1       1 T27561      0.0000 
     29 H          11.2744   15.7460   20.2182 H         1 T27561      0.0000 
     30 H          11.5307   11.7397   18.8137 H         1 T27561      0.0000 
     31 H          14.3208   15.2265   16.1460 H         1 T27561      0.0000 
     32 H          12.4421   16.8950   12.0410 H         1 T27561      0.0000 
     33 H          13.8824   16.6094   14.0069 H         1 T27561      0.0000 
     34 H           8.6591   14.2463   12.7848 H         1 T27561      0.0000 
     35 H           8.9896   11.5730   17.6272 H         1 T27561      0.0000 
     36 H          10.1257   13.1400   16.1308 H         1 T27561      0.0000 
     37 H           6.9184   12.8395   13.3570 H         1 T27561      0.0000 
     38 H           5.7879   11.2619   14.8557 H         1 T27561      0.0000 
     39 H          10.6000   11.1737   20.3757 H         1 T27561      0.0000 
     40 H          10.3215   13.9099   21.5944 H         1 T27561      0.0000 
     41 H          13.7910   12.0623   16.3356 H         1 T27561      0.0000 
     42 H          12.5325   11.1683   16.7863 H         1 T27561      0.0000 
     43 H          12.3765   12.2310   15.5894 H         1 T27561      0.0000 
     44 H          13.0723   17.3915   18.9144 H         1 T27561      0.0000 
     45 H          12.9830   17.2394   17.3159 H         1 T27561      0.0000 
     46 H          11.6581   17.5625   18.1681 H         1 T27561      0.0000 
@<TRIPOS>BOND
     1    6    1 ar   
     2    7    1 1    
     3    8    1 ar   
     4   11    2 ar   
     5   15    2 ar   
     6    4    3 ar   
     7    8    3 ar   
     8   26    3 1    
     9    5    4 ar   
    10   29    4 1    
    11    6    5 ar   
    12    9    5 1    
    13   10    6 1    
    14   41    7 1    
    15   42    7 1    
    16   43    7 1    
    17   30    8 1    
    18   44    9 1    
    19   45    9 1    
    20   46    9 1    
    21   13   10 1    
    22   31   10 1    
    23   12   11 ar   
    24   32   11 1    
    25   13   12 ar   
    26   33   12 1    
    27   14   13 ar   
    28   15   14 ar   
    29   16   15 1    
    30   20   16 1    
    31   34   16 1    
    32   18   17 ar   
    33   22   17 ar   
    34   24   17 1    
    35   19   18 ar   
    36   35   18 1    
    37   20   19 ar   
    38   36   19 1    
    39   21   20 ar   
    40   22   21 ar   
    41   37   21 1    
    42   38   22 1    
    43   24   23 3    
    44   26   25 2    
    45   28   25 1    
    46   39   25 1    
    47   40   26 1    
    48   28   27 3    
@<TRIPOS>SUBSTRUCTURE
     1 T27561      1 GROUP   
@<TRIPOS>SET

