#    Name: 3ql3_FOL_1_INTS_M
#    Modification time : Mon Apr  7 19:40:33 2014

@<TRIPOS>MOLECULE
3ql3_FOL_1_INTS_M
   54     0    12     0     0
SMALL
NO_CHARGES


@<TRIPOS>ATOM
      1 O           2.5990   -7.9300  -12.4530 O.2       1 ALC1        0.0000 
      2 O           3.5180   -6.7930  -12.5750 O.2       9 ALL1        0.0000 
      3 O           1.6800   -9.0670  -12.3310 O.2       5 ALP1        0.0000 
      4 O           4.6155   -7.6140  -13.2035 O.2       1 ALC1        0.0000 
      5 O           5.7130   -8.4350  -13.8320 O.2       5 ALP1        0.0000 
      6 CA          0.3095   -2.2000  -12.4650 C.3       4 GLC5        0.0000 
      7 CA          2.0400   -3.1120  -11.5600 C.3      12 GLL5        0.0000 
      8 CA         -1.4210   -1.2880  -13.3700 C.3       8 GLP5        0.0000 
      9 CA          0.4880   -1.0430  -12.2800 C.3       4 GLC5        0.0000 
     10 CA          2.3970   -0.7980  -11.1900 C.3      12 GLL5        0.0000 
     11 CA          5.4095   -0.2485  -10.8705 C.3       4 GLC5        0.0000 
     12 CA          3.7180   -0.9700  -11.5380 C.3      12 GLL5        0.0000 
     13 CA          7.1010    0.4730  -10.2030 C.3       8 GLP5        0.0000 
     14 CA          4.4095   -3.6775  -13.7035 C.3       4 GLC5        0.0000 
     15 CA          3.3920   -3.2640  -11.8900 C.3      12 GLL5        0.0000 
     16 CA          5.4270   -4.0910  -15.5170 C.3       8 GLP5        0.0000 
     17 CA          2.5280    2.4880  -10.7850 C.3       4 GLC5        0.0000 
     18 CA          1.9410    0.5240  -10.5880 C.3      12 GLL5        0.0000 
     19 CA          3.1150    4.4520  -10.9820 C.3       8 GLP5        0.0000 
     20 CA          2.0730    1.8830   -9.0745 C.3       4 GLC5        0.0000 
     21 CA          2.2050    3.2420   -7.5610 C.3       8 GLP5        0.0000 
     22 CA          2.4700    1.1405  -12.2600 C.3       4 GLC5        0.0000 
     23 CA          2.9990    1.7570  -13.9320 C.3       8 GLP5        0.0000 
     24 CA          1.8240    1.2480   -7.8195 C.3       4 GLC5        0.0000 
     25 CA          1.4430   -0.7460   -8.0780 C.3      12 GLL5        0.0000 
     26 CA          1.5230   -1.5100   -3.2605 C.3       4 GLC5        0.0000 
     27 CA          0.4700   -3.3290   -3.0470 C.3      12 GLL5        0.0000 
     28 CA          2.5760    0.3090   -3.4740 C.3       8 GLP5        0.0000 
     29 CA         -0.7260   -6.5415   -5.0010 C.3       4 GLC5        0.0000 
     30 CA         -0.0460   -5.8950   -3.1520 C.3      12 GLL5        0.0000 
     31 CA         -1.4060   -7.1880   -6.8500 C.3       8 GLP5        0.0000 
     32 CA          1.8105   -6.6745   -3.1150 C.3       4 GLC5        0.0000 
     33 CA          3.6670   -7.4540   -3.0780 C.3       8 GLP5        0.0000 
     34 NZ          3.7335   -3.3075   -2.2315 N.4       3 LYC4        0.0000 
     35 NZ          2.7470   -3.8240   -3.5140 N.4      11 LYL4        0.0000 
     36 NZ          5.6530   -2.7090   -1.8710 N.4       7 LYP4        0.0000 
     37 N           4.1020   -3.5230   -3.2975 N.am      2 SEC2        0.0000 
     38 N           2.7470   -3.8240   -3.5140 N.am     10 SEL2        0.0000 
     39 N           5.4570   -3.2220   -3.0810 N.am      6 SEP2        0.0000 
     40 N           3.7335   -3.3075   -2.2315 N.am      2 SEC2        0.0000 
     41 N           4.7200   -2.7910   -0.9490 N.am      6 SEP2        0.0000 
     42 NZ          3.1795   -5.0850   -0.2070 N.4       3 LYC4        0.0000 
     43 NZ          2.1950   -3.8730   -1.4340 N.4      11 LYL4        0.0000 
     44 NZ          4.1640   -6.2970    1.0200 N.4       7 LYP4        0.0000 
     45 N           3.4575   -3.3320   -1.1915 N.am      2 SEC2        0.0000 
     46 N           2.1950   -3.8730   -1.4340 N.am     10 SEL2        0.0000 
     47 CA          1.5668   -0.5155   -5.0278 C.3       4 GLC5        0.0000 
     48 CA         -0.0810   -1.3250   -6.2950 C.3      12 GLL5        0.0000 
     49 CA          0.2309    1.5475   -7.8464 C.3       4 GLC5        0.0000 
     50 CA          0.4420   -0.0550   -8.7470 C.3      12 GLL5        0.0000 
     51 CA          0.7290    3.2910   -7.5280 C.3       8 GLP5        0.0000 
     52 CA         -0.4105   -3.0471   -7.3115 C.3       4 GLC5        0.0000 
     53 CA          1.1960   -1.3550   -6.8680 C.3      12 GLL5        0.0000 
     54 CA         -1.1230   -4.9230   -7.8720 C.3       8 GLP5        0.0000 
@<TRIPOS>BOND
@<TRIPOS>SUBSTRUCTURE
     1 ALC1        1 GROUP        1 X    ALC  0     ROOT ALC X 1
     2 SEC2       37 GROUP        1 X    SEC  0     **** SEC X 2
     3 LYC4       34 GROUP        1 X    LYC  0     **** LYC X 4
     4 GLC5        6 GROUP        1 X    GLC  0     **** GLC X 6
     5 ALP1        3 GROUP        1 Y    ALP  0     ROOT ALP Y 8
     6 SEP2       39 GROUP        1 Y    SEP  0     **** SEP Y 9
     7 LYP4       36 GROUP        1 Y    LYP  0     **** LYP Y 11
     8 GLP5        8 GROUP        1 Y    GLP  0     **** GLP Y 13
     9 ALL1        2 GROUP        1 Z    ALL  0     ROOT ALL Z 15
    10 SEL2       38 GROUP        1 Z    SEL  0     **** SEL Z 16
    11 LYL4       35 GROUP        1 Z    LYL  0     **** LYL Z 18
    12 GLL5        7 GROUP        1 Z    GLL  0     **** GLL Z 20
@<TRIPOS>SET

