#    Name: 3ql3_FOL_1_ligand
#    Modification time : Mon Apr  7 19:40:33 2014

@<TRIPOS>MOLECULE
3ql3_FOL_1_ligand
   49    51     1     0     0
SMALL
NO_CHARGES


@<TRIPOS>ATOM
      1 N1          3.8620   -4.4790  -12.2520 N.pl3     1 FOL161      0.0000 
      2 C2          3.0430   -5.5860  -12.2580 C.2       1 FOL161      0.0000 
      3 NA2         3.5180   -6.7930  -12.5750 N.pl3     1 FOL161      0.0000 
      4 N3          1.7190   -5.4530  -11.9390 N.2       1 FOL161      0.0000 
      5 C4          1.1870   -4.2370  -11.5850 C.2       1 FOL161      0.0000 
      6 O4         -0.0470   -4.1330  -11.4590 O.2       1 FOL161      0.0000 
      7 C4A         2.0400   -3.1120  -11.5600 C.ar      1 FOL161      0.0000 
      8 N5          1.5750   -1.8770  -11.2200 N.ar      1 FOL161      0.0000 
      9 C6          2.3970   -0.7980  -11.1900 C.ar      1 FOL161      0.0000 
     10 C7          3.7180   -0.9700  -11.5380 C.ar      1 FOL161      0.0000 
     11 N8          4.2170   -2.1800  -11.9100 N.ar      1 FOL161      0.0000 
     12 C8A         3.3920   -3.2640  -11.8900 C.ar      1 FOL161      0.0000 
     13 C9          1.9410    0.5240  -10.5880 C.3       1 FOL161      0.0000 
     14 N10         0.6360    0.4380   -9.9550 N.pl3     1 FOL161      0.0000 
     15 C11        -0.0810   -1.3250   -6.2950 C.ar      1 FOL161      0.0000 
     16 C12        -1.1030   -0.6500   -6.9730 C.ar      1 FOL161      0.0000 
     17 C13        -0.8500   -0.0240   -8.1920 C.ar      1 FOL161      0.0000 
     18 C14         0.4420   -0.0550   -8.7470 C.ar      1 FOL161      0.0000 
     19 C15         1.4430   -0.7460   -8.0780 C.ar      1 FOL161      0.0000 
     20 C16         1.1960   -1.3550   -6.8680 C.ar      1 FOL161      0.0000 
     21 C          -0.3500   -2.0120   -4.9760 C.2       1 FOL161      0.0000 
     22 O          -1.4910   -1.6500   -4.2570 O.2       1 FOL161      0.0000 
     23 N           0.4410   -2.9640   -4.4720 N.am      1 FOL161      0.0000 
     24 CA          0.4700   -3.3290   -3.0470 C.3       1 FOL161      0.0000 
     25 CB         -0.4840   -4.4880   -2.6820 C.3       1 FOL161      0.0000 
     26 CG         -0.0460   -5.8950   -3.1520 C.3       1 FOL161      0.0000 
     27 CD         -1.1310   -6.9720   -3.0210 C.2       1 FOL161      0.0000 
     28 OE1        -0.8400   -8.1800   -2.8030 O.co2     1 FOL161      0.0000 
     29 OE2        -2.3430   -6.6740   -3.1260 O.co2     1 FOL161      0.0000 
     30 CT          1.8690   -3.6900   -2.6380 C.2       1 FOL161      0.0000 
     31 O1          2.7470   -3.8240   -3.5140 O.co2     1 FOL161      0.0000 
     32 O2          2.1950   -3.8730   -1.4340 O.co2     1 FOL161      0.0000 
     33 H           4.8617   -4.5912  -12.5337 H         1 FOL161      0.0000 
     34 H           4.2966   -6.8086  -13.2024 H         1 FOL161      0.0000 
     35 H           3.0525   -7.5728  -12.1565 H         1 FOL161      0.0000 
     36 H           4.3558   -0.1357  -11.5133 H         1 FOL161      0.0000 
     37 H           1.9356    1.2822  -11.3946 H         1 FOL161      0.0000 
     38 H           2.7085    0.8499   -9.8598 H         1 FOL161      0.0000 
     39 H          -0.1655    0.8042  -10.5382 H         1 FOL161      0.0000 
     40 H          -2.0482   -0.6174   -6.5654 H         1 FOL161      0.0000 
     41 H          -1.6039    0.4621   -8.6902 H         1 FOL161      0.0000 
     42 H           2.3893   -0.8016   -8.4999 H         1 FOL161      0.0000 
     43 H           1.9586   -1.8445   -6.3670 H         1 FOL161      0.0000 
     44 H           1.0981   -3.5135   -5.0816 H         1 FOL161      0.0000 
     45 H           0.1668   -2.4617   -2.4418 H         1 FOL161      0.0000 
     46 H          -1.4828   -4.2703   -3.1067 H         1 FOL161      0.0000 
     47 H          -0.6108   -4.5081   -1.5825 H         1 FOL161      0.0000 
     48 H           0.8358   -6.2008   -2.5673 H         1 FOL161      0.0000 
     49 H           0.2699   -5.8299   -4.2051 H         1 FOL161      0.0000 
@<TRIPOS>BOND
     1    2    1 1    
     2   12    1 1    
     3   33    1 1    
     4    3    2 1    
     5    4    2 2    
     6   34    3 1    
     7   35    3 1    
     8    5    4 1    
     9    6    5 2    
    10    7    5 1    
    11    8    7 ar   
    12   12    7 ar   
    13    9    8 ar   
    14   10    9 ar   
    15   13    9 1    
    16   11   10 ar   
    17   36   10 1    
    18   12   11 ar   
    19   14   13 1    
    20   37   13 1    
    21   38   13 1    
    22   18   14 1    
    23   39   14 1    
    24   16   15 ar   
    25   20   15 ar   
    26   21   15 1    
    27   17   16 ar   
    28   40   16 1    
    29   18   17 ar   
    30   41   17 1    
    31   19   18 ar   
    32   20   19 ar   
    33   42   19 1    
    34   43   20 1    
    35   22   21 2    
    36   23   21 am   
    37   24   23 1    
    38   44   23 1    
    39   25   24 1    
    40   30   24 1    
    41   45   24 1    
    42   26   25 1    
    43   46   25 1    
    44   47   25 1    
    45   27   26 1    
    46   48   26 1    
    47   49   26 1    
    48   28   27 ar   
    49   29   27 ar   
    50   31   30 ar   
    51   32   30 ar   
@<TRIPOS>SUBSTRUCTURE
     1 FOL161      1 GROUP   
@<TRIPOS>SET

