#    Name: 1o1s_1NH_1_INTS_M
#    Modification time : Mon Mar 24 19:28:31 2014

@<TRIPOS>MOLECULE
1o1s_1NH_1_INTS_M
   83     0     9     0     0
SMALL
NO_CHARGES


@<TRIPOS>ATOM
      1 CA        191.8330  123.7990   27.7825 C.3       3 GLC5        0.0000 
      2 CA        193.6470  123.4910   29.0520 C.3       9 GLL5        0.0000 
      3 CA        190.0190  124.1070   26.5130 C.3       6 GLP5        0.0000 
      4 CA        195.4725  123.0290   28.5830 C.3       3 GLC5        0.0000 
      5 CA        197.2980  122.5670   28.1140 C.3       6 GLP5        0.0000 
      6 CA        190.5740  120.4320   29.6465 C.3       3 GLC5        0.0000 
      7 CA        189.7860  121.3160   31.5510 C.3       9 GLL5        0.0000 
      8 CA        191.3620  119.5480   27.7420 C.3       6 GLP5        0.0000 
      9 CA        187.5125  121.5200   35.1310 C.3       3 GLC5        0.0000 
     10 CA        188.8850  122.1830   33.7040 C.3       9 GLL5        0.0000 
     11 CA        186.1400  120.8570   36.5580 C.3       6 GLP5        0.0000 
     12 CA        187.2195  120.6460   30.1635 C.3       3 GLC5        0.0000 
     13 CA        187.5480  120.4760   32.2900 C.3       9 GLL5        0.0000 
     14 CA        186.8910  120.8160   28.0370 C.3       6 GLP5        0.0000 
     15 CA        188.6615  119.3950   33.1435 C.3       3 GLC5        0.0000 
     16 CA        189.7750  118.3140   33.9970 C.3       6 GLP5        0.0000 
     17 CA        186.3490  118.6930   31.7175 C.3       3 GLC5        0.0000 
     18 CA        185.1500  116.9100   31.1450 C.3       6 GLP5        0.0000 
     19 CA        184.6210  120.4090   34.0245 C.3       3 GLC5        0.0000 
     20 CA        185.1590  120.4650   32.5340 C.3       9 GLL5        0.0000 
     21 CA        184.0830  120.3530   35.5150 C.3       6 GLP5        0.0000 
     22 CA        184.9570  119.9945   29.4670 C.3       3 GLC5        0.0000 
     23 CA        183.3470  120.6930   30.7560 C.3       9 GLL5        0.0000 
     24 CA        186.5670  119.2960   28.1780 C.3       6 GLP5        0.0000 
     25 CA        184.0795  120.1665   28.5005 C.3       3 GLC5        0.0000 
     26 CA        182.7810  121.4170   29.6930 C.3       9 GLL5        0.0000 
     27 CA        185.3780  118.9160   27.3080 C.3       6 GLP5        0.0000 
     28 CA        196.2640  123.2105   29.8140 C.3       3 GLC5        0.0000 
     29 CA        195.2300  123.8540   31.5140 C.3       9 GLL5        0.0000 
     30 NZ        197.1495  127.9825   32.9365 N.4       2 LYC4        0.0000 
     31 NZ        196.1040  127.1000   33.3530 N.4       8 LYL4        0.0000 
     32 NZ        198.1950  128.8650   32.5200 N.4       5 LYP4        0.0000 
     33 N         197.1495  127.9825   32.9365 N.am      1 SEC2        0.0000 
     34 N         196.1040  127.1000   33.3530 N.am      7 SEL2        0.0000 
     35 N         198.1950  128.8650   32.5200 N.am      4 SEP2        0.0000 
     36 NZ        197.9335  127.1020   32.4920 N.4       2 LYC4        0.0000 
     37 NZ        197.6720  125.3390   32.4640 N.4       8 LYL4        0.0000 
     38 NZ        198.3705  124.3270   32.0795 N.4       2 LYC4        0.0000 
     39 NZ        199.3760  122.0280   31.8510 N.4       5 LYP4        0.0000 
     40 NZ        199.1580  125.2090   33.3870 N.4       2 LYC4        0.0000 
     41 NZ        200.6440  125.0790   34.3100 N.4       5 LYP4        0.0000 
     42 N         198.3705  124.3270   32.0795 N.am      1 SEC2        0.0000 
     43 N         197.6720  125.3390   32.4640 N.am      7 SEL2        0.0000 
     44 N         199.0690  123.3150   31.6950 N.am      4 SEP2        0.0000 
     45 N         195.0230  123.1285   36.3755 N.am      1 SEC2        0.0000 
     46 N         196.2780  123.6140   36.5860 N.am      7 SEL2        0.0000 
     47 N         193.7680  122.6430   36.1650 N.am      4 SEP2        0.0000 
     48 NZ        198.0265  122.9595   33.0395 N.4       2 LYC4        0.0000 
     49 NZ        196.9840  122.6040   34.3840 N.4       8 LYL4        0.0000 
     50 N         195.9275  121.7100   34.0820 N.am      1 SEC2        0.0000 
     51 N         196.9840  122.6040   34.3840 N.am      7 SEL2        0.0000 
     52 N         194.8710  120.8160   33.7800 N.am      4 SEP2        0.0000 
     53 N         197.8765  121.9520   33.5860 N.am      1 SEC2        0.0000 
     54 N         198.7690  121.3000   32.7880 N.am      4 SEP2        0.0000 
     55 N         198.0265  122.9595   33.0395 N.am      1 SEC2        0.0000 
     56 NZ        199.5610  124.6850   34.9210 N.4       2 LYC4        0.0000 
     57 NZ        198.4780  124.2910   35.5320 N.4       8 LYL4        0.0000 
     58 N         199.5610  124.6850   34.9210 N.am      1 SEC2        0.0000 
     59 N         198.4780  124.2910   35.5320 N.am      7 SEL2        0.0000 
     60 N         200.6440  125.0790   34.3100 N.am      4 SEP2        0.0000 
     61 CA        192.4772  120.8063   29.4305 C.3       3 GLC5        0.0000 
     62 CA        193.1760  122.9000   30.3810 C.3       9 GLL5        0.0000 
     63 CA        192.4440  119.1090   28.4920 C.3       6 GLP5        0.0000 
     64 CA        189.4310  120.0331   33.4270 C.3       3 GLC5        0.0000 
     65 CA        185.8333  121.3093   29.6047 C.3       3 GLC5        0.0000 
     66 CA        184.4970  121.1980   31.3860 C.3       9 GLL5        0.0000 
     67 CA        181.7560  120.3030   28.8957 C.3       3 GLC5        0.0000 
     68 CA        180.4480  119.5510   27.5670 C.3       6 GLP5        0.0000 
     69 CA        184.6188  118.8361   31.2515 C.3       3 GLC5        0.0000 
     70 CA        182.0365  123.1910   28.1837 C.3       3 GLC5        0.0000 
     71 CA        181.0030  124.3540   26.8890 C.3       6 GLP5        0.0000 
     72 CA        185.4127  121.8530   28.8102 C.3       3 GLC5        0.0000 
     73 CA        183.3590  122.6390   29.2640 C.3       9 GLL5        0.0000 
     74 CA        182.7190  124.6303   27.3615 C.3       3 GLC5        0.0000 
     75 CA        184.8340  125.1750   28.3450 C.3       9 GLL5        0.0000 
     76 CA        183.5055  123.5220   25.7203 C.3       3 GLC5        0.0000 
     77 CA        184.0360  124.6380   27.3230 C.3       9 GLL5        0.0000 
     78 CA        183.0780  122.0450   24.7100 C.3       6 GLP5        0.0000 
     79 CA        182.5602  125.1737   26.4722 C.3       3 GLC5        0.0000 
     80 CA        183.8300  125.3600   26.1380 C.3       9 GLL5        0.0000 
     81 CA        195.0290  121.6610   32.2585 C.3       3 GLC5        0.0000 
     82 CA        193.9180  123.0780   31.5040 C.3       9 GLL5        0.0000 
     83 CA        195.4840  119.8560   33.0080 C.3       6 GLP5        0.0000 
@<TRIPOS>BOND
@<TRIPOS>SUBSTRUCTURE
     1 SEC2       33 GROUP        1 X    SEC  0     ROOT SEC X 2
     2 LYC4       30 GROUP        1 X    LYC  0     **** LYC X 4
     3 GLC5        1 GROUP        1 X    GLC  0     **** GLC X 6
     4 SEP2       35 GROUP        1 Y    SEP  0     ROOT SEP Y 9
     5 LYP4       32 GROUP        1 Y    LYP  0     **** LYP Y 11
     6 GLP5        3 GROUP        1 Y    GLP  0     **** GLP Y 13
     7 SEL2       34 GROUP        1 Z    SEL  0     ROOT SEL Z 16
     8 LYL4       31 GROUP        1 Z    LYL  0     **** LYL Z 18
     9 GLL5        2 GROUP        1 Z    GLL  0     **** GLL Z 20
@<TRIPOS>SET

