#    Name: 1o1s_1NH_1_ligand
#    Modification time : Mon Mar 24 19:28:31 2014

@<TRIPOS>MOLECULE
1o1s_1NH_1_ligand
   62    63     1     0     0
SMALL
NO_CHARGES


@<TRIPOS>ATOM
      1 C4        193.6470  123.4910   29.0520 C.3       1 1NH2001     0.0000 
      2 C1        193.1760  122.9000   30.3810 C.2       1 1NH2001     0.0000 
      3 C3        191.8450  122.1070   30.3570 C.3       1 1NH2001     0.0000 
      4 C5        191.0540  122.1600   31.6910 C.3       1 1NH2001     0.0000 
      5 C7        189.7860  121.3160   31.5510 C.2       1 1NH2001     0.0000 
      6 C6        188.7920  121.3270   32.4690 C.2       1 1NH2001     0.0000 
      7 C8        188.8850  122.1830   33.7040 C.3       1 1NH2001     0.0000 
      8 C9        187.5480  120.4760   32.2900 C.3       1 1NH2001     0.0000 
      9 O8        186.4070  121.1140   32.8820 O.3       1 1NH2001     0.0000 
     10 C11       185.1590  120.4650   32.5340 C.3       1 1NH2001     0.0000 
     11 C17       184.4970  121.1980   31.3860 C.ar      1 1NH2001     0.0000 
     12 C18       183.3470  120.6930   30.7560 C.ar      1 1NH2001     0.0000 
     13 C12       182.7810  121.4170   29.6930 C.ar      1 1NH2001     0.0000 
     14 C13       183.3590  122.6390   29.2640 C.ar      1 1NH2001     0.0000 
     15 C14       184.5100  123.1410   29.9030 C.ar      1 1NH2001     0.0000 
     16 C16       185.0540  122.4070   30.9590 C.ar      1 1NH2001     0.0000 
     17 C15       185.2070  124.4140   29.5550 C.2       1 1NH2001     0.0000 
     18 O9        186.1140  124.8310   30.2820 O.2       1 1NH2001     0.0000 
     19 C19       184.8340  125.1750   28.3450 C.ar      1 1NH2001     0.0000 
     20 C24       184.0360  124.6380   27.3230 C.ar      1 1NH2001     0.0000 
     21 C23       183.8300  125.3600   26.1380 C.ar      1 1NH2001     0.0000 
     22 C22       184.4050  126.6270   25.9730 C.ar      1 1NH2001     0.0000 
     23 C21       185.1500  127.1970   27.0140 C.ar      1 1NH2001     0.0000 
     24 C20       185.3560  126.4750   28.1970 C.ar      1 1NH2001     0.0000 
     25 C2        193.9180  123.0780   31.5040 C.2       1 1NH2001     0.0000 
     26 C10       195.2300  123.8540   31.5140 C.3       1 1NH2001     0.0000 
     27 O3        195.1140  125.0980   32.2780 O.3       1 1NH2001     0.0000 
     28 P2        196.3480  125.5950   33.1190 P.3       1 1NH2001     0.0000 
     29 O7        196.1040  127.1000   33.3530 O.co2     1 1NH2001     0.0000 
     30 O1        197.6720  125.3390   32.4640 O.co2     1 1NH2001     0.0000 
     31 O2        196.2410  124.9470   34.5310 O.3       1 1NH2001     0.0000 
     32 P1        197.0750  123.8600   35.2780 P.3       1 1NH2001     0.0000 
     33 O4        196.2780  123.6140   36.5860 O.co2     1 1NH2001     0.0000 
     34 O5        196.9840  122.6040   34.3840 O.co2     1 1NH2001     0.0000 
     35 O6        198.4780  124.2910   35.5320 O.co2     1 1NH2001     0.0000 
     36 H         192.0626  121.0579   30.1182 H         1 1NH2001     0.0000 
     37 H         191.2101  122.5058   29.5552 H         1 1NH2001     0.0000 
     38 H         190.7893  123.1842   31.8992 H         1 1NH2001     0.0000 
     39 H         191.6722  121.7615   32.4793 H         1 1NH2001     0.0000 
     40 H         189.7561  120.7371   30.6935 H         1 1NH2001     0.0000 
     41 H         187.7392  119.4936   32.7470 H         1 1NH2001     0.0000 
     42 H         187.4004  120.3118   31.2121 H         1 1NH2001     0.0000 
     43 H         184.4683  120.4590   33.3847 H         1 1NH2001     0.0000 
     44 H         185.3276  119.4259   32.2295 H         1 1NH2001     0.0000 
     45 H         182.9315  119.8187   31.0640 H         1 1NH2001     0.0000 
     46 H         181.9429  121.0636   29.2197 H         1 1NH2001     0.0000 
     47 H         182.9364  123.1538   28.4889 H         1 1NH2001     0.0000 
     48 H         185.9000  122.7706   31.4434 H         1 1NH2001     0.0000 
     49 H         183.6031  123.7168   27.4429 H         1 1NH2001     0.0000 
     50 H         183.2551  124.9575   25.3886 H         1 1NH2001     0.0000 
     51 H         184.2811  127.1358   25.0930 H         1 1NH2001     0.0000 
     52 H         185.5417  128.1361   26.9107 H         1 1NH2001     0.0000 
     53 H         185.8929  126.8952   28.9665 H         1 1NH2001     0.0000 
     54 H         193.6401  122.6980   32.4256 H         1 1NH2001     0.0000 
     55 H         195.5138  124.0639   30.4726 H         1 1NH2001     0.0000 
     56 H         196.0092  123.2073   31.9426 H         1 1NH2001     0.0000 
     57 H         194.5094  123.9874   29.1511 H         1 1NH2001     0.0000 
     58 H         193.7943  122.7825   28.3619 H         1 1NH2001     0.0000 
     59 H         192.9805  124.1339   28.6745 H         1 1NH2001     0.0000 
     60 H         189.6776  121.9420   34.2641 H         1 1NH2001     0.0000 
     61 H         188.9702  123.1533   33.4778 H         1 1NH2001     0.0000 
     62 H         188.0761  122.0872   34.2841 H         1 1NH2001     0.0000 
@<TRIPOS>BOND
     1    2    1 1    
     2   57    1 1    
     3   58    1 1    
     4   59    1 1    
     5    3    2 1    
     6   25    2 2    
     7    4    3 1    
     8   36    3 1    
     9   37    3 1    
    10    5    4 1    
    11   38    4 1    
    12   39    4 1    
    13    6    5 2    
    14   40    5 1    
    15    7    6 1    
    16    8    6 1    
    17   60    7 1    
    18   61    7 1    
    19   62    7 1    
    20    9    8 1    
    21   41    8 1    
    22   42    8 1    
    23   10    9 1    
    24   11   10 1    
    25   43   10 1    
    26   44   10 1    
    27   12   11 ar   
    28   16   11 ar   
    29   13   12 ar   
    30   45   12 1    
    31   14   13 ar   
    32   46   13 1    
    33   15   14 ar   
    34   47   14 1    
    35   16   15 ar   
    36   17   15 1    
    37   48   16 1    
    38   18   17 2    
    39   19   17 1    
    40   20   19 ar   
    41   24   19 ar   
    42   21   20 ar   
    43   49   20 1    
    44   22   21 ar   
    45   50   21 1    
    46   23   22 ar   
    47   51   22 1    
    48   24   23 ar   
    49   52   23 1    
    50   53   24 1    
    51   26   25 1    
    52   54   25 1    
    53   27   26 1    
    54   55   26 1    
    55   56   26 1    
    56   28   27 1    
    57   29   28 ar   
    58   30   28 ar   
    59   31   28 1    
    60   32   31 1    
    61   33   32 ar   
    62   34   32 ar   
    63   35   32 ar   
@<TRIPOS>SUBSTRUCTURE
     1 1NH2001     1 GROUP   
@<TRIPOS>SET

