#    Name: 1u5a_BIK_1_INTS_M
#    Modification time : Tue Mar 25 06:09:26 2014

@<TRIPOS>MOLECULE
1u5a_BIK_1_INTS_M
   24     0     9     0     0
SMALL
NO_CHARGES


@<TRIPOS>ATOM
      1 CA         22.1040   19.4965    6.7610 C.3       3 GLC5        0.0000 
      2 CA         21.9430   17.4100    6.0570 C.3       9 GLL5        0.0000 
      3 CA         22.2650   21.5830    7.4650 C.3       6 GLP5        0.0000 
      4 CA         20.0045   18.3205    5.9695 C.3       3 GLC5        0.0000 
      5 CA         18.0660   19.2310    5.8820 C.3       6 GLP5        0.0000 
      6 CA         22.7270   20.2270    5.9770 C.3       3 GLC5        0.0000 
      7 CA         23.1890   18.8710    4.4890 C.3       9 GLL5        0.0000 
      8 NZ         23.3735   22.1070    1.7235 N.4       2 LYC4        0.0000 
      9 NZ         23.4070   21.2010    2.8010 N.4       8 LYL4        0.0000 
     10 NZ         24.3830   23.2700   -0.1270 N.4       5 LYP4        0.0000 
     11 N          23.3735   22.1070    1.7235 N.am      1 SEC2        0.0000 
     12 N          23.4070   21.2010    2.8010 N.am      7 SEL2        0.0000 
     13 N          23.3400   23.0130    0.6460 N.am      4 SEP2        0.0000 
     14 NZ         25.4590   21.6195    1.1250 N.4       2 LYC4        0.0000 
     15 NZ         25.4260   20.6360    2.2040 N.4       8 LYL4        0.0000 
     16 N          25.4590   21.6195    1.1250 N.am      1 SEC2        0.0000 
     17 N          25.4260   20.6360    2.2040 N.am      7 SEL2        0.0000 
     18 N          25.4920   22.6030    0.0460 N.am      4 SEP2        0.0000 
     19 CA         23.7550   16.2870    8.1864 C.3       3 GLC5        0.0000 
     20 CA         21.8680   16.2480    6.8590 C.3       9 GLL5        0.0000 
     21 CA         24.2270   16.8010    9.8900 C.3       6 GLP5        0.0000 
     22 CA         24.1541   18.3264    2.1641 C.3       3 GLC5        0.0000 
     23 CA         25.4590   18.2980    3.7710 C.3       9 GLL5        0.0000 
     24 CA         23.6950   17.9960    0.3900 C.3       6 GLP5        0.0000 
@<TRIPOS>BOND
@<TRIPOS>SUBSTRUCTURE
     1 SEC2       11 GROUP        1 X    SEC  0     ROOT SEC X 2
     2 LYC4        8 GROUP        1 X    LYC  0     **** LYC X 4
     3 GLC5        1 GROUP        1 X    GLC  0     **** GLC X 6
     4 SEP2       13 GROUP        1 Y    SEP  0     ROOT SEP Y 9
     5 LYP4       10 GROUP        1 Y    LYP  0     **** LYP Y 11
     6 GLP5        3 GROUP        1 Y    GLP  0     **** GLP Y 13
     7 SEL2       12 GROUP        1 Z    SEL  0     ROOT SEL Z 16
     8 LYL4        9 GROUP        1 Z    LYL  0     **** LYL Z 18
     9 GLL5        2 GROUP        1 Z    GLL  0     **** GLL Z 20
@<TRIPOS>SET

