#    Name: 1u5a_BIK_1_ligand
#    Modification time : Tue Mar 25 06:09:26 2014

@<TRIPOS>MOLECULE
1u5a_BIK_1_ligand
   22    23     1     0     0
SMALL
NO_CHARGES


@<TRIPOS>ATOM
      1 O6         20.8230   15.9260    7.5870 O.3       1 BIK1001     0.0000 
      2 C6         21.8680   16.2480    6.8590 C.ar      1 BIK1001     0.0000 
      3 C7         22.9920   15.4180    6.8600 C.ar      1 BIK1001     0.0000 
      4 C8         24.1360   15.7130    6.1060 C.ar      1 BIK1001     0.0000 
      5 C8A        24.2000   16.8600    5.3140 C.ar      1 BIK1001     0.0000 
      6 C4A        23.0980   17.7150    5.2910 C.ar      1 BIK1001     0.0000 
      7 C5         21.9430   17.4100    6.0570 C.ar      1 BIK1001     0.0000 
      8 C4         23.1890   18.8710    4.4890 C.ar      1 BIK1001     0.0000 
      9 C1         25.3670   17.1500    4.5760 C.ar      1 BIK1001     0.0000 
     10 C2         25.4590   18.2980    3.7710 C.ar      1 BIK1001     0.0000 
     11 O2         26.5210   18.5090    3.0820 O.3       1 BIK1001     0.0000 
     12 C3         24.3460   19.1600    3.7220 C.ar      1 BIK1001     0.0000 
     13 C31        24.3940   20.4120    2.8620 C.2       1 BIK1001     0.0000 
     14 O32        23.4070   21.2010    2.8010 O.co2     1 BIK1001     0.0000 
     15 O31        25.4260   20.6360    2.2040 O.co2     1 BIK1001     0.0000 
     16 H          22.9812   14.5534    7.4381 H         1 BIK1001     0.0000 
     17 H          24.9434   15.0693    6.1389 H         1 BIK1001     0.0000 
     18 H          21.1377   18.0548    6.0264 H         1 BIK1001     0.0000 
     19 H          22.3919   19.5283    4.4570 H         1 BIK1001     0.0000 
     20 H          26.1700   16.5027    4.6303 H         1 BIK1001     0.0000 
     21 H          20.5831   16.7626    8.0794 H         1 BIK1001     0.0000 
     22 H          26.3524   19.3712    2.6043 H         1 BIK1001     0.0000 
@<TRIPOS>BOND
     1    2    1 1    
     2   21    1 1    
     3    3    2 ar   
     4    7    2 ar   
     5    4    3 ar   
     6   16    3 1    
     7    5    4 ar   
     8   17    4 1    
     9    6    5 ar   
    10    9    5 ar   
    11    7    6 ar   
    12    8    6 ar   
    13   18    7 1    
    14   12    8 ar   
    15   19    8 1    
    16   10    9 ar   
    17   20    9 1    
    18   11   10 1    
    19   12   10 ar   
    20   22   11 1    
    21   13   12 1    
    22   14   13 ar   
    23   15   13 ar   
@<TRIPOS>SUBSTRUCTURE
     1 BIK1001     1 GROUP   
@<TRIPOS>SET

