#    Name: 2a58_RBF_5_INTS_M
#    Modification time : Mon Mar 24 18:29:43 2014

@<TRIPOS>MOLECULE
2a58_RBF_5_INTS_M
   47     0     9     0     0
SMALL
NO_CHARGES


@<TRIPOS>ATOM
      1 N          70.3755   55.8910   24.5355 N.am      2 SEC2        0.0000 
      2 N          69.0750   56.2830   25.2870 N.am      8 SEL2        0.0000 
      3 N          71.6760   55.4990   23.7840 N.am      5 SEP2        0.0000 
      4 N          70.0580   55.4130   25.8700 N.am      2 SEC2        0.0000 
      5 N          71.0410   54.5430   26.4530 N.am      5 SEP2        0.0000 
      6 O          67.2835   55.8775   27.1945 O.2       1 ALC1        0.0000 
      7 O          66.8800   55.7670   25.7460 O.2       7 ALL1        0.0000 
      8 O          67.6870   55.9880   28.6430 O.2       4 ALP1        0.0000 
      9 N          64.4305   54.4965   27.7040 N.am      2 SEC2        0.0000 
     10 N          64.7050   55.2550   26.2320 N.am      8 SEL2        0.0000 
     11 N          64.1560   53.7380   29.1760 N.am      5 SEP2        0.0000 
     12 CA         59.3045   53.2425   18.5410 C.3       3 GLC5        0.0000 
     13 CA         61.2020   53.7590   19.5310 C.3       9 GLL5        0.0000 
     14 CA         57.4070   52.7260   17.5510 C.3       6 GLP5        0.0000 
     15 CA         63.7495   53.8045   15.7840 C.3       3 GLC5        0.0000 
     16 CA         63.5090   54.1850   17.7380 C.3       9 GLL5        0.0000 
     17 CA         63.9900   53.4240   13.8300 C.3       6 GLP5        0.0000 
     18 CA         67.9490   57.4650   21.0805 C.3       3 GLC5        0.0000 
     19 CA         67.4450   55.5110   20.6600 C.3       9 GLL5        0.0000 
     20 CA         68.4530   59.4190   21.5010 C.3       6 GLP5        0.0000 
     21 N          70.6860   53.6865   22.0375 N.am      2 SEC2        0.0000 
     22 N          69.2030   54.2370   21.7790 N.am      8 SEL2        0.0000 
     23 N          72.1690   53.1360   22.2960 N.am      5 SEP2        0.0000 
     24 O          67.8640   52.6025   16.4100 O.2       1 ALC1        0.0000 
     25 O          67.9090   53.2390   17.7460 O.2       7 ALL1        0.0000 
     26 O          67.8190   51.9660   15.0740 O.2       4 ALP1        0.0000 
     27 CA         70.3500   54.4130   15.2950 C.3       3 GLC5        0.0000 
     28 CA         70.0270   54.4380   17.1870 C.3       9 GLL5        0.0000 
     29 CA         70.6730   54.3880   13.4030 C.3       6 GLP5        0.0000 
     30 CA         71.4400   53.0310   17.5430 C.3       3 GLC5        0.0000 
     31 CA         72.8530   51.6240   17.8990 C.3       6 GLP5        0.0000 
     32 O          71.5250   55.4120   17.3230 O.2       1 ALC1        0.0000 
     33 O          70.2410   55.8390   16.9330 O.2       7 ALL1        0.0000 
     34 O          72.8090   54.9850   17.7130 O.2       4 ALP1        0.0000 
     35 CA         61.5980   55.1582   18.5123 C.3       3 GLC5        0.0000 
     36 CA         62.5300   54.1720   20.1840 C.3       9 GLL5        0.0000 
     37 CA         61.3300   56.3510   17.1670 C.3       6 GLP5        0.0000 
     38 CA         62.8415   52.5532   20.9168 C.3       3 GLC5        0.0000 
     39 CA         63.8170   51.1410   21.9760 C.3       6 GLP5        0.0000 
     40 CA         62.4640   55.3190   17.8385 C.3       3 GLC5        0.0000 
     41 CA         63.6870   54.3890   19.2820 C.3       9 GLL5        0.0000 
     42 CA         68.0898   55.0045   16.0422 C.3       3 GLC5        0.0000 
     43 CA         68.7640   54.3240   18.1280 C.3       9 GLL5        0.0000 
     44 CA         66.7840   55.6280   14.4270 C.3       6 GLP5        0.0000 
     45 CA         70.2568   53.2194   19.6078 C.3       3 GLC5        0.0000 
     46 CA         71.7060   52.1280   20.1230 C.3       6 GLP5        0.0000 
     47 CA         64.0427   52.8969   21.2210 C.3       3 GLC5        0.0000 
@<TRIPOS>BOND
@<TRIPOS>SUBSTRUCTURE
     1 ALC1        6 GROUP        1 X    ALC  0     ROOT ALC X 1
     2 SEC2        1 GROUP        1 X    SEC  0     **** SEC X 2
     3 GLC5       12 GROUP        1 X    GLC  0     **** GLC X 6
     4 ALP1        8 GROUP        1 Y    ALP  0     ROOT ALP Y 8
     5 SEP2        3 GROUP        1 Y    SEP  0     **** SEP Y 9
     6 GLP5       14 GROUP        1 Y    GLP  0     **** GLP Y 13
     7 ALL1        7 GROUP        1 Z    ALL  0     ROOT ALL Z 15
     8 SEL2        2 GROUP        1 Z    SEL  0     **** SEL Z 16
     9 GLL5       13 GROUP        1 Z    GLL  0     **** GLL Z 20
@<TRIPOS>SET

