#    Name: 2a58_RBF_5_ligand
#    Modification time : Mon Mar 24 18:29:43 2014

@<TRIPOS>MOLECULE
2a58_RBF_5_ligand
   47    49     1     0     0
SMALL
NO_CHARGES


@<TRIPOS>ATOM
      1 N1         67.7400   55.8130   23.5760 N.2       1 RBF304      0.0000 
      2 C2         67.9630   55.9770   24.9420 C.2       1 RBF304      0.0000 
      3 O2         69.0750   56.2830   25.2870 O.2       1 RBF304      0.0000 
      4 N3         66.8800   55.7670   25.7460 N.am      1 RBF304      0.0000 
      5 C4         65.5660   55.4070   25.3930 C.2       1 RBF304      0.0000 
      6 O4         64.7050   55.2550   26.2320 O.2       1 RBF304      0.0000 
      7 C4A        65.3760   55.2350   23.8850 C.2       1 RBF304      0.0000 
      8 N5         64.1770   54.8900   23.4220 N.2       1 RBF304      0.0000 
      9 C5A        64.0060   54.7260   22.0220 C.ar      1 RBF304      0.0000 
     10 C6         62.6720   54.3390   21.5740 C.ar      1 RBF304      0.0000 
     11 C7         62.5300   54.1720   20.1840 C.ar      1 RBF304      0.0000 
     12 C7M        61.2020   53.7590   19.5310 C.3       1 RBF304      0.0000 
     13 C8         63.6870   54.3890   19.2820 C.ar      1 RBF304      0.0000 
     14 C8M        63.5090   54.1850   17.7380 C.3       1 RBF304      0.0000 
     15 C9         64.9550   54.7620   19.6740 C.ar      1 RBF304      0.0000 
     16 C9A        65.0930   54.9280   21.1100 C.ar      1 RBF304      0.0000 
     17 N10        66.3900   55.3160   21.6820 N.pl3     1 RBF304      0.0000 
     18 C10        66.5160   55.4590   23.0340 C.2       1 RBF304      0.0000 
     19 C1'        67.4450   55.5110   20.6600 C.3       1 RBF304      0.0000 
     20 C2'        68.3460   54.2630   20.5960 C.3       1 RBF304      0.0000 
     21 O2'        69.2030   54.2370   21.7790 O.3       1 RBF304      0.0000 
     22 C3'        69.3560   54.3320   19.5180 C.3       1 RBF304      0.0000 
     23 O3'        70.1540   55.5160   19.6460 O.3       1 RBF304      0.0000 
     24 C4'        68.7640   54.3240   18.1280 C.3       1 RBF304      0.0000 
     25 O4'        67.9090   53.2390   17.7460 O.3       1 RBF304      0.0000 
     26 C5'        70.0270   54.4380   17.1870 C.3       1 RBF304      0.0000 
     27 O5'        70.2410   55.8390   16.9330 O.3       1 RBF304      0.0000 
     28 H          67.0414   55.8930   26.8224 H         1 RBF304      0.0000 
     29 H          61.9427   54.2106   22.2169 H         1 RBF304      0.0000 
     30 H          65.7106   54.9093   19.0751 H         1 RBF304      0.0000 
     31 H          68.0666   56.3692   20.9081 H         1 RBF304      0.0000 
     32 H          67.0041   55.6653   19.6770 H         1 RBF304      0.0000 
     33 H          67.7819   53.3893   20.5307 H         1 RBF304      0.0000 
     34 H          70.0164   53.4532   19.5931 H         1 RBF304      0.0000 
     35 H          68.2588   55.3074   17.9924 H         1 RBF304      0.0000 
     36 H          69.8005   53.8842   16.2889 H         1 RBF304      0.0000 
     37 H          70.8520   53.9816   17.7120 H         1 RBF304      0.0000 
     38 H          61.2837   53.6864   18.5370 H         1 RBF304      0.0000 
     39 H          60.8843   52.8714   19.8646 H         1 RBF304      0.0000 
     40 H          60.4750   54.4197   19.7179 H         1 RBF304      0.0000 
     41 H          64.3581   54.3607   17.2398 H         1 RBF304      0.0000 
     42 H          63.2272   53.2514   17.5168 H         1 RBF304      0.0000 
     43 H          62.8152   54.7980   17.3599 H         1 RBF304      0.0000 
     44 H          68.8066   54.9126   22.4006 H         1 RBF304      0.0000 
     45 H          70.3314   55.8112   18.7072 H         1 RBF304      0.0000 
     46 H          68.1264   53.0641   16.7857 H         1 RBF304      0.0000 
     47 H          71.2043   55.9108   16.6744 H         1 RBF304      0.0000 
@<TRIPOS>BOND
     1    2    1 1    
     2   18    1 2    
     3    3    2 2    
     4    4    2 am   
     5    5    4 am   
     6   28    4 1    
     7    6    5 2    
     8    7    5 1    
     9    8    7 2    
    10   18    7 1    
    11    9    8 1    
    12   10    9 ar   
    13   16    9 ar   
    14   11   10 ar   
    15   29   10 1    
    16   12   11 1    
    17   13   11 ar   
    18   38   12 1    
    19   39   12 1    
    20   40   12 1    
    21   14   13 1    
    22   15   13 ar   
    23   41   14 1    
    24   42   14 1    
    25   43   14 1    
    26   16   15 ar   
    27   30   15 1    
    28   17   16 1    
    29   18   17 1    
    30   19   17 1    
    31   20   19 1    
    32   31   19 1    
    33   32   19 1    
    34   21   20 1    
    35   22   20 1    
    36   33   20 1    
    37   44   21 1    
    38   23   22 1    
    39   24   22 1    
    40   34   22 1    
    41   45   23 1    
    42   25   24 1    
    43   26   24 1    
    44   35   24 1    
    45   46   25 1    
    46   27   26 1    
    47   36   26 1    
    48   37   26 1    
    49   47   27 1    
@<TRIPOS>SUBSTRUCTURE
     1 RBF304      1 GROUP   
@<TRIPOS>SET

