#    Name: 2XZW_8_CAVITY_N1_6.mol2
#    Modification time : Tue Mar 11 01:24:34 2014

@<TRIPOS>MOLECULE
2XZW_8_CAVITY_N1_6.mol2
   61     0     6     0     0
SMALL
NO_CHARGES


@<TRIPOS>ATOM
      1 CA        -20.2305   11.8248  -74.7724 C.3       5 GLY6        0.0000 
      2 CA        -19.7282   12.3076  -76.1008 C.3       5 GLY6        0.0000 
      3 CA        -19.2259   12.7904  -77.4291 C.3       5 GLY6        0.0000 
      4 N         -21.6060   11.6675  -75.3496 N.2       2 ALA2        0.0000 
      5 OG        -21.1037   12.1503  -76.6780 O.2       1 SER1        0.0000 
      6 OG        -20.6015   12.6331  -78.0064 O.2       1 SER1        0.0000 
      7 CZ        -20.0992   13.1159  -79.3348 C.ar      4 PHE5        0.0000 
      8 N         -22.4792   11.9930  -77.2552 N.2       2 ALA2        0.0000 
      9 O         -21.9770   12.4759  -78.5836 O.2       2 ALA2        0.0000 
     10 CZ        -21.4747   12.9587  -79.9120 C.ar      4 PHE5        0.0000 
     11 N         -22.8502   12.8014  -80.4893 N.2       2 ALA2        0.0000 
     12 CZ        -22.3480   13.2842  -81.8177 C.ar      4 PHE5        0.0000 
     13 N         -24.2258   12.6441  -81.0665 N.2       2 ALA2        0.0000 
     14 N         -23.7235   13.1269  -82.3949 N.2       2 ALA2        0.0000 
     15 CA        -16.3270    9.7993  -75.7264 C.3       5 GLY6        0.0000 
     16 CA        -18.2048    9.1592  -74.9753 C.3       5 GLY6        0.0000 
     17 CA        -17.7025    9.6420  -76.3037 C.3       5 GLY6        0.0000 
     18 CA        -17.2002   10.1248  -77.6321 C.3       5 GLY6        0.0000 
     19 CA        -20.0825    8.5191  -74.2241 C.3       5 GLY6        0.0000 
     20 O         -19.5803    9.0019  -75.5525 O.2       2 ALA2        0.0000 
     21 DU        -19.0780    9.4847  -76.8809 H         6 CUB7        0.0000 
     22 CA        -18.5758    9.9675  -78.2093 C.3       5 GLY6        0.0000 
     23 CA        -18.0735   10.4503  -79.5377 C.3       5 GLY6        0.0000 
     24 CA        -20.4535    9.3274  -77.4582 C.3       5 GLY6        0.0000 
     25 CA        -19.9513    9.8103  -78.7865 C.3       5 GLY6        0.0000 
     26 CA        -21.3268    9.6530  -79.3638 C.3       5 GLY6        0.0000 
     27 CA        -18.5298   10.5706  -74.5852 C.3       5 GLY6        0.0000 
     28 CA        -18.0276   11.0534  -75.9136 C.3       5 GLY6        0.0000 
     29 O         -17.5253   11.5362  -77.2420 O.2       2 ALA2        0.0000 
     30 N         -20.4076    9.9305  -73.8340 N.2       2 ALA2        0.0000 
     31 CA        -19.9054   10.4134  -75.1624 C.3       5 GLY6        0.0000 
     32 DU        -19.4031   10.8962  -76.4908 H         6 CUB7        0.0000 
     33 CA        -18.9009   11.3790  -77.8192 C.3       5 GLY6        0.0000 
     34 N         -21.2809   10.2561  -75.7397 N.2       2 ALA2        0.0000 
     35 N         -20.7786   10.7389  -77.0681 N.2       2 ALA2        0.0000 
     36 DU        -20.2764   11.2217  -78.3965 H         6 CUB7        0.0000 
     37 CA        -19.7741   11.7045  -79.7249 C.3       5 GLY6        0.0000 
     38 N         -21.6519   11.0644  -78.9737 N.2       2 ALA2        0.0000 
     39 OD1       -21.1496   11.5472  -80.3021 O.3       3 ASP3        0.0000 
     40 OD1       -22.5252   11.3900  -80.8793 O.3       3 ASP3        0.0000 
     41 OD1       -22.0229   11.8728  -82.2077 O.3       3 ASP3        0.0000 
     42 CA        -24.2717   12.0410  -84.6906 C.3       5 GLY6        0.0000 
     43 N         -25.6472   11.8837  -85.2679 N.2       2 ALA2        0.0000 
     44 CZ        -22.1249   15.7815  -79.1319 C.ar      4 PHE5        0.0000 
     45 O         -23.5004   15.6243  -79.7091 O.2       2 ALA2        0.0000 
     46 CZ        -21.0744   17.3503  -78.1645 C.ar      4 PHE5        0.0000 
     47 N         -22.4500   17.1930  -78.7418 N.2       2 ALA2        0.0000 
     48 CA        -21.9477   17.6758  -80.0702 C.3       5 GLY6        0.0000 
     49 OG        -20.9265   14.0446  -77.6163 O.2       1 SER1        0.0000 
     50 OG        -22.3021   13.8873  -78.1935 O.2       1 SER1        0.0000 
     51 CZ        -21.7998   14.3701  -79.5219 C.ar      4 PHE5        0.0000 
     52 CA        -23.6776   13.7300  -78.7708 C.3       5 GLY6        0.0000 
     53 N         -23.1753   14.2128  -80.0992 N.2       2 ALA2        0.0000 
     54 CZ        -22.6731   14.6956  -81.4276 C.ar      4 PHE5        0.0000 
     55 CA        -17.8797    7.7478  -75.3654 C.3       5 GLY6        0.0000 
     56 CA        -17.3774    8.2306  -76.6938 C.3       5 GLY6        0.0000 
     57 O         -16.8752    8.7134  -78.0221 O.2       2 ALA2        0.0000 
     58 CA        -20.2597    6.6249  -73.2858 C.3       5 GLY6        0.0000 
     59 OD1       -19.2552    7.5905  -75.9426 O.3       3 ASP3        0.0000 
     60 OD1       -18.7529    8.0733  -77.2710 O.3       3 ASP3        0.0000 
     61 OD1       -18.2507    8.5561  -78.5994 O.3       3 ASP3        0.0000 
@<TRIPOS>BOND
@<TRIPOS>SUBSTRUCTURE
     1 SER1        5 GROUP   
     2 ALA2        4 GROUP   
     3 ASP3       39 GROUP   
     4 PHE5        7 GROUP   
     5 GLY6        1 GROUP   
     6 CUB7       21 GROUP   
@<TRIPOS>SET

