#    Name: 2xzw_ATP_8_INTS_M
#    Modification time : Tue Mar 25 07:14:11 2014

@<TRIPOS>MOLECULE
2xzw_ATP_8_INTS_M
  103     0    15     0     0
SMALL
NO_CHARGES


@<TRIPOS>ATOM
      1 NZ        -17.8225    3.2380  -82.6325 N.4       3 LYC4        0.0000 
      2 NZ        -17.5040    3.4560  -81.3370 N.4      13 LYL4        0.0000 
      3 NZ        -19.3510    3.3990  -84.3050 N.4       8 LYP4        0.0000 
      4 NZ        -16.4145    2.7405  -81.9510 N.4       3 LYC4        0.0000 
      5 NZ        -14.1770    1.8360  -81.9280 N.4       8 LYP4        0.0000 
      6 N         -18.8405    3.7395  -82.3955 N.am      2 SEC2        0.0000 
      7 N         -17.5040    3.4560  -81.3370 N.am     12 SEL2        0.0000 
      8 N         -20.1770    4.0230  -83.4540 N.am      7 SEP2        0.0000 
      9 N         -17.8225    3.2380  -82.6325 N.am      2 SEC2        0.0000 
     10 N         -18.1410    3.0200  -83.9280 N.am      7 SEP2        0.0000 
     11 N         -18.4250    2.6290  -80.8420 N.am      2 SEC2        0.0000 
     12 N         -19.3460    1.8020  -80.3470 N.am      7 SEP2        0.0000 
     13 N         -16.4145    2.7405  -81.9510 N.am      2 SEC2        0.0000 
     14 N         -15.3250    2.0250  -82.5650 N.am      7 SEP2        0.0000 
     15 NZ        -14.6600    3.7650  -80.7420 N.4       3 LYC4        0.0000 
     16 NZ        -15.4960    4.8490  -80.5130 N.4      13 LYL4        0.0000 
     17 N         -14.6600    3.7650  -80.7420 N.am      2 SEC2        0.0000 
     18 N         -15.4960    4.8490  -80.5130 N.am     12 SEL2        0.0000 
     19 N         -13.8240    2.6810  -80.9710 N.am      7 SEP2        0.0000 
     20 N         -15.4105    3.4370  -81.5390 N.am      2 SEC2        0.0000 
     21 Zn        -18.3005    4.7050  -78.6790 Zn        4 ZIC7        0.0000 
     22 Zn        -17.3780    4.4800  -79.1120 Zn       14 ZIL7        0.0000 
     23 Zn        -19.2230    4.9300  -78.2460 Zn        9 ZIP7        0.0000 
     24 N         -16.5805    4.4735  -77.8990 N.am      2 SEC2        0.0000 
     25 N         -17.3780    4.4800  -79.1120 N.am     12 SEL2        0.0000 
     26 N         -15.7830    4.4670  -76.6860 N.am      7 SEP2        0.0000 
     27 Zn        -19.5400    5.3715  -79.1185 Zn        4 ZIC7        0.0000 
     28 Zn        -19.8570    5.8130  -79.9910 Zn       14 ZIL7        0.0000 
     29 N         -21.3220    5.8080  -79.8995 N.am      2 SEC2        0.0000 
     30 N         -19.8570    5.8130  -79.9910 N.am     12 SEL2        0.0000 
     31 N         -22.7870    5.8030  -79.8080 N.am      7 SEP2        0.0000 
     32 NZ        -19.7990    8.6470  -82.2355 N.4       3 LYC4        0.0000 
     33 NZ        -19.4240    7.3800  -82.0770 N.4      13 LYL4        0.0000 
     34 NZ        -20.1740    9.9140  -82.3940 N.4       8 LYP4        0.0000 
     35 NZ        -19.3420    7.1685  -83.5895 N.4       3 LYC4        0.0000 
     36 NZ        -18.0170    6.5020  -85.1810 N.4       8 LYP4        0.0000 
     37 N         -19.7990    8.6470  -82.2355 N.am      2 SEC2        0.0000 
     38 N         -19.4240    7.3800  -82.0770 N.am     12 SEL2        0.0000 
     39 N         -20.1740    9.9140  -82.3940 N.am      7 SEP2        0.0000 
     40 N         -18.3345    6.9785  -83.0855 N.am      2 SEC2        0.0000 
     41 N         -17.2450    6.5770  -84.0940 N.am      7 SEP2        0.0000 
     42 N         -19.3420    7.1685  -83.5895 N.am      2 SEC2        0.0000 
     43 N         -19.2600    6.9570  -85.1020 N.am      7 SEP2        0.0000 
     44 N         -17.3945    6.2970  -82.5795 N.am      2 SEC2        0.0000 
     45 N         -17.5440    6.0170  -81.0650 N.am     12 SEL2        0.0000 
     46 N         -15.3325    8.4930  -77.9105 N.am      2 SEC2        0.0000 
     47 N         -16.5200    7.9570  -78.2760 N.am     12 SEL2        0.0000 
     48 N         -14.1450    9.0290  -77.5450 N.am      7 SEP2        0.0000 
     49 Zn        -18.9435    5.8460  -77.9060 Zn        4 ZIC7        0.0000 
     50 Zn        -18.6640    6.7620  -77.5660 Zn       14 ZIL7        0.0000 
     51 CA        -16.3250   10.1310  -77.1145 C.3       5 GLC5        0.0000 
     52 CA        -18.0350    9.9240  -76.5410 C.3      15 GLL5        0.0000 
     53 CA        -14.6150   10.3380  -77.6880 C.3      10 GLP5        0.0000 
     54 CA        -18.3325   12.4495  -75.2330 C.3       5 GLC5        0.0000 
     55 CA        -19.0000   10.9650  -76.0430 C.3      15 GLL5        0.0000 
     56 CA        -17.6650   13.9340  -74.4230 C.3      10 GLP5        0.0000 
     57 CA        -18.1035   10.5650  -74.0340 C.3       5 GLC5        0.0000 
     58 CA        -17.2070   10.1650  -72.0250 C.3      10 GLP5        0.0000 
     59 CA        -21.5080    9.0240  -76.9440 C.3       5 GLC5        0.0000 
     60 CA        -20.4420   10.4730  -75.7340 C.3      15 GLL5        0.0000 
     61 CA        -22.5740    7.5750  -78.1540 C.3      10 GLP5        0.0000 
     62 CA        -19.4625   12.8440  -75.1030 C.3       5 GLC5        0.0000 
     63 CA        -21.2600   11.7540  -75.7830 C.3      15 GLL5        0.0000 
     64 CA        -22.3200   11.5890  -74.0885 C.3       5 GLC5        0.0000 
     65 CA        -23.3800   11.4240  -72.3940 C.3      10 GLP5        0.0000 
     66 O         -21.5460   13.8985  -75.1200 O.2       1 ALC1        0.0000 
     67 O         -20.9660   12.6310  -74.6600 O.2      11 ALL1        0.0000 
     68 O         -22.1260   15.1660  -75.5800 O.2       6 ALP1        0.0000 
     69 CA        -19.2585   14.0190  -76.6540 C.3       5 GLC5        0.0000 
     70 CA        -20.6070   12.4920  -76.9460 C.3      15 GLL5        0.0000 
     71 CA        -17.9100   15.5460  -76.3620 C.3      10 GLP5        0.0000 
     72 N         -20.9060   10.7025  -81.3720 N.am      2 SEC2        0.0000 
     73 N         -21.6380   11.4910  -80.3500 N.am     12 SEL2        0.0000 
     74 CA        -20.5120   12.1985  -81.3410 C.3       5 GLC5        0.0000 
     75 CA        -22.3620   12.6280  -80.1590 C.3      15 GLL5        0.0000 
     76 CA        -18.6620   11.7690  -82.5230 C.3      10 GLP5        0.0000 
     77 CA        -23.4785   11.5830  -82.1680 C.3       5 GLC5        0.0000 
     78 CA        -23.2530   13.4110  -80.9780 C.3      15 GLL5        0.0000 
     79 CA        -23.7040    9.7550  -83.3580 C.3      10 GLP5        0.0000 
     80 CA        -23.2635   15.1255  -82.2115 C.3       5 GLC5        0.0000 
     81 CA        -23.2740   16.8400  -83.4450 C.3      10 GLP5        0.0000 
     82 O         -24.4225   13.8235  -83.2085 O.2       1 ALC1        0.0000 
     83 O         -23.5640   13.0020  -82.2480 O.2      11 ALL1        0.0000 
     84 O         -25.2810   14.6450  -84.1690 O.2       6 ALP1        0.0000 
     85 N         -24.5090   15.5320  -81.2525 N.am      2 SEC2        0.0000 
     86 N         -23.7770   14.5150  -80.4490 N.am     12 SEL2        0.0000 
     87 N         -25.2410   16.5490  -82.0560 N.am      7 SEP2        0.0000 
     88 CA        -24.6255   14.1015  -78.0620 C.3       5 GLC5        0.0000 
     89 CA        -23.4550   14.9710  -79.1940 C.3      15 GLL5        0.0000 
     90 CA        -25.7960   13.2320  -76.9300 C.3      10 GLP5        0.0000 
     91 CA        -25.1175   15.8295  -79.6960 C.3       5 GLC5        0.0000 
     92 CA        -26.7800   16.6880  -80.1980 C.3      10 GLP5        0.0000 
     93 CA        -23.0780   16.4540  -80.8180 C.3       5 GLC5        0.0000 
     94 CA        -22.7010   17.9370  -82.4420 C.3      10 GLP5        0.0000 
     95 N         -22.3705   14.7330  -76.9715 N.am      2 SEC2        0.0000 
     96 N         -22.6150   14.3000  -78.3630 N.am     12 SEL2        0.0000 
     97 N         -22.1260   15.1660  -75.5800 N.am      7 SEP2        0.0000 
     98 CA        -23.9245   13.1865  -77.8845 C.3       5 GLC5        0.0000 
     99 CA        -22.0530   13.1410  -78.8390 C.3      15 GLL5        0.0000 
    100 CA        -22.2440    9.7573  -75.1933 C.3       5 GLC5        0.0000 
    101 CA        -23.6370    8.4010  -74.6280 C.3      10 GLP5        0.0000 
    102 CA        -23.7436   11.6946  -79.4574 C.3       5 GLC5        0.0000 
    103 CA        -25.0570   10.3090  -79.2110 C.3      10 GLP5        0.0000 
@<TRIPOS>BOND
@<TRIPOS>SUBSTRUCTURE
     1 ALC1       66 GROUP        1 X    ALC  0     ROOT ALC X 1
     2 SEC2        6 GROUP        1 X    SEC  0     **** SEC X 2
     3 LYC4        1 GROUP        1 X    LYC  0     **** LYC X 4
     4 ZIC7       21 GROUP        1 X    ZIC  0     **** ZIC X 5
     5 GLC5       51 GROUP        1 X    GLC  0     **** GLC X 6
     6 ALP1       68 GROUP        1 Y    ALP  0     ROOT ALP Y 8
     7 SEP2        8 GROUP        1 Y    SEP  0     **** SEP Y 9
     8 LYP4        3 GROUP        1 Y    LYP  0     **** LYP Y 11
     9 ZIP7       23 GROUP        1 Y    ZIP  0     **** ZIP Y 12
    10 GLP5       53 GROUP        1 Y    GLP  0     **** GLP Y 13
    11 ALL1       67 GROUP        1 Z    ALL  0     ROOT ALL Z 15
    12 SEL2        7 GROUP        1 Z    SEL  0     **** SEL Z 16
    13 LYL4        2 GROUP        1 Z    LYL  0     **** LYL Z 18
    14 ZIL7       22 GROUP        1 Z    ZIL  0     **** ZIL Z 19
    15 GLL5       52 GROUP        1 Z    GLL  0     **** GLL Z 20
@<TRIPOS>SET

