#    Name: 2xzw_ATP_8_ligand
#    Modification time : Tue Mar 25 07:14:11 2014

@<TRIPOS>MOLECULE
2xzw_ATP_8_ligand
   43    45     1     0     0
SMALL
NO_CHARGES


@<TRIPOS>ATOM
      1 PG        -16.9490    4.5960  -80.4960 P.3       1 ATP200      0.0000 
      2 O1G       -17.5040    3.4560  -81.3370 O.co2     1 ATP200      0.0000 
      3 O2G       -15.4960    4.8490  -80.5130 O.co2     1 ATP200      0.0000 
      4 O3G       -17.3780    4.4800  -79.1120 O.co2     1 ATP200      0.0000 
      5 PB        -18.9550    6.7100  -80.7790 P.3       1 ATP200      0.0000 
      6 O1B       -19.8570    5.8130  -79.9910 O.co2     1 ATP200      0.0000 
      7 O2B       -19.4240    7.3800  -82.0770 O.co2     1 ATP200      0.0000 
      8 O3B       -17.5440    6.0170  -81.0650 O.3       1 ATP200      0.0000 
      9 PA        -18.0150    7.9170  -78.2830 P.3       1 ATP200      0.0000 
     10 O1A       -16.5200    7.9570  -78.2760 O.co2     1 ATP200      0.0000 
     11 O2A       -18.6640    6.7620  -77.5660 O.co2     1 ATP200      0.0000 
     12 O3A       -18.4730    7.9290  -79.8460 O.3       1 ATP200      0.0000 
     13 O5'       -18.7360    9.2250  -77.6650 O.3       1 ATP200      0.0000 
     14 C5'       -18.0350    9.9240  -76.5410 C.3       1 ATP200      0.0000 
     15 C4'       -19.0000   10.9650  -76.0430 C.3       1 ATP200      0.0000 
     16 O4'       -19.2370   11.9700  -77.0700 O.3       1 ATP200      0.0000 
     17 C3'       -20.4420   10.4730  -75.7340 C.3       1 ATP200      0.0000 
     18 O3'       -20.5460    9.7790  -74.5200 O.3       1 ATP200      0.0000 
     19 C2'       -21.2600   11.7540  -75.7830 C.3       1 ATP200      0.0000 
     20 O2'       -20.9660   12.6310  -74.6600 O.3       1 ATP200      0.0000 
     21 C1'       -20.6070   12.4920  -76.9460 C.3       1 ATP200      0.0000 
     22 N9        -21.2090   12.2860  -78.3060 N.pl3     1 ATP200      0.0000 
     23 C8        -20.9560   11.2940  -79.1940 C.2       1 ATP200      0.0000 
     24 N7        -21.6380   11.4910  -80.3500 N.2       1 ATP200      0.0000 
     25 C5        -22.3620   12.6280  -80.1590 C.ar      1 ATP200      0.0000 
     26 C6        -23.2530   13.4110  -80.9780 C.ar      1 ATP200      0.0000 
     27 N6        -23.5640   13.0020  -82.2480 N.pl3     1 ATP200      0.0000 
     28 N1        -23.7770   14.5150  -80.4490 N.ar      1 ATP200      0.0000 
     29 C2        -23.4550   14.9710  -79.1940 C.ar      1 ATP200      0.0000 
     30 N3        -22.6150   14.3000  -78.3630 N.ar      1 ATP200      0.0000 
     31 C4        -22.0530   13.1410  -78.8390 C.ar      1 ATP200      0.0000 
     32 H         -17.1419   10.3986  -76.9019 H         1 ATP200      0.0000 
     33 H         -17.8135    9.2271  -75.7545 H         1 ATP200      0.0000 
     34 H         -18.6305   11.4516  -75.1599 H         1 ATP200      0.0000 
     35 H         -20.7395    9.8804  -76.5996 H         1 ATP200      0.0000 
     36 H         -22.2315   11.5956  -75.9746 H         1 ATP200      0.0000 
     37 H         -20.5474   13.5402  -76.7267 H         1 ATP200      0.0000 
     38 H         -20.3599   10.5352  -79.0244 H         1 ATP200      0.0000 
     39 H         -23.1405   12.1485  -82.5515 H         1 ATP200      0.0000 
     40 H         -24.1873   13.5928  -82.7603 H         1 ATP200      0.0000 
     41 H         -23.8803   15.8796  -78.8678 H         1 ATP200      0.0000 
     42 H         -20.1901    8.8647  -74.7134 H         1 ATP200      0.0000 
     43 H         -21.3324   13.5228  -74.9254 H         1 ATP200      0.0000 
@<TRIPOS>BOND
     1    2    1 ar   
     2    3    1 ar   
     3    4    1 ar   
     4    8    1 1    
     5    6    5 ar   
     6    7    5 ar   
     7    8    5 1    
     8   12    5 1    
     9   10    9 ar   
    10   11    9 ar   
    11   12    9 1    
    12   13    9 1    
    13   14   13 1    
    14   15   14 1    
    15   32   14 1    
    16   33   14 1    
    17   16   15 1    
    18   17   15 1    
    19   34   15 1    
    20   21   16 1    
    21   18   17 1    
    22   19   17 1    
    23   35   17 1    
    24   42   18 1    
    25   20   19 1    
    26   21   19 1    
    27   36   19 1    
    28   43   20 1    
    29   22   21 1    
    30   37   21 1    
    31   23   22 1    
    32   31   22 1    
    33   24   23 2    
    34   38   23 1    
    35   25   24 1    
    36   26   25 ar   
    37   31   25 ar   
    38   27   26 1    
    39   28   26 ar   
    40   39   27 1    
    41   40   27 1    
    42   29   28 ar   
    43   30   29 ar   
    44   41   29 1    
    45   31   30 ar   
@<TRIPOS>SUBSTRUCTURE
     1 ATP200      1 GROUP   
@<TRIPOS>SET

