#    Name: 1iiq_0ZR_1_INTS_M
#    Modification time : Tue Mar 25 07:08:46 2014

@<TRIPOS>MOLECULE
1iiq_0ZR_1_INTS_M
  112     0    12     0     0
SMALL
NO_CHARGES


@<TRIPOS>ATOM
      1 CA         18.2185   17.6255    1.2020 C.3       4 GLC5        0.0000 
      2 CA         16.9730   18.3240    2.7400 C.3      12 GLL5        0.0000 
      3 CA         19.4640   16.9270   -0.3360 C.3       8 GLP5        0.0000 
      4 CA         15.7960   17.7190    0.9670 C.3       4 GLC5        0.0000 
      5 CA         14.6190   17.1140   -0.8060 C.3       8 GLP5        0.0000 
      6 CA         14.7475   18.3890    0.7615 C.3       4 GLC5        0.0000 
      7 CA         14.8760   19.6640    2.3290 C.3      12 GLL5        0.0000 
      8 CA         13.4510   20.5045    1.3020 C.3       4 GLC5        0.0000 
      9 CA         12.0260   21.3450    0.2750 C.3       8 GLP5        0.0000 
     10 CA         14.5345   16.1500    2.8620 C.3       4 GLC5        0.0000 
     11 CA         14.8320   17.7020    3.9310 C.3      12 GLL5        0.0000 
     12 CA         14.2370   14.5980    1.7930 C.3       8 GLP5        0.0000 
     13 CA         13.8985   17.9795    5.8995 C.3       4 GLC5        0.0000 
     14 CA         12.9650   18.2570    7.8680 C.3       8 GLP5        0.0000 
     15 O          17.1840   22.3520    5.6795 O.2       1 ALC1        0.0000 
     16 O          15.7950   21.4510    6.0170 O.2       9 ALL1        0.0000 
     17 O          18.5730   23.2530    5.3420 O.2       5 ALP1        0.0000 
     18 O          15.3115   25.5305    6.0550 O.2       1 ALC1        0.0000 
     19 O          15.8930   24.3610    5.8460 O.2       9 ALL1        0.0000 
     20 O          14.7300   26.7000    6.2640 O.2       5 ALP1        0.0000 
     21 CA         17.5695   23.8545    8.2715 C.3       4 GLC5        0.0000 
     22 CA         15.7980   22.6880    8.1650 C.3      12 GLL5        0.0000 
     23 CA         19.3410   25.0210    8.3780 C.3       8 GLP5        0.0000 
     24 CA         14.9945   23.9905    9.3520 C.3       4 GLC5        0.0000 
     25 CA         14.1910   25.2930   10.5390 C.3       8 GLP5        0.0000 
     26 CA         18.4180   22.9755    8.5225 C.3       4 GLC5        0.0000 
     27 CA         17.4950   20.9300    8.6670 C.3      12 GLL5        0.0000 
     28 OD1        14.4835   26.1460    4.3850 O.co2     3 ASC3        0.0000 
     29 OD1        13.4480   24.7090    4.3560 O.co2    11 ASL3        0.0000 
     30 OD1        15.5190   27.5830    4.4140 O.co2     7 ASP3        0.0000 
     31 OD1        14.0890   25.7045    5.3100 O.co2     3 ASC3        0.0000 
     32 OD1        14.7300   26.7000    6.2640 O.co2     7 ASP3        0.0000 
     33 OD1        14.8010   25.2365    3.4390 O.co2     3 ASC3        0.0000 
     34 OD1        16.1540   25.7640    2.5220 O.co2     7 ASP3        0.0000 
     35 OD1        13.8900   24.7110    3.1365 O.co2     3 ASC3        0.0000 
     36 OD1        14.3320   24.7130    1.9170 O.co2     7 ASP3        0.0000 
     37 CA         12.6440   26.5605    3.1170 C.3       4 GLC5        0.0000 
     38 CA         12.0320   24.7630    4.0110 C.3      12 GLL5        0.0000 
     39 CA         13.2560   28.3580    2.2230 C.3       8 GLP5        0.0000 
     40 O          10.7290   26.6945    4.2755 O.2       1 ALC1        0.0000 
     41 O          10.2390   25.7210    5.2770 O.2       9 ALL1        0.0000 
     42 O          11.2190   27.6680    3.2740 O.2       5 ALP1        0.0000 
     43 CA         10.4325   27.5265    5.9420 C.3       4 GLC5        0.0000 
     44 CA          9.2520   25.8220    6.3310 C.3      12 GLL5        0.0000 
     45 CA         11.6130   29.2310    5.5530 C.3       8 GLP5        0.0000 
     46 N           9.0060   29.1330    5.3640 N.am      2 SEC2        0.0000 
     47 N           8.4690   27.7590    5.1310 N.am     10 SEL2        0.0000 
     48 N           9.5430   30.5070    5.5970 N.am      6 SEP2        0.0000 
     49 CA         11.1605   27.7020    7.2330 C.3       4 GLC5        0.0000 
     50 CA          9.9170   26.3210    7.6220 C.3      12 GLL5        0.0000 
     51 CA         12.4040   29.0830    6.8440 C.3       8 GLP5        0.0000 
     52 CA          9.5325   27.2935   10.6440 C.3       4 GLC5        0.0000 
     53 CA          8.9790   26.5590    8.8000 C.3      12 GLL5        0.0000 
     54 CA         10.0860   28.0280   12.4880 C.3       8 GLP5        0.0000 
     55 CA          8.0480   26.2640   10.6295 C.3       4 GLC5        0.0000 
     56 CA          7.1170   25.9690   12.4590 C.3       8 GLP5        0.0000 
     57 CA          9.8035   24.7250    9.6265 C.3       4 GLC5        0.0000 
     58 CA         10.6280   22.8910   10.4530 C.3       8 GLP5        0.0000 
     59 N           8.8710   30.1915    8.0455 N.am      2 SEC2        0.0000 
     60 N           8.6800   28.8350    8.0520 N.am     10 SEL2        0.0000 
     61 N           9.0620   31.5480    8.0390 N.am      6 SEP2        0.0000 
     62 O           6.5935   29.1995    9.3670 O.2       1 ALC1        0.0000 
     63 O           7.0950   27.9840    9.3950 O.2       9 ALL1        0.0000 
     64 O           6.0920   30.4150    9.3390 O.2       5 ALP1        0.0000 
     65 O           6.8495   25.1370    6.6220 O.2       1 ALC1        0.0000 
     66 O           6.9270   26.5130    6.2110 O.2       9 ALL1        0.0000 
     67 O           6.7720   23.7610    7.0330 O.2       5 ALP1        0.0000 
     68 CA          6.5410   29.4205    5.7030 C.3       4 GLC5        0.0000 
     69 CA          5.8240   27.3850    5.8360 C.3      12 GLL5        0.0000 
     70 CA          7.2580   31.4560    5.5700 C.3       8 GLP5        0.0000 
     71 N           4.5760   25.1035    8.1655 N.am      2 SEC2        0.0000 
     72 N           4.6340   26.4200    7.6770 N.am     10 SEL2        0.0000 
     73 N           4.5180   23.7870    8.6540 N.am      6 SEP2        0.0000 
     74 CA          5.1020   21.9375    2.6555 C.3       4 GLC5        0.0000 
     75 CA          4.7300   23.1880    4.1570 C.3      12 GLL5        0.0000 
     76 CA          5.4740   20.6870    1.1540 C.3       8 GLP5        0.0000 
     77 CA         16.4961   20.6775    2.1580 C.3       4 GLC5        0.0000 
     78 CA         17.3930   22.2270    1.6260 C.3       8 GLP5        0.0000 
     79 CA         13.1320   18.4275    3.2701 C.3       4 GLC5        0.0000 
     80 CA         11.2110   18.3730    3.1520 C.3       8 GLP5        0.0000 
     81 CA         17.6335   21.3605   10.7855 C.3       4 GLC5        0.0000 
     82 CA         16.2410   21.4780    8.9030 C.3      12 GLL5        0.0000 
     83 CA         18.3990   21.5170   12.7860 C.3       8 GLP5        0.0000 
     84 CA         16.9913   20.8937   11.4552 C.3       4 GLC5        0.0000 
     85 CA         15.7790   19.6900   10.4480 C.3      12 GLL5        0.0000 
     86 CA         14.2743   19.2638    8.9962 C.3       4 GLC5        0.0000 
     87 CA         17.9318   20.4877   11.2727 C.3       4 GLC5        0.0000 
     88 CA         17.0340   19.1470   10.2060 C.3      12 GLL5        0.0000 
     89 CA         15.3669   19.6369   11.6286 C.3       4 GLC5        0.0000 
     90 CA         14.4250   19.5650   13.0920 C.3       8 GLP5        0.0000 
     91 CA          9.1685   23.3435    0.6472 C.3       4 GLC5        0.0000 
     92 CA         10.2000   23.6820    2.6270 C.3      12 GLL5        0.0000 
     93 CA          8.5500   23.5540   -1.4500 C.3       8 GLP5        0.0000 
     94 CA          8.3465   22.0332    4.4085 C.3       4 GLC5        0.0000 
     95 CA          8.0200   22.6170    2.5080 C.3      12 GLL5        0.0000 
     96 CA          7.9960   21.4660    6.1320 C.3       8 GLP5        0.0000 
     97 CA         11.0879   22.2355    1.5596 C.3       4 GLC5        0.0000 
     98 CA          9.3740   22.5840    2.8620 C.3      12 GLL5        0.0000 
     99 CA          8.7650   24.1957    0.2013 C.3       4 GLC5        0.0000 
    100 CA          9.6540   24.8160    2.0320 C.3      12 GLL5        0.0000 
    101 CA          6.6140   21.9372    1.6820 C.3       4 GLC5        0.0000 
    102 CA          7.4880   23.7580    1.9120 C.3      12 GLL5        0.0000 
    103 CA          8.1520   23.3708    0.3800 C.3       4 GLC5        0.0000 
    104 CA         10.0642   25.7305    0.8131 C.3       4 GLC5        0.0000 
    105 CA          8.3060   24.8590    1.6730 C.3      12 GLL5        0.0000 
    106 CA         11.0120   26.9070   -0.3750 C.3       8 GLP5        0.0000 
    107 CA          4.9785   23.1937    6.0800 C.3       4 GLC5        0.0000 
    108 CA          5.3280   24.4530    4.1730 C.3      12 GLL5        0.0000 
    109 CA          4.9280   22.5670    7.9950 C.3       8 GLP5        0.0000 
    110 CA          6.5125   22.6432    5.1485 C.3       4 GLC5        0.0000 
    111 CA          3.9617   23.0948    6.3075 C.3       4 GLC5        0.0000 
    112 CA          3.3710   23.0580    4.4610 C.3      12 GLL5        0.0000 
@<TRIPOS>BOND
@<TRIPOS>SUBSTRUCTURE
     1 ALC1       15 GROUP        1 X    ALC  0     ROOT ALC X 1
     2 SEC2       46 GROUP        1 X    SEC  0     **** SEC X 2
     3 ASC3       28 GROUP        1 X    ASC  0     **** ASC X 3
     4 GLC5        1 GROUP        1 X    GLC  0     **** GLC X 6
     5 ALP1       17 GROUP        1 Y    ALP  0     ROOT ALP Y 8
     6 SEP2       48 GROUP        1 Y    SEP  0     **** SEP Y 9
     7 ASP3       30 GROUP        1 Y    ASP  0     **** ASP Y 10
     8 GLP5        3 GROUP        1 Y    GLP  0     **** GLP Y 13
     9 ALL1       16 GROUP        1 Z    ALL  0     ROOT ALL Z 15
    10 SEL2       47 GROUP        1 Z    SEL  0     **** SEL Z 16
    11 ASL3       29 GROUP        1 Z    ASL  0     **** ASL Z 17
    12 GLL5        2 GROUP        1 Z    GLL  0     **** GLL Z 20
@<TRIPOS>SET

