#    Name: 1iiq_0ZR_1_ligand
#    Modification time : Tue Mar 25 07:08:46 2014

@<TRIPOS>MOLECULE
1iiq_0ZR_1_ligand
  100   102     1     0     0
SMALL
NO_CHARGES


@<TRIPOS>ATOM
      1 O1         13.9320   20.2880    5.3490 O.2       1 0ZR201      0.0000 
      2 C          15.1440   20.4740    5.3040 C.2       1 0ZR201      0.0000 
      3 O2         16.0620   19.7850    4.5090 O.3       1 0ZR201      0.0000 
      4 CT         15.6720   18.8600    3.3620 C.3       1 0ZR201      0.0000 
      5 C1         16.9730   18.3240    2.7400 C.3       1 0ZR201      0.0000 
      6 C2         14.8760   19.6640    2.3290 C.3       1 0ZR201      0.0000 
      7 C3         14.8320   17.7020    3.9310 C.3       1 0ZR201      0.0000 
      8 N          15.7950   21.4510    6.0170 N.am      1 0ZR201      0.0000 
      9 CA         15.0340   22.3750    6.8790 C.3       1 0ZR201      0.0000 
     10 C4         14.7000   23.6970    6.1860 C.3       1 0ZR201      0.0000 
     11 OS         15.8930   24.3610    5.8460 O.3       1 0ZR201      0.0000 
     12 CB         15.7980   22.6880    8.1650 C.3       1 0ZR201      0.0000 
     13 CG         16.2410   21.4780    8.9030 C.ar      1 0ZR201      0.0000 
     14 CD1        17.4950   20.9300    8.6670 C.ar      1 0ZR201      0.0000 
     15 CD2        15.3880   20.8510    9.8010 C.ar      1 0ZR201      0.0000 
     16 CE1        17.8950   19.7700    9.3130 C.ar      1 0ZR201      0.0000 
     17 CE2        15.7790   19.6900   10.4480 C.ar      1 0ZR201      0.0000 
     18 CZ         17.0340   19.1470   10.2060 C.ar      1 0ZR201      0.0000 
     19 CM         13.8770   23.4540    4.9180 C.3       1 0ZR201      0.0000 
     20 N1         13.4480   24.7090    4.3560 N.4       1 0ZR201      0.0000 
     21 CA1        12.0320   24.7630    4.0110 C.3       1 0ZR201      0.0000 
     22 C5         11.0820   24.7060    5.1980 C.2       1 0ZR201      0.0000 
     23 O          11.0980   23.7780    6.0130 O.2       1 0ZR201      0.0000 
     24 CB1        11.6510   23.6540    3.0260 C.3       1 0ZR201      0.0000 
     25 CG1        10.2000   23.6820    2.6270 C.ar      1 0ZR201      0.0000 
     26 CD11        9.3740   22.5840    2.8620 C.ar      1 0ZR201      0.0000 
     27 CD21        9.6540   24.8160    2.0320 C.ar      1 0ZR201      0.0000 
     28 CE11        8.0200   22.6170    2.5080 C.ar      1 0ZR201      0.0000 
     29 CE21        8.3060   24.8590    1.6730 C.ar      1 0ZR201      0.0000 
     30 CZ1         7.4880   23.7580    1.9120 C.ar      1 0ZR201      0.0000 
     31 N2         10.2390   25.7210    5.2770 N.am      1 0ZR201      0.0000 
     32 CA2         9.2520   25.8220    6.3310 C.3       1 0ZR201      0.0000 
     33 C6          8.1760   26.7930    5.8500 C.2       1 0ZR201      0.0000 
     34 O3          8.4690   27.7590    5.1310 O.2       1 0ZR201      0.0000 
     35 CB2         9.9170   26.3210    7.6220 C.3       1 0ZR201      0.0000 
     36 CG2         8.9790   26.5590    8.8000 C.3       1 0ZR201      0.0000 
     37 CD          8.2300   27.8940    8.7110 C.2       1 0ZR201      0.0000 
     38 OE1         8.6800   28.8350    8.0520 O.2       1 0ZR201      0.0000 
     39 NE2         7.0950   27.9840    9.3950 N.am      1 0ZR201      0.0000 
     40 N3          6.9270   26.5130    6.2110 N.am      1 0ZR201      0.0000 
     41 CA3         5.8240   27.3850    5.8360 C.3       1 0ZR201      0.0000 
     42 C7          4.7630   27.3850    6.9280 C.2       1 0ZR201      0.0000 
     43 O4          4.6340   26.4200    7.6770 O.2       1 0ZR201      0.0000 
     44 CB3         5.2330   26.9550    4.4810 C.3       1 0ZR201      0.0000 
     45 CG3         4.5860   25.5900    4.4880 C.ar      1 0ZR201      0.0000 
     46 CD12        3.2310   25.4460    4.7910 C.ar      1 0ZR201      0.0000 
     47 CD22        5.3280   24.4530    4.1730 C.ar      1 0ZR201      0.0000 
     48 CE12        2.6200   24.1870    4.7790 C.ar      1 0ZR201      0.0000 
     49 CE22        4.7300   23.1880    4.1570 C.ar      1 0ZR201      0.0000 
     50 CZ2         3.3710   23.0580    4.4610 C.ar      1 0ZR201      0.0000 
     51 N4          4.0190   28.4790    7.0370 N.am      1 0ZR201      0.0000 
     52 H          16.8069   21.5746    5.9805 H         1 0ZR201      0.0000 
     53 H          14.0865   21.9128    7.1748 H         1 0ZR201      0.0000 
     54 H          14.0983   24.2865    6.8646 H         1 0ZR201      0.0000 
     55 H          15.1494   23.3078    8.8110 H         1 0ZR201      0.0000 
     56 H          16.6722   23.3128    7.9051 H         1 0ZR201      0.0000 
     57 H          18.1375   21.3931    8.0014 H         1 0ZR201      0.0000 
     58 H          14.4554   21.2539    9.9873 H         1 0ZR201      0.0000 
     59 H          18.8251   19.3726    9.1318 H         1 0ZR201      0.0000 
     60 H          15.1390   19.2278   11.1097 H         1 0ZR201      0.0000 
     61 H          17.3242   18.2863   10.6868 H         1 0ZR201      0.0000 
     62 H          13.0230   22.8223    5.1880 H         1 0ZR201      0.0000 
     63 H          14.5021   22.8920    4.2146 H         1 0ZR201      0.0000 
     64 H          11.8193   25.7191    3.4791 H         1 0ZR201      0.0000 
     65 H          11.8890   22.6809    3.4850 H         1 0ZR201      0.0000 
     66 H          12.2827   23.7506    2.1283 H         1 0ZR201      0.0000 
     67 H           9.7627   21.7356    3.3020 H         1 0ZR201      0.0000 
     68 H          10.2540   25.6384    1.8530 H         1 0ZR201      0.0000 
     69 H           7.4246   21.8025    2.6881 H         1 0ZR201      0.0000 
     70 H           7.9194   25.7023    1.2332 H         1 0ZR201      0.0000 
     71 H           6.4963   23.7868    1.6500 H         1 0ZR201      0.0000 
     72 H          10.2423   26.5032    4.5815 H         1 0ZR201      0.0000 
     73 H           8.7963   24.8714    6.5170 H         1 0ZR201      0.0000 
     74 H          10.4580   27.2635    7.3972 H         1 0ZR201      0.0000 
     75 H          10.6938   25.5879    7.9234 H         1 0ZR201      0.0000 
     76 H           9.5584   26.5389    9.7326 H         1 0ZR201      0.0000 
     77 H           8.2454   25.7433    8.8478 H         1 0ZR201      0.0000 
     78 H           6.8344   27.1759    9.9233 H         1 0ZR201      0.0000 
     79 H           6.6036   28.8517    9.3199 H         1 0ZR201      0.0000 
     80 H           6.6791   25.6747    6.7678 H         1 0ZR201      0.0000 
     81 H           6.1873   28.4092    5.7235 H         1 0ZR201      0.0000 
     82 H           6.0409   26.9755    3.7276 H         1 0ZR201      0.0000 
     83 H           4.4912   27.7123    4.1697 H         1 0ZR201      0.0000 
     84 H           2.6697   26.2800    5.0278 H         1 0ZR201      0.0000 
     85 H           6.3314   24.5426    3.9483 H         1 0ZR201      0.0000 
     86 H           1.6243   24.0993    5.0036 H         1 0ZR201      0.0000 
     87 H           5.2858   22.3603    3.9234 H         1 0ZR201      0.0000 
     88 H           2.9307   22.1317    4.4490 H         1 0ZR201      0.0000 
     89 H           4.2175   29.2127    6.3871 H         1 0ZR201      0.0000 
     90 H           3.3273   28.4706    7.7591 H         1 0ZR201      0.0000 
     91 H          17.5503   19.0628    2.3923 H         1 0ZR201      0.0000 
     92 H          17.5191   17.8130    3.4039 H         1 0ZR201      0.0000 
     93 H          16.7919   17.7080    1.9734 H         1 0ZR201      0.0000 
     94 H          15.4104   20.4231    1.9573 H         1 0ZR201      0.0000 
     95 H          14.5937   19.0975    1.5548 H         1 0ZR201      0.0000 
     96 H          14.0450   20.0561    2.7237 H         1 0ZR201      0.0000 
     97 H          15.3401   17.1740    4.6115 H         1 0ZR201      0.0000 
     98 H          13.9997   18.0311    4.3771 H         1 0ZR201      0.0000 
     99 H          14.5483   17.0628    3.2162 H         1 0ZR201      0.0000 
    100 H          15.6012   25.2388    5.4660 H         1 0ZR201      0.0000 
@<TRIPOS>BOND
     1    2    1 2    
     2    3    2 1    
     3    8    2 am   
     4    4    3 1    
     5    5    4 1    
     6    6    4 1    
     7    7    4 1    
     8   91    5 1    
     9   92    5 1    
    10   93    5 1    
    11   94    6 1    
    12   95    6 1    
    13   96    6 1    
    14   97    7 1    
    15   98    7 1    
    16   99    7 1    
    17    9    8 1    
    18   52    8 1    
    19   10    9 1    
    20   12    9 1    
    21   53    9 1    
    22   11   10 1    
    23   19   10 1    
    24   54   10 1    
    25  100   11 1    
    26   13   12 1    
    27   55   12 1    
    28   56   12 1    
    29   14   13 ar   
    30   15   13 ar   
    31   16   14 ar   
    32   57   14 1    
    33   17   15 ar   
    34   58   15 1    
    35   18   16 ar   
    36   59   16 1    
    37   18   17 ar   
    38   60   17 1    
    39   61   18 1    
    40   20   19 1    
    41   62   19 1    
    42   63   19 1    
    43   21   20 1    
    44   22   21 1    
    45   24   21 1    
    46   64   21 1    
    47   23   22 2    
    48   31   22 am   
    49   25   24 1    
    50   65   24 1    
    51   66   24 1    
    52   26   25 ar   
    53   27   25 ar   
    54   28   26 ar   
    55   67   26 1    
    56   29   27 ar   
    57   68   27 1    
    58   30   28 ar   
    59   69   28 1    
    60   30   29 ar   
    61   70   29 1    
    62   71   30 1    
    63   32   31 1    
    64   72   31 1    
    65   33   32 1    
    66   35   32 1    
    67   73   32 1    
    68   34   33 2    
    69   40   33 am   
    70   36   35 1    
    71   74   35 1    
    72   75   35 1    
    73   37   36 1    
    74   76   36 1    
    75   77   36 1    
    76   38   37 2    
    77   39   37 am   
    78   78   39 1    
    79   79   39 1    
    80   41   40 1    
    81   80   40 1    
    82   42   41 1    
    83   44   41 1    
    84   81   41 1    
    85   43   42 2    
    86   51   42 am   
    87   45   44 1    
    88   82   44 1    
    89   83   44 1    
    90   46   45 ar   
    91   47   45 ar   
    92   48   46 ar   
    93   84   46 1    
    94   49   47 ar   
    95   85   47 1    
    96   50   48 ar   
    97   86   48 1    
    98   50   49 ar   
    99   87   49 1    
   100   88   50 1    
   101   89   51 1    
   102   90   51 1    
@<TRIPOS>SUBSTRUCTURE
     1 0ZR201      1 GROUP   
@<TRIPOS>SET

