#    Name: 2HA0_2_CAVITY_N1_6.mol2
#    Modification time : Mon Mar 10 16:19:28 2014

@<TRIPOS>MOLECULE
2HA0_2_CAVITY_N1_6.mol2
  108     0     6     0     0
SMALL
NO_CHARGES


@<TRIPOS>ATOM
      1 N          19.0603  -10.8397  -34.6965 N.2       2 ALA2        0.0000 
      2 CA         19.8253  -10.9067  -35.9850 C.3       5 GLY6        0.0000 
      3 N          17.0855  -11.3309  -34.0972 N.2       2 ALA2        0.0000 
      4 DU         17.8505  -11.3979  -35.3858 H         6 CUB7        0.0000 
      5 CA         18.6156  -11.4648  -36.6743 C.3       5 GLY6        0.0000 
      6 N          15.8758  -11.8890  -34.7865 N.2       2 ALA2        0.0000 
      7 DU         16.6408  -11.9560  -36.0750 H         6 CUB7        0.0000 
      8 CA         17.4058  -12.0229  -37.3635 C.3       5 GLY6        0.0000 
      9 N          14.6661  -12.4472  -35.4758 N.2       2 ALA2        0.0000 
     10 DU         15.4311  -12.5141  -36.7643 H         6 CUB7        0.0000 
     11 CA         16.1961  -12.5811  -38.0528 C.3       5 GLY6        0.0000 
     12 N          12.6913  -12.9383  -34.8765 N.2       2 ALA2        0.0000 
     13 DU         13.4563  -13.0053  -36.1650 H         6 CUB7        0.0000 
     14 DU         14.2214  -13.0722  -37.4535 H         6 CUB7        0.0000 
     15 CA         14.9864  -13.1392  -38.7420 C.3       5 GLY6        0.0000 
     16 CZ         11.4816  -13.4964  -35.5657 C.ar      4 PHE5        0.0000 
     17 OG         13.0116  -13.6304  -38.1428 O.2       1 SER1        0.0000 
     18 CZ         12.5511   -6.1924  -33.5641 C.ar      4 PHE5        0.0000 
     19 O          13.3161   -6.2593  -34.8526 O.2       2 ALA2        0.0000 
     20 CZ         14.0811   -6.3263  -36.1411 C.ar      4 PHE5        0.0000 
     21 CZ         11.3413   -6.7505  -34.2533 C.ar      4 PHE5        0.0000 
     22 CZ         12.1064   -6.8174  -35.5418 C.ar      4 PHE5        0.0000 
     23 CZ         12.8714   -6.8844  -36.8303 C.ar      4 PHE5        0.0000 
     24 CZ         10.1316   -7.3086  -34.9426 C.ar      4 PHE5        0.0000 
     25 OG         10.8966   -7.3756  -36.2311 O.2       1 SER1        0.0000 
     26 CZ          8.9219   -7.8667  -35.6318 C.ar      4 PHE5        0.0000 
     27 OG          9.6869   -7.9337  -36.9203 O.2       1 SER1        0.0000 
     28 NZ          8.4772   -8.4918  -37.6096 N.2       3 LYS4        0.0000 
     29 NZ          8.0325   -9.1169  -39.5874 N.2       3 LYS4        0.0000 
     30 N          18.7439  -12.1635  -33.0693 N.2       2 ALA2        0.0000 
     31 DU         19.5089  -12.2304  -34.3579 H         6 CUB7        0.0000 
     32 N          20.2739  -12.2974  -35.6464 N.2       2 ALA2        0.0000 
     33 N          16.7691  -12.6547  -32.4701 N.2       2 ALA2        0.0000 
     34 DU         17.5342  -12.7216  -33.7586 H         6 CUB7        0.0000 
     35 N          19.0642  -12.8555  -36.3356 N.2       2 ALA2        0.0000 
     36 DU         17.0895  -13.3467  -35.7364 H         6 CUB7        0.0000 
     37 O          14.9745   -7.0919  -33.8247 O.2       2 ALA2        0.0000 
     38 N          15.7395   -7.1588  -35.1132 N.2       2 ALA2        0.0000 
     39 CA         12.9997   -7.5831  -33.2254 C.3       5 GLY6        0.0000 
     40 O          13.7648   -7.6500  -34.5139 O.2       2 ALA2        0.0000 
     41 CZ         14.5298   -7.7170  -35.8024 C.ar      4 PHE5        0.0000 
     42 CA         11.7900   -8.1412  -33.9147 C.3       5 GLY6        0.0000 
     43 CA         12.5550   -8.2081  -35.2032 C.3       5 GLY6        0.0000 
     44 CZ         13.3201   -8.2751  -36.4917 C.ar      4 PHE5        0.0000 
     45 CZ         11.3453   -8.7663  -35.8924 C.ar      4 PHE5        0.0000 
     46 OG         12.1103   -8.8332  -37.1809 O.2       1 SER1        0.0000 
     47 OG         10.9006   -9.3913  -37.8702 O.2       1 SER1        0.0000 
     48 CZ         11.2090   -4.0361  -36.2191 C.ar      4 PHE5        0.0000 
     49 CZ          9.2343   -4.5272  -35.6199 C.ar      4 PHE5        0.0000 
     50 OG          9.9993   -4.5942  -36.9084 O.2       1 SER1        0.0000 
     51 CZ          8.0246   -5.0854  -36.3091 C.ar      4 PHE5        0.0000 
     52 OG          8.7896   -5.1523  -37.5976 O.2       1 SER1        0.0000 
     53 OG          7.5799   -5.7104  -38.2869 O.2       1 SER1        0.0000 
     54 OG          6.3701   -6.2686  -38.9761 O.2       1 SER1        0.0000 
     55 OG          7.1352   -6.3355  -40.2646 O.2       1 SER1        0.0000 
     56 CA          5.1604   -6.8267  -39.6654 C.3       5 GLY6        0.0000 
     57 CZ         10.7604   -2.6454  -36.5578 C.ar      4 PHE5        0.0000 
     58 CZ          8.7856   -3.1365  -35.9585 C.ar      4 PHE5        0.0000 
     59 CZ          9.5507   -3.2035  -37.2470 C.ar      4 PHE5        0.0000 
     60 O          10.3157   -3.2705  -38.5355 O.2       2 ALA2        0.0000 
     61 CZ          6.8109   -3.6277  -35.3593 C.ar      4 PHE5        0.0000 
     62 CZ          7.5759   -3.6947  -36.6478 C.ar      4 PHE5        0.0000 
     63 OG          8.3409   -3.7616  -37.9363 O.2       1 SER1        0.0000 
     64 CA          9.1060   -3.8286  -39.2248 C.3       5 GLY6        0.0000 
     65 CZ          6.3662   -4.2528  -37.3370 C.ar      4 PHE5        0.0000 
     66 DU          7.1312   -4.3197  -38.6255 H         6 CUB7        0.0000 
     67 OG          7.8962   -4.3867  -39.9140 O.2       1 SER1        0.0000 
     68 CA          5.9215   -4.8779  -39.3148 C.3       5 GLY6        0.0000 
     69 CA         18.6116   -9.4491  -35.0351 C.3       5 GLY6        0.0000 
     70 N          16.6368   -9.9402  -34.4359 N.2       2 ALA2        0.0000 
     71 CZ         17.4019  -10.0072  -35.7244 C.ar      4 PHE5        0.0000 
     72 N          14.6621  -10.4314  -33.8366 N.2       2 ALA2        0.0000 
     73 DU         15.4271  -10.4983  -35.1251 H         6 CUB7        0.0000 
     74 CZ         16.1921  -10.5653  -36.4137 C.ar      4 PHE5        0.0000 
     75 N          13.4524  -10.9895  -34.5259 N.2       2 ALA2        0.0000 
     76 DU         14.2174  -11.0565  -35.8144 H         6 CUB7        0.0000 
     77 CZ         14.9824  -11.1234  -37.1029 C.ar      4 PHE5        0.0000 
     78 CZ         12.2426  -11.5476  -35.2151 C.ar      4 PHE5        0.0000 
     79 CZ         13.0077  -11.6146  -36.5037 C.ar      4 PHE5        0.0000 
     80 CZ         13.7727  -11.6815  -37.7922 C.ar      4 PHE5        0.0000 
     81 OG         11.7979  -12.1727  -37.1929 O.2       1 SER1        0.0000 
     82 OG         12.5630  -12.2397  -38.4814 O.2       1 SER1        0.0000 
     83 N          15.4231   -8.4826  -33.4860 N.2       2 ALA2        0.0000 
     84 N          16.1882   -8.5495  -34.7745 N.2       2 ALA2        0.0000 
     85 CZ         16.9532   -8.6165  -36.0631 C.ar      4 PHE5        0.0000 
     86 CA         13.4484   -8.9738  -32.8868 C.3       5 GLY6        0.0000 
     87 N          14.2134   -9.0407  -34.1753 N.2       2 ALA2        0.0000 
     88 CZ         14.9784   -9.1077  -35.4638 C.ar      4 PHE5        0.0000 
     89 CA         13.0037   -9.5988  -34.8645 C.3       5 GLY6        0.0000 
     90 CZ         13.7687   -9.6658  -36.1530 C.ar      4 PHE5        0.0000 
     91 CZ         14.5338   -9.7327  -37.4416 C.ar      4 PHE5        0.0000 
     92 CZ         12.5590  -10.2239  -36.8423 C.ar      4 PHE5        0.0000 
     93 CZ         13.3240  -10.2909  -38.1308 C.ar      4 PHE5        0.0000 
     94 CZ         11.3493  -10.7820  -37.5316 C.ar      4 PHE5        0.0000 
     95 CZ         12.1143  -10.8490  -38.8201 C.ar      4 PHE5        0.0000 
     96 CA          8.3370   -1.7459  -36.2972 C.3       5 GLY6        0.0000 
     97 N           9.1020   -1.8128  -37.5857 N.2       2 ALA2        0.0000 
     98 CZ         11.6577   -5.4268  -35.8805 C.ar      4 PHE5        0.0000 
     99 CZ          9.6830   -5.9179  -35.2812 C.ar      4 PHE5        0.0000 
    100 OG         10.4480   -5.9849  -36.5697 O.2       1 SER1        0.0000 
    101 CZ          8.4732   -6.4760  -35.9705 C.ar      4 PHE5        0.0000 
    102 CZ          7.2635   -7.0342  -36.6597 C.ar      4 PHE5        0.0000 
    103 OG          8.0285   -7.1011  -37.9482 O.2       1 SER1        0.0000 
    104 OG          6.8188   -7.6592  -38.6375 O.2       1 SER1        0.0000 
    105 OG          7.5838   -7.7262  -39.9260 O.2       1 SER1        0.0000 
    106 OG          5.6091   -8.2174  -39.3267 O.2       1 SER1        0.0000 
    107 N           6.3741   -8.2843  -40.6153 N.2       2 ALA2        0.0000 
    108 N           7.1391   -8.3513  -41.9038 N.2       2 ALA2        0.0000 
@<TRIPOS>BOND
@<TRIPOS>SUBSTRUCTURE
     1 SER1       17 GROUP   
     2 ALA2        1 GROUP   
     3 LYS4       28 GROUP   
     4 PHE5       16 GROUP   
     5 GLY6        2 GROUP   
     6 CUB7        4 GROUP   
@<TRIPOS>SET

