#    Name: 2ha0_CHH_2_INTS_M
#    Modification time : Tue Mar 25 15:46:16 2014

@<TRIPOS>MOLECULE
2ha0_CHH_2_INTS_M
   24     0     3     0     0
SMALL
NO_CHARGES


@<TRIPOS>ATOM
      1 CA         10.5765   -7.4130  -38.4675 C.3       1 GLC5        0.0000 
      2 CA          9.9010   -8.3260  -36.6450 C.3       3 GLL5        0.0000 
      3 CA         11.2520   -6.5000  -40.2900 C.3       2 GLP5        0.0000 
      4 CA          9.2705   -9.5920  -35.9725 C.3       1 GLC5        0.0000 
      5 CA          8.6400  -10.8580  -35.3000 C.3       2 GLP5        0.0000 
      6 CA         11.8750   -7.6310  -38.4990 C.3       1 GLC5        0.0000 
      7 CA         12.4980   -8.7620  -36.7080 C.3       3 GLL5        0.0000 
      8 CA         13.7415   -8.3840  -38.0305 C.3       1 GLC5        0.0000 
      9 CA         14.9850   -8.0060  -39.3530 C.3       2 GLP5        0.0000 
     10 CA         11.9595  -13.1385  -39.0475 C.3       1 GLC5        0.0000 
     11 CA         12.4900  -12.9600  -37.0260 C.3       3 GLL5        0.0000 
     12 CA         11.4290  -13.3170  -41.0690 C.3       2 GLP5        0.0000 
     13 CA         11.1175  -11.9465  -35.7535 C.3       1 GLC5        0.0000 
     14 CA          9.7450  -10.9330  -34.4810 C.3       2 GLP5        0.0000 
     15 CA         15.8885  -12.1495  -39.1065 C.3       1 GLC5        0.0000 
     16 CA         14.7230  -12.8210  -37.7690 C.3       3 GLL5        0.0000 
     17 CA         17.0540  -11.4780  -40.4440 C.3       2 GLP5        0.0000 
     18 CA         11.0248  -10.1790  -35.7587 C.3       1 GLC5        0.0000 
     19 CA         12.1110  -10.0880  -37.3650 C.3       3 GLL5        0.0000 
     20 CA         11.8108  -11.2577  -39.3565 C.3       1 GLC5        0.0000 
     21 CA         10.8970  -12.0440  -41.0960 C.3       2 GLP5        0.0000 
     22 CA         13.6043   -9.7003  -38.9265 C.3       1 GLC5        0.0000 
     23 CA         13.3380  -10.8550  -37.8690 C.3       3 GLL5        0.0000 
     24 CA         14.4840   -8.9290  -40.2360 C.3       2 GLP5        0.0000 
@<TRIPOS>BOND
@<TRIPOS>SUBSTRUCTURE
     1 GLC5        1 GROUP        1 X    GLC  0     ROOT GLC X 6
     2 GLP5        3 GROUP        1 Y    GLP  0     ROOT GLP Y 13
     3 GLL5        2 GROUP        1 Z    GLL  0     ROOT GLL Z 20
@<TRIPOS>SET

