#    Name: 2ha0_CHH_2_ligand
#    Modification time : Tue Mar 25 15:46:16 2014

@<TRIPOS>MOLECULE
2ha0_CHH_2_ligand
   28    27     1     0     0
SMALL
NO_CHARGES


@<TRIPOS>ATOM
      1 O7         11.4690   -6.7830  -35.8390 O.2       1 CHH2602     0.0000 
      2 C5         11.3000   -7.8770  -36.3570 C.2       1 CHH2602     0.0000 
      3 C6          9.9010   -8.3260  -36.6450 C.3       1 CHH2602     0.0000 
      4 C4         12.4980   -8.7620  -36.7080 C.3       1 CHH2602     0.0000 
      5 C3         12.1110  -10.0880  -37.3650 C.3       1 CHH2602     0.0000 
      6 C2         13.3380  -10.8550  -37.8690 C.3       1 CHH2602     0.0000 
      7 N1         13.6530  -12.0710  -37.0970 N.4       1 CHH2602     0.0000 
      8 C9         12.4900  -12.9600  -37.0260 C.3       1 CHH2602     0.0000 
      9 C10        14.1070  -11.6960  -35.7480 C.3       1 CHH2602     0.0000 
     10 C8         14.7230  -12.8210  -37.7690 C.3       1 CHH2602     0.0000 
     11 H          13.0685   -8.9710  -35.7902 H         1 CHH2602     0.0000 
     12 H          13.1644   -8.2080  -37.3866 H         1 CHH2602     0.0000 
     13 H          11.4430   -9.8902  -38.2066 H         1 CHH2602     0.0000 
     14 H          11.5770  -10.7059  -36.6393 H         1 CHH2602     0.0000 
     15 H          14.2028  -10.1600  -37.8582 H         1 CHH2602     0.0000 
     16 H          13.1657  -11.1119  -38.9345 H         1 CHH2602     0.0000 
     17 H           9.8811   -9.2340  -37.0635 H         1 CHH2602     0.0000 
     18 H           9.3478   -8.3743  -35.8133 H         1 CHH2602     0.0000 
     19 H           9.4330   -7.7038  -37.2725 H         1 CHH2602     0.0000 
     20 H          12.6886  -13.7905  -36.5056 H         1 CHH2602     0.0000 
     21 H          11.7101  -12.5167  -36.5841 H         1 CHH2602     0.0000 
     22 H          12.1872  -13.2486  -37.9343 H         1 CHH2602     0.0000 
     23 H          14.3273  -12.4987  -35.1938 H         1 CHH2602     0.0000 
     24 H          14.9281  -11.1259  -35.7776 H         1 CHH2602     0.0000 
     25 H          13.4093  -11.1795  -35.2515 H         1 CHH2602     0.0000 
     26 H          15.5606  -12.2807  -37.8504 H         1 CHH2602     0.0000 
     27 H          14.9599  -13.6559  -37.2721 H         1 CHH2602     0.0000 
     28 H          14.4599  -13.0951  -38.6940 H         1 CHH2602     0.0000 
@<TRIPOS>BOND
     1    2    1 2    
     2    3    2 1    
     3    4    2 1    
     4   17    3 1    
     5   18    3 1    
     6   19    3 1    
     7    5    4 1    
     8   11    4 1    
     9   12    4 1    
    10    6    5 1    
    11   13    5 1    
    12   14    5 1    
    13    7    6 1    
    14   15    6 1    
    15   16    6 1    
    16    8    7 1    
    17    9    7 1    
    18   10    7 1    
    19   20    8 1    
    20   21    8 1    
    21   22    8 1    
    22   23    9 1    
    23   24    9 1    
    24   25    9 1    
    25   26   10 1    
    26   27   10 1    
    27   28   10 1    
@<TRIPOS>SUBSTRUCTURE
     1 CHH2602     1 GROUP   
@<TRIPOS>SET

