#    Name: 3kr5_BEY_2_INTS_M
#    Modification time : Mon Mar 24 20:17:06 2014

@<TRIPOS>MOLECULE
3kr5_BEY_2_INTS_M
   57     0    12     0     0
SMALL
NO_CHARGES


@<TRIPOS>ATOM
      1 NZ         99.0125   64.1935   11.7795 N.4       2 LYC4        0.0000 
      2 NZ         99.5270   63.6990   10.7800 N.4      10 LYL4        0.0000 
      3 NZ         98.4980   64.6880   12.7790 N.4       6 LYP4        0.0000 
      4 Zn         99.1385   64.6595   10.0855 Zn        3 ZIC7        0.0000 
      5 Zn         99.5270   63.6990   10.7800 Zn       11 ZIL7        0.0000 
      6 Zn         98.7500   65.6200    9.3910 Zn        7 ZIP7        0.0000 
      7 N          99.0125   64.1935   11.7795 N.am      1 SEC2        0.0000 
      8 N          99.5270   63.6990   10.7800 N.am      9 SEL2        0.0000 
      9 N          98.4980   64.6880   12.7790 N.am      5 SEP2        0.0000 
     10 Zn         99.7940   65.1545    9.0790 Zn        3 ZIC7        0.0000 
     11 Zn        100.8380   64.6890    8.7670 Zn       11 ZIL7        0.0000 
     12 Zn        101.3695   65.5340    9.0230 Zn        3 ZIC7        0.0000 
     13 Zn        101.9010   66.3790    9.2790 Zn        7 ZIP7        0.0000 
     14 CA        105.1830   61.9110   12.3575 C.3       4 GLC5        0.0000 
     15 CA        103.1830   62.6640   12.6870 C.3      12 GLL5        0.0000 
     16 CA        107.1830   61.1580   12.0280 C.3       8 GLP5        0.0000 
     17 CA        105.8635   61.5170   13.3475 C.3       4 GLC5        0.0000 
     18 CA        104.5440   61.8760   14.6670 C.3      12 GLL5        0.0000 
     19 CA        102.6330   60.7360    9.5685 C.3       4 GLC5        0.0000 
     20 CA        101.1060   62.1010    9.4100 C.3      12 GLL5        0.0000 
     21 CA        104.1600   59.3710    9.7270 C.3       8 GLP5        0.0000 
     22 N         102.0140   59.2305   11.4675 N.am      1 SEC2        0.0000 
     23 N         100.7410   59.3970   10.9930 N.am      9 SEL2        0.0000 
     24 N         103.2870   59.0640   11.9420 N.am      5 SEP2        0.0000 
     25 CA         98.8650   61.7895    6.9455 C.3       4 GLC5        0.0000 
     26 CA         99.7060   60.4210    8.4280 C.3      12 GLL5        0.0000 
     27 CA         98.0240   63.1580    5.4630 C.3       8 GLP5        0.0000 
     28 CA        102.0520   64.3745   14.1145 C.3       4 GLC5        0.0000 
     29 CA        102.2150   63.8480   12.4570 C.3      12 GLL5        0.0000 
     30 CA        101.4050   65.4930   15.6570 C.3       8 GLP5        0.0000 
     31 CA        102.7467   60.2500   14.4860 C.3       4 GLC5        0.0000 
     32 CA        102.1470   62.0780   14.9570 C.3      12 GLL5        0.0000 
     33 CA        103.2910   58.6360   13.3500 C.3       8 GLP5        0.0000 
     34 CA        102.5497   61.2870   18.2163 C.3       4 GLC5        0.0000 
     35 CA        102.2580   61.6500   16.2870 C.3      12 GLL5        0.0000 
     36 CA        102.2090   61.0850   19.8920 C.3       8 GLP5        0.0000 
     37 CA        101.9461   63.6939   15.5373 C.3       4 GLC5        0.0000 
     38 CA        103.6952   60.0083   14.8720 C.3       4 GLC5        0.0000 
     39 CA        103.5230   61.3280   16.7940 C.3      12 GLL5        0.0000 
     40 CA        104.6298   59.9432   17.3180 C.3       4 GLC5        0.0000 
     41 CA        104.6760   61.4330   15.9940 C.3      12 GLL5        0.0000 
     42 CA        105.1600   58.5060   18.2420 C.3       8 GLP5        0.0000 
     43 CA        103.5901   60.3951   13.6950 C.3       4 GLC5        0.0000 
     44 CA         97.7163   60.9838    6.6575 C.3       4 GLC5        0.0000 
     45 CA         98.3220   59.8470    8.2280 C.3      12 GLL5        0.0000 
     46 CA         97.6650   61.8720    4.7510 C.3       8 GLP5        0.0000 
     47 CA         95.9912   62.0727    9.0297 C.3       4 GLC5        0.0000 
     48 CA         97.2130   60.3440    8.9000 C.3      12 GLL5        0.0000 
     49 CA         95.3930   64.0950    9.2690 C.3       8 GLP5        0.0000 
     50 CA         94.5383   60.1870    6.9210 C.3       4 GLC5        0.0000 
     51 CA         95.9660   59.7570    8.6810 C.3      12 GLL5        0.0000 
     52 CA         93.1860   61.1480    5.6090 C.3       8 GLP5        0.0000 
     53 CA         97.6085   60.1803    5.9895 C.3       4 GLC5        0.0000 
     54 CA         96.9280   58.1990    7.1140 C.3      12 GLL5        0.0000 
     55 CA         96.7894   58.8012    5.3714 C.3       4 GLC5        0.0000 
     56 CA         98.1760   58.7780    7.3420 C.3      12 GLL5        0.0000 
     57 CA         96.3050   58.9900    3.3470 C.3       8 GLP5        0.0000 
@<TRIPOS>BOND
@<TRIPOS>SUBSTRUCTURE
     1 SEC2        7 GROUP        1 X    SEC  0     ROOT SEC X 2
     2 LYC4        1 GROUP        1 X    LYC  0     **** LYC X 4
     3 ZIC7        4 GROUP        1 X    ZIC  0     **** ZIC X 5
     4 GLC5       14 GROUP        1 X    GLC  0     **** GLC X 6
     5 SEP2        9 GROUP        1 Y    SEP  0     ROOT SEP Y 9
     6 LYP4        3 GROUP        1 Y    LYP  0     **** LYP Y 11
     7 ZIP7        6 GROUP        1 Y    ZIP  0     **** ZIP Y 12
     8 GLP5       16 GROUP        1 Y    GLP  0     **** GLP Y 13
     9 SEL2        8 GROUP        1 Z    SEL  0     ROOT SEL Z 16
    10 LYL4        2 GROUP        1 Z    LYL  0     **** LYL Z 18
    11 ZIL7        5 GROUP        1 Z    ZIL  0     **** ZIL Z 19
    12 GLL5       15 GROUP        1 Z    GLL  0     **** GLL Z 20
@<TRIPOS>SET

