#    Name: 3kr5_BEY_2_ligand
#    Modification time : Mon Mar 24 20:17:06 2014

@<TRIPOS>MOLECULE
3kr5_BEY_2_ligand
   47    48     1     0     0
SMALL
NO_CHARGES


@<TRIPOS>ATOM
      1 O3         99.5270   63.6990   10.7800 O.co2     1 BEY1003     0.0000 
      2 P         100.8170   63.7880    9.9790 P.3       1 BEY1003     0.0000 
      3 O4        100.8380   64.6890    8.7670 O.co2     1 BEY1003     0.0000 
      4 C19       102.1940   64.3750   11.0180 C.3       1 BEY1003     0.0000 
      5 C18       102.2150   63.8480   12.4570 C.3       1 BEY1003     0.0000 
      6 C15       103.1830   62.6640   12.6870 C.3       1 BEY1003     0.0000 
      7 C16       103.2860   62.2010   14.1390 C.ar      1 BEY1003     0.0000 
      8 C10       102.1470   62.0780   14.9570 C.ar      1 BEY1003     0.0000 
      9 C11       102.2580   61.6500   16.2870 C.ar      1 BEY1003     0.0000 
     10 C12       103.5230   61.3280   16.7940 C.ar      1 BEY1003     0.0000 
     11 C14       104.6760   61.4330   15.9940 C.ar      1 BEY1003     0.0000 
     12 C13       104.5440   61.8760   14.6670 C.ar      1 BEY1003     0.0000 
     13 N         103.3790   63.9870   10.2870 N.3       1 BEY1003     0.0000 
     14 C17       101.1060   62.1010    9.4100 C.3       1 BEY1003     0.0000 
     15 C8         99.8720   61.2580    9.6900 C.3       1 BEY1003     0.0000 
     16 C9        100.0600   60.4480   10.9750 C.2       1 BEY1003     0.0000 
     17 O2         99.5370   60.8600   12.0390 O.co2     1 BEY1003     0.0000 
     18 O1        100.7410   59.3970   10.9930 O.co2     1 BEY1003     0.0000 
     19 C7         99.7060   60.4210    8.4280 C.3       1 BEY1003     0.0000 
     20 C1         98.3220   59.8470    8.2280 C.ar      1 BEY1003     0.0000 
     21 C2         97.2130   60.3440    8.9000 C.ar      1 BEY1003     0.0000 
     22 C3         95.9660   59.7570    8.6810 C.ar      1 BEY1003     0.0000 
     23 C4         95.8150   58.6950    7.7850 C.ar      1 BEY1003     0.0000 
     24 C6         96.9280   58.1990    7.1140 C.ar      1 BEY1003     0.0000 
     25 C5         98.1760   58.7780    7.3420 C.ar      1 BEY1003     0.0000 
     26 H         102.0488   65.4416   10.9785 H         1 BEY1003     0.0000 
     27 H         101.1991   63.5290   12.7383 H         1 BEY1003     0.0000 
     28 H         102.4972   64.6676   13.1363 H         1 BEY1003     0.0000 
     29 H         104.1841   62.9579   12.3289 H         1 BEY1003     0.0000 
     30 H         102.8541   61.8183   12.0599 H         1 BEY1003     0.0000 
     31 H         101.2199   62.3064   14.5701 H         1 BEY1003     0.0000 
     32 H         101.4307   61.5745   16.8754 H         1 BEY1003     0.0000 
     33 H         103.6145   61.0079   17.7708 H         1 BEY1003     0.0000 
     34 H         105.5878   61.1924   16.3703 H         1 BEY1003     0.0000 
     35 H         105.3826   61.9627   14.0755 H         1 BEY1003     0.0000 
     36 H         101.9579   61.8111    9.9700 H         1 BEY1003     0.0000 
     37 H         101.3061   62.2364    8.3781 H         1 BEY1003     0.0000 
     38 H          99.0357   61.9200    9.7808 H         1 BEY1003     0.0000 
     39 H         100.4423   59.5935    8.4520 H         1 BEY1003     0.0000 
     40 H          99.9705   61.0448    7.5514 H         1 BEY1003     0.0000 
     41 H          97.3056   61.1293    9.5472 H         1 BEY1003     0.0000 
     42 H          95.1391   60.1131    9.1898 H         1 BEY1003     0.0000 
     43 H          94.8895   58.2866    7.6255 H         1 BEY1003     0.0000 
     44 H          96.8337   57.4184    6.4603 H         1 BEY1003     0.0000 
     45 H          99.0063   58.4104    6.8476 H         1 BEY1003     0.0000 
     46 H         104.0189   64.7487   10.1856 H         1 BEY1003     0.0000 
     47 H         103.8729   63.2482   10.7455 H         1 BEY1003     0.0000 
@<TRIPOS>BOND
     1    2    1 ar   
     2    3    2 ar   
     3    4    2 1    
     4   14    2 1    
     5    5    4 1    
     6   13    4 1    
     7   26    4 1    
     8    6    5 1    
     9   27    5 1    
    10   28    5 1    
    11    7    6 1    
    12   29    6 1    
    13   30    6 1    
    14    8    7 ar   
    15   12    7 ar   
    16    9    8 ar   
    17   31    8 1    
    18   10    9 ar   
    19   32    9 1    
    20   11   10 ar   
    21   33   10 1    
    22   12   11 ar   
    23   34   11 1    
    24   35   12 1    
    25   46   13 1    
    26   47   13 1    
    27   15   14 1    
    28   36   14 1    
    29   37   14 1    
    30   16   15 1    
    31   19   15 1    
    32   38   15 1    
    33   17   16 ar   
    34   18   16 ar   
    35   20   19 1    
    36   39   19 1    
    37   40   19 1    
    38   21   20 ar   
    39   25   20 ar   
    40   22   21 ar   
    41   41   21 1    
    42   23   22 ar   
    43   42   22 1    
    44   24   23 ar   
    45   43   23 1    
    46   25   24 ar   
    47   44   24 1    
    48   45   25 1    
@<TRIPOS>SUBSTRUCTURE
     1 BEY1003     1 GROUP   
@<TRIPOS>SET

