#    Name: 2zdx_P4A_1_INTS_M
#    Modification time : Tue Mar 25 10:37:12 2014

@<TRIPOS>MOLECULE
2zdx_P4A_1_INTS_M
   36     0     6     0     0
SMALL
NO_CHARGES


@<TRIPOS>ATOM
      1 CA        -28.0830   11.0890    9.8985 C.3       2 GLC5        0.0000 
      2 CA        -26.4690   12.4260    9.0900 C.3       6 GLL5        0.0000 
      3 CA        -29.6970    9.7520   10.7070 C.3       4 GLP5        0.0000 
      4 CA        -29.9460   12.7170   15.5600 C.3       2 GLC5        0.0000 
      5 CA        -28.0410   12.6770   15.3320 C.3       6 GLL5        0.0000 
      6 CA        -31.8510   12.7570   15.7880 C.3       4 GLP5        0.0000 
      7 CA        -27.6115    8.3545   14.0475 C.3       2 GLC5        0.0000 
      8 CA        -27.1990   10.3890   14.7360 C.3       6 GLL5        0.0000 
      9 CA        -28.0240    6.3200   13.3590 C.3       4 GLP5        0.0000 
     10 O         -28.9420   14.6365   15.9455 O.2       1 ALC1        0.0000 
     11 O         -28.4490   13.9340   15.0550 O.2       5 ALL1        0.0000 
     12 O         -29.4350   15.3390   16.8360 O.2       3 ALP1        0.0000 
     13 CA        -23.7830    6.8940   13.2505 C.3       2 GLC5        0.0000 
     14 CA        -21.8590    7.7960   13.9630 C.3       6 GLL5        0.0000 
     15 CA        -25.7070    5.9920   12.5380 C.3       4 GLP5        0.0000 
     16 CA        -20.0730    7.5040   14.3750 C.3       2 GLC5        0.0000 
     17 CA        -18.2870    7.2120   14.7870 C.3       4 GLP5        0.0000 
     18 CA        -26.6230   13.7912   12.0035 C.3       2 GLC5        0.0000 
     19 CA        -26.5820   11.7830   11.7210 C.3       6 GLL5        0.0000 
     20 CA        -26.4270   15.4890   12.8910 C.3       4 GLP5        0.0000 
     21 CA        -28.2580   10.9228   10.9115 C.3       2 GLC5        0.0000 
     22 CA        -27.1273   13.8442   13.8487 C.3       2 GLC5        0.0000 
     23 CA        -27.6140   11.7220   14.2810 C.3       6 GLL5        0.0000 
     24 CA        -25.0087    7.6424   12.1369 C.3       2 GLC5        0.0000 
     25 CA        -23.9950    8.7570   11.6560 C.3       6 GLL5        0.0000 
     26 CA        -26.1345   12.1593   16.6410 C.3       2 GLC5        0.0000 
     27 CA        -24.2370   11.8390   17.2580 C.3       4 GLP5        0.0000 
     28 CA        -26.9680   14.1857   16.7245 C.3       2 GLC5        0.0000 
     29 CA        -28.0230   12.2820   16.7160 C.3       6 GLL5        0.0000 
     30 CA        -25.9040   15.8920   17.4250 C.3       4 GLP5        0.0000 
     31 CA        -29.7602   11.5837   16.8062 C.3       2 GLC5        0.0000 
     32 CA        -31.7120   11.5490   16.7060 C.3       4 GLP5        0.0000 
     33 CA        -28.3628    8.7003   16.8530 C.3       2 GLC5        0.0000 
     34 CA        -27.5940   10.9550   17.0970 C.3       6 GLL5        0.0000 
     35 CA        -29.3320    6.9120   17.0990 C.3       4 GLP5        0.0000 
     36 CA        -25.7666   11.1389   16.4648 C.3       2 GLC5        0.0000 
@<TRIPOS>BOND
@<TRIPOS>SUBSTRUCTURE
     1 ALC1       10 GROUP        1 X    ALC  0     ROOT ALC X 1
     2 GLC5        1 GROUP        1 X    GLC  0     **** GLC X 6
     3 ALP1       12 GROUP        1 Y    ALP  0     ROOT ALP Y 8
     4 GLP5        3 GROUP        1 Y    GLP  0     **** GLP Y 13
     5 ALL1       11 GROUP        1 Z    ALL  0     ROOT ALL Z 15
     6 GLL5        2 GROUP        1 Z    GLL  0     **** GLL Z 20
@<TRIPOS>SET

