#    Name: 2zdx_P4A_1_ligand
#    Modification time : Tue Mar 25 10:37:12 2014

@<TRIPOS>MOLECULE
2zdx_P4A_1_ligand
   38    40     1     0     0
SMALL
NO_CHARGES


@<TRIPOS>ATOM
      1 N1        -28.2480   13.0680   10.7890 N.pl3     1 P4A500      0.0000 
      2 N2        -28.5620   12.8970   12.1240 N.2       1 P4A500      0.0000 
      3 C3        -27.5950   12.1220   12.7590 C.2       1 P4A500      0.0000 
      4 C4        -26.5820   11.7830   11.7210 C.2       1 P4A500      0.0000 
      5 C5        -27.0560   12.4040   10.5110 C.2       1 P4A500      0.0000 
      6 C6        -27.6140   11.7220   14.2810 C.ar      1 P4A500      0.0000 
      7 C7        -25.2900   10.9240   11.9650 C.ar      1 P4A500      0.0000 
      8 C8        -26.4690   12.4260    9.0900 C.3       1 P4A500      0.0000 
      9 C12       -24.1780   11.4370   12.7470 C.ar      1 P4A500      0.0000 
     10 C13       -23.0000   10.6490   12.9920 C.ar      1 P4A500      0.0000 
     11 C14       -22.9010    9.2960   12.4490 C.ar      1 P4A500      0.0000 
     12 C15       -23.9950    8.7570   11.6560 C.ar      1 P4A500      0.0000 
     13 C16       -25.1730    9.5590   11.4190 C.ar      1 P4A500      0.0000 
     14 C21       -28.0410   12.6770   15.3320 C.ar      1 P4A500      0.0000 
     15 C22       -28.0230   12.2820   16.7160 C.ar      1 P4A500      0.0000 
     16 C23       -27.5940   10.9550   17.0970 C.ar      1 P4A500      0.0000 
     17 C24       -27.1930   10.0220   16.1170 C.ar      1 P4A500      0.0000 
     18 C25       -27.1990   10.3890   14.7360 C.ar      1 P4A500      0.0000 
     19 O29       -27.5650   10.5990   18.4120 O.3       1 P4A500      0.0000 
     20 O30       -28.4490   13.9340   15.0550 O.3       1 P4A500      0.0000 
     21 O33       -21.7490    8.5140   12.6940 O.3       1 P4A500      0.0000 
     22 C34       -21.8590    7.7960   13.9630 C.3       1 P4A500      0.0000 
     23 H         -28.7630   13.5621   10.1532 H         1 P4A500      0.0000 
     24 H         -24.2405   12.3826   13.1300 H         1 P4A500      0.0000 
     25 H         -22.2374   11.0208   13.5369 H         1 P4A500      0.0000 
     26 H         -23.9271    7.8271   11.2753 H         1 P4A500      0.0000 
     27 H         -25.9401    9.1884   10.8690 H         1 P4A500      0.0000 
     28 H         -28.3137   12.9392   17.4332 H         1 P4A500      0.0000 
     29 H         -26.8979    9.0850   16.3861 H         1 P4A500      0.0000 
     30 H         -26.9063    9.7097   14.0255 H         1 P4A500      0.0000 
     31 H         -26.2672   13.3570    8.7859 H         1 P4A500      0.0000 
     32 H         -25.6159   11.9075    9.0325 H         1 P4A500      0.0000 
     33 H         -27.0986   12.0294    8.4219 H         1 P4A500      0.0000 
     34 H         -21.0496    7.2377   14.1452 H         1 P4A500      0.0000 
     35 H         -21.9635    8.4218   14.7359 H         1 P4A500      0.0000 
     36 H         -22.6477    7.1813   13.9748 H         1 P4A500      0.0000 
     37 H         -27.6159   11.4619   18.9148 H         1 P4A500      0.0000 
     38 H         -29.1921   14.1128   15.6999 H         1 P4A500      0.0000 
@<TRIPOS>BOND
     1    2    1 1    
     2    5    1 1    
     3   23    1 1    
     4    3    2 2    
     5    4    3 1    
     6    6    3 1    
     7    5    4 2    
     8    7    4 1    
     9    8    5 1    
    10   14    6 ar   
    11   18    6 ar   
    12    9    7 ar   
    13   13    7 ar   
    14   31    8 1    
    15   32    8 1    
    16   33    8 1    
    17   10    9 ar   
    18   24    9 1    
    19   11   10 ar   
    20   25   10 1    
    21   12   11 ar   
    22   21   11 1    
    23   13   12 ar   
    24   26   12 1    
    25   27   13 1    
    26   15   14 ar   
    27   20   14 1    
    28   16   15 ar   
    29   28   15 1    
    30   17   16 ar   
    31   19   16 1    
    32   18   17 ar   
    33   29   17 1    
    34   30   18 1    
    35   37   19 1    
    36   38   20 1    
    37   22   21 1    
    38   34   22 1    
    39   35   22 1    
    40   36   22 1    
@<TRIPOS>SUBSTRUCTURE
     1 P4A500      1 GROUP   
@<TRIPOS>SET

