#    Name: 2QGA_1_CAVITY_N1_6.mol2
#    Modification time : Tue Mar 11 07:48:19 2014

@<TRIPOS>MOLECULE
2QGA_1_CAVITY_N1_6.mol2
   79     0     5     0     0
SMALL
NO_CHARGES


@<TRIPOS>ATOM
      1 NZ         21.5285   19.6042    4.9814 N.2       3 LYS4        0.0000 
      2 NZ         21.7805   20.4518    3.7698 N.2       3 LYS4        0.0000 
      3 NZ         22.0326   21.2994    2.5582 N.2       3 LYS4        0.0000 
      4 O          18.6388   12.9833   12.7477 O.2       2 ALA2        0.0000 
      5 O          19.8992   17.2214    6.6896 O.2       2 ALA2        0.0000 
      6 NZ         20.1513   18.0690    5.4780 N.2       3 LYS4        0.0000 
      7 NZ         20.4034   18.9166    4.2663 N.2       3 LYS4        0.0000 
      8 DU         20.6554   19.7642    3.0547 H         5 CUB7        0.0000 
      9 OG         17.5137   12.2958   12.0326 O.2       1 SER1        0.0000 
     10 OG         17.7658   13.1434   10.8209 O.2       1 SER1        0.0000 
     11 OG         18.0179   13.9910    9.6093 O.2       1 SER1        0.0000 
     12 N          18.7741   16.5338    5.9745 N.2       2 ALA2        0.0000 
     13 DU         19.0262   17.3814    4.7629 H         5 CUB7        0.0000 
     14 DU         19.2782   18.2290    3.5512 H         5 CUB7        0.0000 
     15 OG         16.1365   10.7606   12.5291 O.2       1 SER1        0.0000 
     16 OG         16.3886   11.6082   11.3175 O.2       1 SER1        0.0000 
     17 OG         16.6407   12.4558   10.1059 O.2       1 SER1        0.0000 
     18 N          16.8928   13.3034    8.8942 N.2       2 ALA2        0.0000 
     19 N          17.1448   14.1510    7.6826 N.2       2 ALA2        0.0000 
     20 N          17.3969   14.9986    6.4710 N.2       2 ALA2        0.0000 
     21 CA         17.6490   15.8462    5.2594 C.3       4 GLY6        0.0000 
     22 CA         17.9011   16.6938    4.0478 C.3       4 GLY6        0.0000 
     23 O          15.2635   10.9206   10.6024 O.2       2 ALA2        0.0000 
     24 O          15.5156   11.7682    9.3908 O.2       2 ALA2        0.0000 
     25 N          15.7676   12.6158    8.1791 N.2       2 ALA2        0.0000 
     26 N          16.0197   13.4634    6.9675 N.2       2 ALA2        0.0000 
     27 N          16.2718   14.3110    5.7559 N.2       2 ALA2        0.0000 
     28 N          14.6425   11.9282    7.4641 N.2       2 ALA2        0.0000 
     29 O          20.8211   21.4808    4.2900 O.2       2 ALA2        0.0000 
     30 CA         18.6877   17.4028    8.4214 C.3       4 GLY6        0.0000 
     31 NZ         18.9397   18.2504    7.2098 N.2       3 LYS4        0.0000 
     32 NZ         19.1918   19.0980    5.9982 N.2       3 LYS4        0.0000 
     33 NZ         19.4439   19.9456    4.7866 N.2       3 LYS4        0.0000 
     34 O          19.6960   20.7932    3.5749 O.2       2 ALA2        0.0000 
     35 OG         16.8063   14.1723   11.3412 O.2       1 SER1        0.0000 
     36 CA         17.0584   15.0199   10.1296 C.3       4 GLY6        0.0000 
     37 CA         17.3105   15.8676    8.9179 C.3       4 GLY6        0.0000 
     38 N          17.5625   16.7152    7.7063 N.2       2 ALA2        0.0000 
     39 CA         17.8146   17.5628    6.4947 C.3       4 GLY6        0.0000 
     40 CA         18.0667   18.4104    5.2831 C.3       4 GLY6        0.0000 
     41 CA         18.3188   19.2580    4.0715 C.3       4 GLY6        0.0000 
     42 DU         18.5708   20.1056    2.8599 H         5 CUB7        0.0000 
     43 OG         15.6812   13.4848   10.6261 O.2       1 SER1        0.0000 
     44 N          15.9333   14.3324    9.4145 N.2       2 ALA2        0.0000 
     45 N          16.1854   15.1800    8.2028 N.2       2 ALA2        0.0000 
     46 CA         16.4374   16.0276    6.9912 C.3       4 GLY6        0.0000 
     47 CA         16.6895   16.8752    5.7796 C.3       4 GLY6        0.0000 
     48 N          14.8082   13.6448    8.6994 N.2       2 ALA2        0.0000 
     49 N          15.0602   14.4924    7.4878 N.2       2 ALA2        0.0000 
     50 NZ         17.9803   19.2793    7.7300 N.2       3 LYS4        0.0000 
     51 OG         18.2323   20.1269    6.5184 O.2       1 SER1        0.0000 
     52 OG         18.4844   20.9746    5.3068 O.2       1 SER1        0.0000 
     53 O          18.9886   22.6698    2.8836 O.2       2 ALA2        0.0000 
     54 CA         16.0989   16.0489   10.6498 C.3       4 GLY6        0.0000 
     55 CA         16.3510   16.8965    9.4382 C.3       4 GLY6        0.0000 
     56 CA         16.6031   17.7441    8.2265 C.3       4 GLY6        0.0000 
     57 CA         16.8551   18.5918    7.0149 C.3       4 GLY6        0.0000 
     58 CA         17.1072   19.4394    5.8033 C.3       4 GLY6        0.0000 
     59 OG         17.3593   20.2870    4.5917 O.2       1 SER1        0.0000 
     60 OG         17.6114   21.1346    3.3801 O.2       1 SER1        0.0000 
     61 O          15.2259   16.2090    8.7231 O.2       2 ALA2        0.0000 
     62 CA         15.4780   17.0566    7.5114 C.3       4 GLY6        0.0000 
     63 CA         16.4863   20.4470    2.6650 C.3       4 GLY6        0.0000 
     64 N          21.0619   12.6206    9.2840 N.2       2 ALA2        0.0000 
     65 N          19.6847   11.0854    9.7805 N.2       2 ALA2        0.0000 
     66 N          19.9368   11.9330    8.5689 N.2       2 ALA2        0.0000 
     67 DU         18.5596   10.3978    9.0654 H         5 CUB7        0.0000 
     68 OG         19.8504   12.8020   11.0158 O.2       1 SER1        0.0000 
     69 CA         21.1107   17.0400    4.9577 C.3       4 GLY6        0.0000 
     70 N          21.3628   17.8876    3.7461 N.2       2 ALA2        0.0000 
     71 N          21.6149   18.7352    2.5345 N.2       2 ALA2        0.0000 
     72 DU         18.4732   11.2668   11.5123 H         5 CUB7        0.0000 
     73 OG         18.7253   12.1144   10.3007 O.2       1 SER1        0.0000 
     74 N          19.9856   16.3524    4.2426 N.2       2 ALA2        0.0000 
     75 DU         17.3481   10.5792   10.7973 H         5 CUB7        0.0000 
     76 DU         17.6001   11.4268    9.5856 H         5 CUB7        0.0000 
     77 N          17.8522   12.2744    8.3740 N.2       2 ALA2        0.0000 
     78 N          18.3564   13.9696    5.9508 N.2       2 ALA2        0.0000 
     79 DU         16.7271   11.5868    7.6589 H         5 CUB7        0.0000 
@<TRIPOS>BOND
@<TRIPOS>SUBSTRUCTURE
     1 SER1        9 GROUP   
     2 ALA2        4 GROUP   
     3 LYS4        1 GROUP   
     4 GLY6       21 GROUP   
     5 CUB7        8 GROUP   
@<TRIPOS>SET

