#    Name: 2qga_AMP_1_INTS_M
#    Modification time : Mon Mar 24 22:07:49 2014

@<TRIPOS>MOLECULE
2qga_AMP_1_INTS_M
   47     0    12     0     0
SMALL
NO_CHARGES


@<TRIPOS>ATOM
      1 NZ         18.8270   23.6365    4.4920 N.4       3 LYC4        0.0000 
      2 NZ         17.5900   23.5490    3.5920 N.4      11 LYL4        0.0000 
      3 NZ         19.9980   25.0420    5.2840 N.4       7 LYP4        0.0000 
      4 N          17.0355   23.1805    4.6655 N.am      2 SEC2        0.0000 
      5 N          17.5900   23.5490    3.5920 N.am     10 SEL2        0.0000 
      6 N          16.4810   22.8120    5.7390 N.am      6 SEP2        0.0000 
      7 N          18.3560   24.5820    4.0165 N.am      2 SEC2        0.0000 
      8 N          19.1220   25.6150    4.4410 N.am      6 SEP2        0.0000 
      9 N          18.8270   23.6365    4.4920 N.am      2 SEC2        0.0000 
     10 N          20.0640   23.7240    5.3920 N.am      6 SEP2        0.0000 
     11 N          19.4875   22.6350    4.2085 N.am      2 SEC2        0.0000 
     12 N          18.9110   21.5460    3.0250 N.am     10 SEL2        0.0000 
     13 CA         16.7515   19.2435    3.6675 C.3       4 GLC5        0.0000 
     14 CA         18.2770   20.5180    3.7810 C.3      12 GLL5        0.0000 
     15 CA         15.2260   17.9690    3.5540 C.3       8 GLP5        0.0000 
     16 CA         16.6745   21.5495    4.7270 C.3       4 GLC5        0.0000 
     17 CA         15.0720   22.5810    5.6730 C.3       8 GLP5        0.0000 
     18 N          22.6360   18.5580    5.2110 N.am      2 SEC2        0.0000 
     19 N          21.5360   18.8720    4.0470 N.am     10 SEL2        0.0000 
     20 N          23.7360   18.2440    6.3750 N.am      6 SEP2        0.0000 
     21 CA         21.5340   16.8190    4.5370 C.3       4 GLC5        0.0000 
     22 CA         19.4910   17.4660    3.9570 C.3      12 GLL5        0.0000 
     23 CA         23.5770   16.1720    5.1170 C.3       8 GLP5        0.0000 
     24 O          21.5510   16.0790    3.1115 O.2       1 ALC1        0.0000 
     25 O          20.3060   16.2990    3.7890 O.2       9 ALL1        0.0000 
     26 O          22.7960   15.8590    2.4340 O.2       5 ALP1        0.0000 
     27 CA         20.0690   15.8545    6.0000 C.3       4 GLC5        0.0000 
     28 CA         19.2010   17.6580    5.4340 C.3      12 GLL5        0.0000 
     29 CA         20.9370   14.0510    6.5660 C.3       8 GLP5        0.0000 
     30 O          14.2460   14.0515    6.9715 O.2       1 ALC1        0.0000 
     31 O          14.9520   14.4520    8.3330 O.2       9 ALL1        0.0000 
     32 O          13.5400   13.6510    5.6100 O.2       5 ALP1        0.0000 
     33 N          15.5565   16.0650   10.5675 N.am      2 SEC2        0.0000 
     34 N          15.8640   16.4700    9.2640 N.am     10 SEL2        0.0000 
     35 N          15.2490   15.6600   11.8710 N.am      6 SEP2        0.0000 
     36 CA         17.8020   17.0640   10.4750 C.3       4 GLC5        0.0000 
     37 CA         16.6840   17.5550    9.1690 C.3      12 GLL5        0.0000 
     38 CA         18.9200   16.5730   11.7810 C.3       8 GLP5        0.0000 
     39 CA         15.3565   18.0860   10.6515 C.3       4 GLC5        0.0000 
     40 CA         14.0290   18.6170   12.1340 C.3       8 GLP5        0.0000 
     41 CA         15.5890   18.1405    7.4800 C.3       4 GLC5        0.0000 
     42 CA         14.4940   18.7260    5.7910 C.3       8 GLP5        0.0000 
     43 CA         19.2305   15.4435    6.8335 C.3       4 GLC5        0.0000 
     44 CA         17.5240   16.8360    7.1010 C.3      12 GLL5        0.0000 
     45 CA         17.2860   17.7655    4.1247 C.3       4 GLC5        0.0000 
     46 CA         15.6811   17.4700    6.5976 C.3       4 GLC5        0.0000 
     47 CA         16.6380   15.6720    7.1210 C.3      12 GLL5        0.0000 
@<TRIPOS>BOND
@<TRIPOS>SUBSTRUCTURE
     1 ALC1       24 GROUP        1 X    ALC  0     ROOT ALC X 1
     2 SEC2        4 GROUP        1 X    SEC  0     **** SEC X 2
     3 LYC4        1 GROUP        1 X    LYC  0     **** LYC X 4
     4 GLC5       13 GROUP        1 X    GLC  0     **** GLC X 6
     5 ALP1       26 GROUP        1 Y    ALP  0     ROOT ALP Y 8
     6 SEP2        6 GROUP        1 Y    SEP  0     **** SEP Y 9
     7 LYP4        3 GROUP        1 Y    LYP  0     **** LYP Y 11
     8 GLP5       15 GROUP        1 Y    GLP  0     **** GLP Y 13
     9 ALL1       25 GROUP        1 Z    ALL  0     ROOT ALL Z 15
    10 SEL2        5 GROUP        1 Z    SEL  0     **** SEL Z 16
    11 LYL4        2 GROUP        1 Z    LYL  0     **** LYL Z 18
    12 GLL5       14 GROUP        1 Z    GLL  0     **** GLL Z 20
@<TRIPOS>SET

