#    Name: 2qga_AMP_1_ligand
#    Modification time : Mon Mar 24 22:07:50 2014

@<TRIPOS>MOLECULE
2qga_AMP_1_ligand
   35    37     1     0     0
SMALL
NO_CHARGES


@<TRIPOS>ATOM
      1 P          18.0830   22.7760    2.3800 P.3       1 AMP908      0.0000 
      2 O1P        17.5900   23.5490    3.5920 O.co2     1 AMP908      0.0000 
      3 O2P        16.9600   22.1290    1.5750 O.co2     1 AMP908      0.0000 
      4 O3P        19.1490   23.4760    1.5500 O.co2     1 AMP908      0.0000 
      5 O5'        18.9110   21.5460    3.0250 O.3       1 AMP908      0.0000 
      6 C5'        18.2770   20.5180    3.7810 C.3       1 AMP908      0.0000 
      7 C4'        19.3730   19.7890    4.5340 C.3       1 AMP908      0.0000 
      8 O4'        18.7680   19.0180    5.5520 O.3       1 AMP908      0.0000 
      9 C3'        20.1420   18.8080    3.6540 C.3       1 AMP908      0.0000 
     10 O3'        21.5360   18.8720    4.0470 O.3       1 AMP908      0.0000 
     11 C2'        19.4910   17.4660    3.9570 C.3       1 AMP908      0.0000 
     12 O2'        20.3060   16.2990    3.7890 O.3       1 AMP908      0.0000 
     13 C1'        19.2010   17.6580    5.4340 C.3       1 AMP908      0.0000 
     14 N9         18.1880   16.7200    5.9450 N.pl3     1 AMP908      0.0000 
     15 C8         17.7770   15.6200    5.2830 C.2       1 AMP908      0.0000 
     16 N7         16.8320   14.9640    5.9930 N.2       1 AMP908      0.0000 
     17 C5         16.6380   15.6720    7.1210 C.ar      1 AMP908      0.0000 
     18 C6         15.7870   15.5120    8.2940 C.ar      1 AMP908      0.0000 
     19 N6         14.9520   14.4520    8.3330 N.pl3     1 AMP908      0.0000 
     20 N1         15.8640   16.4700    9.2640 N.ar      1 AMP908      0.0000 
     21 C2         16.6840   17.5550    9.1690 C.ar      1 AMP908      0.0000 
     22 N3         17.5010   17.7340    8.1380 N.ar      1 AMP908      0.0000 
     23 C4         17.5240   16.8360    7.1010 C.ar      1 AMP908      0.0000 
     24 H          17.7667   19.8013    3.1449 H         1 AMP908      0.0000 
     25 H          17.5757   20.9199    4.5058 H         1 AMP908      0.0000 
     26 H          20.0600   20.4975    4.9424 H         1 AMP908      0.0000 
     27 H          19.9755   19.0677    2.6498 H         1 AMP908      0.0000 
     28 H          18.5526   17.4256    3.4630 H         1 AMP908      0.0000 
     29 H          20.1389   17.5288    5.9650 H         1 AMP908      0.0000 
     30 H          18.1146   15.3341    4.4094 H         1 AMP908      0.0000 
     31 H          14.6632   14.0866    7.4481 H         1 AMP908      0.0000 
     32 H          14.6965   14.1264    9.2433 H         1 AMP908      0.0000 
     33 H          16.6571   18.2684    9.9496 H         1 AMP908      0.0000 
     34 H          22.0358   19.0504    3.1994 H         1 AMP908      0.0000 
     35 H          21.0755   16.5998    3.2257 H         1 AMP908      0.0000 
@<TRIPOS>BOND
     1    2    1 ar   
     2    3    1 ar   
     3    4    1 ar   
     4    5    1 1    
     5    6    5 1    
     6    7    6 1    
     7   24    6 1    
     8   25    6 1    
     9    8    7 1    
    10    9    7 1    
    11   26    7 1    
    12   13    8 1    
    13   10    9 1    
    14   11    9 1    
    15   27    9 1    
    16   34   10 1    
    17   12   11 1    
    18   13   11 1    
    19   28   11 1    
    20   35   12 1    
    21   14   13 1    
    22   29   13 1    
    23   15   14 1    
    24   23   14 1    
    25   16   15 2    
    26   30   15 1    
    27   17   16 1    
    28   18   17 ar   
    29   23   17 ar   
    30   19   18 1    
    31   20   18 ar   
    32   31   19 1    
    33   32   19 1    
    34   21   20 ar   
    35   22   21 ar   
    36   33   21 1    
    37   23   22 ar   
@<TRIPOS>SUBSTRUCTURE
     1 AMP908      1 GROUP   
@<TRIPOS>SET

