#    Name: 4dyn_0MR_2_INTS_M
#    Modification time : Tue Mar 25 10:24:20 2014

@<TRIPOS>MOLECULE
4dyn_0MR_2_INTS_M
   66     0     6     0     0
SMALL
NO_CHARGES


@<TRIPOS>ATOM
      1 CA         -4.2110  -37.1860    8.4970 C.3       2 GLC5        0.0000 
      2 CA         -3.9220  -36.5960   10.4040 C.3       6 GLL5        0.0000 
      3 CA         -4.5000  -37.7760    6.5900 C.3       4 GLP5        0.0000 
      4 CA         -3.5390  -39.5515   13.6320 C.3       2 GLC5        0.0000 
      5 CA         -4.8180  -38.2200   12.4040 C.3       6 GLL5        0.0000 
      6 CA         -2.2600  -40.8830   14.8600 C.3       4 GLP5        0.0000 
      7 CA          1.8960  -37.5280   15.0770 C.3       2 GLC5        0.0000 
      8 CA          0.3000  -36.1550   14.8500 C.3       6 GLL5        0.0000 
      9 CA          3.4920  -38.9010   15.3040 C.3       4 GLP5        0.0000 
     10 CA         -1.6210  -38.2265   11.0155 C.3       2 GLC5        0.0000 
     11 CA         -3.2280  -36.7630   11.5940 C.3       6 GLL5        0.0000 
     12 CA         -0.0140  -39.6900   10.4370 C.3       4 GLP5        0.0000 
     13 CA          3.6395  -31.1715   14.6175 C.3       2 GLC5        0.0000 
     14 CA          2.5440  -32.0890   12.9840 C.3       6 GLL5        0.0000 
     15 CA          4.7350  -30.2540   16.2510 C.3       4 GLP5        0.0000 
     16 CA          1.5495  -32.0940   14.5510 C.3       2 GLC5        0.0000 
     17 CA          0.5550  -32.0990   16.1180 C.3       4 GLP5        0.0000 
     18 CA          5.3220  -32.4625    9.9990 C.3       2 GLC5        0.0000 
     19 CA          3.6190  -32.8250   10.3990 C.3       6 GLL5        0.0000 
     20 CA          7.0250  -32.1000    9.5990 C.3       4 GLP5        0.0000 
     21 CA          4.7470  -30.1620   13.3840 C.3       2 GLC5        0.0000 
     22 CA          3.6400  -31.2720   12.3030 C.3       6 GLL5        0.0000 
     23 CA          5.8540  -29.0520   14.4650 C.3       4 GLP5        0.0000 
     24 CA          5.3325  -31.6860   10.9510 C.3       2 GLC5        0.0000 
     25 CA          5.8535  -27.8580   11.5235 C.3       2 GLC5        0.0000 
     26 CA          5.7440  -27.8880    9.4710 C.3       6 GLL5        0.0000 
     27 CA          5.9630  -27.8280   13.5760 C.3       4 GLP5        0.0000 
     28 CA          6.0765  -26.9280    7.7060 C.3       2 GLC5        0.0000 
     29 CA          6.4090  -25.9680    5.9410 C.3       4 GLP5        0.0000 
     30 CA          4.0955  -26.9785    8.8475 C.3       2 GLC5        0.0000 
     31 CA          2.4470  -26.0690    8.2240 C.3       4 GLP5        0.0000 
     32 CA          6.8825  -29.0035    9.0525 C.3       2 GLC5        0.0000 
     33 CA          8.0210  -30.1190    8.6340 C.3       4 GLP5        0.0000 
     34 CA         -0.8140  -28.6015    9.7270 C.3       2 GLC5        0.0000 
     35 CA         -0.1420  -30.7160    9.3790 C.3       6 GLL5        0.0000 
     36 CA         -1.4860  -26.4870   10.0750 C.3       4 GLP5        0.0000 
     37 N           2.9340  -29.8165    7.8420 N.am      1 SEC2        0.0000 
     38 N           3.6140  -30.3810    8.7800 N.am      5 SEL2        0.0000 
     39 N           2.2540  -29.2520    6.9040 N.am      3 SEP2        0.0000 
     40 CA          4.6540  -32.7320   15.6750 C.3       2 GLC5        0.0000 
     41 CA          3.7010  -34.1480   15.2580 C.3       6 GLL5        0.0000 
     42 CA          5.6070  -31.3160   16.0920 C.3       4 GLP5        0.0000 
     43 CA          2.1280  -33.1235   15.6880 C.3       2 GLC5        0.0000 
     44 CA          3.8160  -35.6230   16.5235 C.3       2 GLC5        0.0000 
     45 CA          3.9310  -37.0980   17.7890 C.3       4 GLP5        0.0000 
     46 CA          4.8630  -34.9560   14.1345 C.3       2 GLC5        0.0000 
     47 CA          6.0250  -35.7640   13.0110 C.3       4 GLP5        0.0000 
     48 CA         -5.5720  -38.1220    8.7920 C.3       2 GLC5        0.0000 
     49 CA         -5.5830  -38.1180   11.2500 C.3       6 GLL5        0.0000 
     50 CA         -5.7940  -38.5400    6.8420 C.3       4 GLP5        0.0000 
     51 CA          0.0640  -27.3075   12.1128 C.3       2 GLC5        0.0000 
     52 CA          1.5570  -28.8950   12.1080 C.3       6 GLL5        0.0000 
     53 CA         -1.3210  -25.8350   11.4370 C.3       4 GLP5        0.0000 
     54 CA         -0.7075  -28.1987   10.8822 C.3       2 GLC5        0.0000 
     55 CA          0.6360  -29.6480   11.3740 C.3       6 GLL5        0.0000 
     56 CA          2.8978  -36.1457   16.3743 C.3       2 GLC5        0.0000 
     57 CA          1.4930  -35.6370   15.3460 C.3       6 GLL5        0.0000 
     58 CA         -4.7200  -39.5900   11.3435 C.3       2 GLC5        0.0000 
     59 CA         -4.3560  -41.2180   11.1140 C.3       4 GLP5        0.0000 
     60 CA          5.0232  -28.1455   12.0120 C.3       2 GLC5        0.0000 
     61 CA          3.6230  -28.9550   10.5810 C.3       6 GLL5        0.0000 
     62 CA          4.0200  -35.1650   13.4737 C.3       2 GLC5        0.0000 
     63 CA          1.7940  -34.3820   13.3000 C.3       6 GLL5        0.0000 
     64 CA          0.4891  -37.4930   12.8546 C.3       2 GLC5        0.0000 
     65 CA          0.5960  -34.9020   12.8070 C.3       6 GLL5        0.0000 
     66 CA          0.7170  -39.2350   11.6870 C.3       4 GLP5        0.0000 
@<TRIPOS>BOND
@<TRIPOS>SUBSTRUCTURE
     1 SEC2       37 GROUP        1 X    SEC  0     ROOT SEC X 2
     2 GLC5        1 GROUP        1 X    GLC  0     **** GLC X 6
     3 SEP2       39 GROUP        1 Y    SEP  0     ROOT SEP Y 9
     4 GLP5        3 GROUP        1 Y    GLP  0     **** GLP Y 13
     5 SEL2       38 GROUP        1 Z    SEL  0     ROOT SEL Z 16
     6 GLL5        2 GROUP        1 Z    GLL  0     **** GLL Z 20
@<TRIPOS>SET

