#    Name: 4dyn_0MR_2_ligand
#    Modification time : Tue Mar 25 10:24:20 2014

@<TRIPOS>MOLECULE
4dyn_0MR_2_ligand
   66    70     1     0     0
SMALL
NO_CHARGES


@<TRIPOS>ATOM
      1 C1          0.2110  -29.1910   14.1010 C.ar      1 0MR601      0.0000 
      2 C2         -0.7060  -29.9450   13.3660 C.ar      1 0MR601      0.0000 
      3 C3         -5.1170  -37.2900   10.2340 C.ar      1 0MR601      0.0000 
      4 C4         -5.5830  -38.1180   11.2500 C.ar      1 0MR601      0.0000 
      5 C5          1.3410  -28.6650   13.4690 C.ar      1 0MR601      0.0000 
      6 C6         -0.4940  -30.1730   12.0050 C.ar      1 0MR601      0.0000 
      7 C7         -3.9220  -36.5960   10.4040 C.ar      1 0MR601      0.0000 
      8 C8          0.5960  -34.9020   12.8070 C.ar      1 0MR601      0.0000 
      9 C9          1.4930  -35.6370   15.3460 C.ar      1 0MR601      0.0000 
     10 C10        -4.8180  -38.2200   12.4040 C.ar      1 0MR601      0.0000 
     11 C11         1.5570  -28.8950   12.1080 C.ar      1 0MR601      0.0000 
     12 C12         3.6230  -28.9550   10.5810 C.2       1 0MR601      0.0000 
     13 C13         1.7940  -34.3820   13.3000 C.ar      1 0MR601      0.0000 
     14 C14        -0.1510  -35.7920   13.5820 C.ar      1 0MR601      0.0000 
     15 C15         0.3000  -36.1550   14.8500 C.ar      1 0MR601      0.0000 
     16 C16         0.6360  -29.6480   11.3740 C.ar      1 0MR601      0.0000 
     17 C17         2.2360  -34.7500   14.5730 C.ar      1 0MR601      0.0000 
     18 C18         2.7340  -28.3350   11.4850 C.2       1 0MR601      0.0000 
     19 C19        -3.2280  -36.7630   11.5940 C.ar      1 0MR601      0.0000 
     20 C20         4.5440  -27.9710   10.3150 C.2       1 0MR601      0.0000 
     21 C21         3.6180  -30.3140   10.0070 C.2       1 0MR601      0.0000 
     22 C22        -1.9510  -36.0550   11.8280 C.2       1 0MR601      0.0000 
     23 C23         2.4810  -33.6200   11.0420 C.3       1 0MR601      0.0000 
     24 C24         2.5440  -32.0890   12.9840 C.3       1 0MR601      0.0000 
     25 C25         3.6190  -32.8250   10.3990 C.3       1 0MR601      0.0000 
     26 C26         3.6400  -31.2720   12.3030 C.3       1 0MR601      0.0000 
     27 C27         5.7440  -27.8880    9.4710 C.3       1 0MR601      0.0000 
     28 C28        -0.1420  -30.7160    9.3790 C.3       1 0MR601      0.0000 
     29 N29        -3.6500  -37.5630   12.6000 N.ar      1 0MR601      0.0000 
     30 N30         3.0880  -27.0760   11.7610 N.2       1 0MR601      0.0000 
     31 N31         2.5200  -33.4820   12.5040 N.3       1 0MR601      0.0000 
     32 N32         3.6190  -31.4290   10.8500 N.am      1 0MR601      0.0000 
     33 N33        -1.3470  -36.3080   13.0740 N.am      1 0MR601      0.0000 
     34 N34        -0.4310  -37.0560   15.6650 N.pl3     1 0MR601      0.0000 
     35 O35         0.0260  -37.3230   16.7980 O.2       1 0MR601      0.0000 
     36 O36         3.6140  -30.3810    8.7800 O.2       1 0MR601      0.0000 
     37 O37        -1.4670  -35.3030   10.9820 O.2       1 0MR601      0.0000 
     38 O38        -1.3020  -37.7700   15.1170 O.2       1 0MR601      0.0000 
     39 O39         4.2350  -26.8470   11.0150 O.3       1 0MR601      0.0000 
     40 O40         0.8140  -29.8870   10.0380 O.3       1 0MR601      0.0000 
     41 CL4         3.7010  -34.1480   15.2580 Cl        1 0MR601      0.0000 
     42 H           0.0565  -29.0237   15.0998 H         1 0MR601      0.0000 
     43 H          -1.5379  -30.3325   13.8274 H         1 0MR601      0.0000 
     44 H          -5.6506  -37.1908    9.3638 H         1 0MR601      0.0000 
     45 H          -6.4521  -38.6292   11.1499 H         1 0MR601      0.0000 
     46 H           2.0154  -28.1070   14.0075 H         1 0MR601      0.0000 
     47 H          -1.1702  -30.7279   11.4665 H         1 0MR601      0.0000 
     48 H          -3.5688  -35.9832    9.6738 H         1 0MR601      0.0000 
     49 H           0.2636  -34.6304   11.8745 H         1 0MR601      0.0000 
     50 H           1.8235  -35.9086   16.2791 H         1 0MR601      0.0000 
     51 H          -5.1833  -38.8565   13.1731 H         1 0MR601      0.0000 
     52 H           2.5862  -34.6686   10.7489 H         1 0MR601      0.0000 
     53 H           1.5333  -33.2472   10.6428 H         1 0MR601      0.0000 
     54 H           1.5786  -31.5998   12.7909 H         1 0MR601      0.0000 
     55 H           2.7160  -32.0600   14.0694 H         1 0MR601      0.0000 
     56 H           3.5018  -32.8802    9.3086 H         1 0MR601      0.0000 
     57 H           4.5672  -33.3155   10.6560 H         1 0MR601      0.0000 
     58 H           4.6105  -31.5915   12.7151 H         1 0MR601      0.0000 
     59 H           3.5022  -30.2153   12.5824 H         1 0MR601      0.0000 
     60 H          -1.8825  -36.9939   13.7228 H         1 0MR601      0.0000 
     61 H           6.1747  -26.9871    9.5253 H         1 0MR601      0.0000 
     62 H           6.4344  -28.5596    9.7399 H         1 0MR601      0.0000 
     63 H           5.5328  -28.0543    8.5078 H         1 0MR601      0.0000 
     64 H           0.0739  -30.8335    8.4097 H         1 0MR601      0.0000 
     65 H          -0.1825  -31.6298    9.7832 H         1 0MR601      0.0000 
     66 H          -1.0640  -30.3321    9.4295 H         1 0MR601      0.0000 
@<TRIPOS>BOND
     1    2    1 ar   
     2    5    1 ar   
     3   42    1 1    
     4    6    2 ar   
     5   43    2 1    
     6    4    3 ar   
     7    7    3 ar   
     8   44    3 1    
     9   10    4 ar   
    10   45    4 1    
    11   11    5 ar   
    12   46    5 1    
    13   16    6 ar   
    14   47    6 1    
    15   19    7 ar   
    16   48    7 1    
    17   13    8 ar   
    18   14    8 ar   
    19   49    8 1    
    20   15    9 ar   
    21   17    9 ar   
    22   50    9 1    
    23   29   10 ar   
    24   51   10 1    
    25   16   11 ar   
    26   18   11 1    
    27   18   12 1    
    28   20   12 2    
    29   21   12 1    
    30   17   13 ar   
    31   31   13 1    
    32   15   14 ar   
    33   33   14 1    
    34   34   15 1    
    35   40   16 1    
    36   41   17 1    
    37   30   18 2    
    38   22   19 1    
    39   29   19 ar   
    40   27   20 1    
    41   39   20 1    
    42   32   21 am   
    43   36   21 2    
    44   33   22 am   
    45   37   22 2    
    46   25   23 1    
    47   31   23 1    
    48   52   23 1    
    49   53   23 1    
    50   26   24 1    
    51   31   24 1    
    52   54   24 1    
    53   55   24 1    
    54   32   25 1    
    55   56   25 1    
    56   57   25 1    
    57   32   26 1    
    58   58   26 1    
    59   59   26 1    
    60   61   27 1    
    61   62   27 1    
    62   63   27 1    
    63   40   28 1    
    64   64   28 1    
    65   65   28 1    
    66   66   28 1    
    67   39   30 1    
    68   60   33 1    
    69   35   34 2    
    70   38   34 2    
@<TRIPOS>SUBSTRUCTURE
     1 0MR601      1 GROUP   
@<TRIPOS>SET

