#    Name: 1s9p_DES_3_INTS_M
#    Modification time : Tue Mar 25 02:09:09 2014

@<TRIPOS>MOLECULE
1s9p_DES_3_INTS_M
   66     0     6     0     0
SMALL
NO_CHARGES


@<TRIPOS>ATOM
      1 CA         60.3495   66.7960   10.1520 C.3       2 GLC5        0.0000 
      2 CA         58.7980   66.3470   11.1870 C.3       6 GLL5        0.0000 
      3 CA         61.9010   67.2450    9.1170 C.3       4 GLP5        0.0000 
      4 CA         58.8210   68.0500   12.5175 C.3       2 GLC5        0.0000 
      5 CA         58.8440   69.7530   13.8480 C.3       4 GLP5        0.0000 
      6 CA         58.4970   67.2205   15.7165 C.3       2 GLC5        0.0000 
      7 CA         59.2870   65.3590   15.4490 C.3       6 GLL5        0.0000 
      8 CA         57.7070   69.0820   15.9840 C.3       4 GLP5        0.0000 
      9 CA         62.4320   68.1335   17.1090 C.3       2 GLC5        0.0000 
     10 CA         61.2330   66.7560   16.0430 C.3       6 GLL5        0.0000 
     11 CA         63.6310   69.5110   18.1750 C.3       4 GLP5        0.0000 
     12 O          61.7940   67.0220   18.1840 O.2       1 ALC1        0.0000 
     13 O          61.9960   67.4700   16.9400 O.2       5 ALL1        0.0000 
     14 O          61.5920   66.5740   19.4280 O.2       3 ALP1        0.0000 
     15 CA         61.9925   64.7005   12.4860 C.3       2 GLC5        0.0000 
     16 CA         60.9480   65.9880   13.7470 C.3       6 GLL5        0.0000 
     17 CA         63.0370   63.4130   11.2250 C.3       4 GLP5        0.0000 
     18 CA         61.0510   63.2935   12.0540 C.3       2 GLC5        0.0000 
     19 CA         59.0650   63.1740   12.8830 C.3       6 GLL5        0.0000 
     20 CA         60.8380   61.5850   10.8050 C.3       2 GLC5        0.0000 
     21 CA         58.8570   62.2560   10.4910 C.3       6 GLL5        0.0000 
     22 CA         62.8190   60.9140   11.1190 C.3       4 GLP5        0.0000 
     23 CA         59.5645   60.8620    8.1890 C.3       2 GLC5        0.0000 
     24 CA         58.1810   61.5030    9.4780 C.3       6 GLL5        0.0000 
     25 CA         60.9480   60.2210    6.9000 C.3       4 GLP5        0.0000 
     26 O          56.7650   60.5105    7.6910 O.2       1 ALC1        0.0000 
     27 O          56.2840   60.1160    8.8340 O.2       5 ALL1        0.0000 
     28 O          57.2460   60.9050    6.5480 O.2       3 ALP1        0.0000 
     29 CA         55.5400   62.9280   13.0115 C.3       2 GLC5        0.0000 
     30 CA         57.0860   61.7050   12.0920 C.3       6 GLL5        0.0000 
     31 CA         53.9940   64.1510   13.9310 C.3       4 GLP5        0.0000 
     32 CA         55.7645   60.9460   13.6565 C.3       2 GLC5        0.0000 
     33 CA         54.4430   60.1870   15.2210 C.3       4 GLP5        0.0000 
     34 CA         61.7565   62.1385   13.5015 C.3       2 GLC5        0.0000 
     35 CA         59.9330   62.2650   13.7740 C.3       6 GLL5        0.0000 
     36 CA         63.5800   62.0120   13.2290 C.3       4 GLP5        0.0000 
     37 CA         59.1335   62.1970   16.9030 C.3       2 GLC5        0.0000 
     38 CA         59.2070   61.6740   14.9640 C.3       6 GLL5        0.0000 
     39 CA         59.0600   62.7200   18.8420 C.3       4 GLP5        0.0000 
     40 CA         58.1555   60.0230   15.9660 C.3       2 GLC5        0.0000 
     41 CA         57.1040   58.3720   16.9680 C.3       4 GLP5        0.0000 
     42 CA         58.0855   65.6333   10.0075 C.3       2 GLC5        0.0000 
     43 CA         58.0780   65.4180   12.1110 C.3       6 GLL5        0.0000 
     44 CA         57.7330   65.3840    8.3660 C.3       4 GLP5        0.0000 
     45 CA         56.6905   65.3293   13.3895 C.3       2 GLC5        0.0000 
     46 CA         54.8600   65.6890   14.2190 C.3       4 GLP5        0.0000 
     47 CA         59.3618   64.2223   17.3907 C.3       2 GLC5        0.0000 
     48 CA         60.6702   66.2870   18.3148 C.3       2 GLC5        0.0000 
     49 CA         60.0400   66.0900   16.4300 C.3       6 GLL5        0.0000 
     50 CA         60.7040   66.1510   20.3930 C.3       4 GLP5        0.0000 
     51 CA         59.7293   67.9070   16.6118 C.3       2 GLC5        0.0000 
     52 CA         58.8220   69.3910   16.9870 C.3       4 GLP5        0.0000 
     53 CA         63.3468   66.2643   15.6760 C.3       2 GLC5        0.0000 
     54 CA         65.2300   65.7950   15.9790 C.3       4 GLP5        0.0000 
     55 CA         61.8145   67.5613   12.8345 C.3       2 GLC5        0.0000 
     56 CA         61.6940   66.7110   14.7030 C.3       6 GLL5        0.0000 
     57 CA         62.3080   68.7730   11.4440 C.3       4 GLP5        0.0000 
     58 CA         58.1260   63.6317    9.1753 C.3       2 GLC5        0.0000 
     59 CA         55.0842   61.7131   10.6409 C.3       2 GLC5        0.0000 
     60 CA         56.9670   60.8580    9.7840 C.3       6 GLL5        0.0000 
     61 CA         53.2830   62.1210   10.0160 C.3       4 GLP5        0.0000 
     62 CA         56.6753   59.3681   11.0874 C.3       2 GLC5        0.0000 
     63 CA         56.4030   60.9530   11.0950 C.3       6 GLL5        0.0000 
     64 CA         56.4650   57.4310   10.9090 C.3       4 GLP5        0.0000 
     65 CA         59.3890   60.5054   13.4706 C.3       2 GLC5        0.0000 
     66 CA         59.4250   58.8140   12.7950 C.3       4 GLP5        0.0000 
@<TRIPOS>BOND
@<TRIPOS>SUBSTRUCTURE
     1 ALC1       12 GROUP        1 X    ALC  0     ROOT ALC X 1
     2 GLC5        1 GROUP        1 X    GLC  0     **** GLC X 6
     3 ALP1       14 GROUP        1 Y    ALP  0     ROOT ALP Y 8
     4 GLP5        3 GROUP        1 Y    GLP  0     **** GLP Y 13
     5 ALL1       13 GROUP        1 Z    ALL  0     ROOT ALL Z 15
     6 GLL5        2 GROUP        1 Z    GLL  0     **** GLL Z 20
@<TRIPOS>SET

