#    Name: 1s9p_DES_3_ligand
#    Modification time : Tue Mar 25 02:09:09 2014

@<TRIPOS>MOLECULE
1s9p_DES_3_ligand
   40    41     1     0     0
SMALL
NO_CHARGES


@<TRIPOS>ATOM
      1 CP9        58.7980   66.3470   11.1870 C.3       1 DES500      0.0000 
      2 CP8        58.0780   65.4180   12.1110 C.3       1 DES500      0.0000 
      3 CP7        58.9640   64.5210   13.0090 C.2       1 DES500      0.0000 
      4 CP6        59.7380   65.3010   14.0870 C.ar      1 DES500      0.0000 
      5 CP1        59.2870   65.3590   15.4490 C.ar      1 DES500      0.0000 
      6 CP2        60.0400   66.0900   16.4300 C.ar      1 DES500      0.0000 
      7 CP3        61.2330   66.7560   16.0430 C.ar      1 DES500      0.0000 
      8 OP3        61.9960   67.4700   16.9400 O.3       1 DES500      0.0000 
      9 CP4        61.6940   66.7110   14.7030 C.ar      1 DES500      0.0000 
     10 CP5        60.9480   65.9880   13.7470 C.ar      1 DES500      0.0000 
     11 C7         59.0650   63.1740   12.8830 C.2       1 DES500      0.0000 
     12 C6         58.3150   62.3660   11.8090 C.ar      1 DES500      0.0000 
     13 C5         58.8570   62.2560   10.4910 C.ar      1 DES500      0.0000 
     14 C4         58.1810   61.5030    9.4780 C.ar      1 DES500      0.0000 
     15 C3         56.9670   60.8580    9.7840 C.ar      1 DES500      0.0000 
     16 O3         56.2840   60.1160    8.8340 O.3       1 DES500      0.0000 
     17 C2         56.4030   60.9530   11.0950 C.ar      1 DES500      0.0000 
     18 C1         57.0860   61.7050   12.0920 C.ar      1 DES500      0.0000 
     19 C8         59.9330   62.2650   13.7740 C.3       1 DES500      0.0000 
     20 C9         59.2070   61.6740   14.9640 C.3       1 DES500      0.0000 
     21 H          57.4069   64.7497   11.5238 H         1 DES500      0.0000 
     22 H          57.4023   66.0011   12.7783 H         1 DES500      0.0000 
     23 H          58.4333   64.8820   15.7199 H         1 DES500      0.0000 
     24 H          59.7163   66.1257   17.3885 H         1 DES500      0.0000 
     25 H          62.5458   67.1911   14.4383 H         1 DES500      0.0000 
     26 H          61.2780   65.9480   12.7691 H         1 DES500      0.0000 
     27 H          59.7389   62.7207   10.2675 H         1 DES500      0.0000 
     28 H          58.5832   61.4407    8.5474 H         1 DES500      0.0000 
     29 H          55.5300   60.4907   11.3077 H         1 DES500      0.0000 
     30 H          56.6843   61.7723   13.0347 H         1 DES500      0.0000 
     31 H          60.8004   62.8509   14.1277 H         1 DES500      0.0000 
     32 H          60.3370   61.4486   13.1486 H         1 DES500      0.0000 
     33 H          59.3812   66.9885   11.6854 H         1 DES500      0.0000 
     34 H          59.3862   65.8524   10.5472 H         1 DES500      0.0000 
     35 H          58.1631   66.8924   10.6398 H         1 DES500      0.0000 
     36 H          59.8071   61.0935   15.5144 H         1 DES500      0.0000 
     37 H          58.8489   62.3838   15.5706 H         1 DES500      0.0000 
     38 H          58.4308   61.1098   14.6827 H         1 DES500      0.0000 
     39 H          61.7286   67.1246   17.8396 H         1 DES500      0.0000 
     40 H          56.9143   60.0424    8.0611 H         1 DES500      0.0000 
@<TRIPOS>BOND
     1    2    1 1    
     2   33    1 1    
     3   34    1 1    
     4   35    1 1    
     5    3    2 1    
     6   21    2 1    
     7   22    2 1    
     8    4    3 1    
     9   11    3 2    
    10    5    4 ar   
    11   10    4 ar   
    12    6    5 ar   
    13   23    5 1    
    14    7    6 ar   
    15   24    6 1    
    16    8    7 1    
    17    9    7 ar   
    18   39    8 1    
    19   10    9 ar   
    20   25    9 1    
    21   26   10 1    
    22   12   11 1    
    23   19   11 1    
    24   13   12 ar   
    25   18   12 ar   
    26   14   13 ar   
    27   27   13 1    
    28   15   14 ar   
    29   28   14 1    
    30   16   15 1    
    31   17   15 ar   
    32   40   16 1    
    33   18   17 ar   
    34   29   17 1    
    35   30   18 1    
    36   20   19 1    
    37   31   19 1    
    38   32   19 1    
    39   36   20 1    
    40   37   20 1    
    41   38   20 1    
@<TRIPOS>SUBSTRUCTURE
     1 DES500      1 GROUP   
@<TRIPOS>SET

