#    Name: 1el4_CTZ_1_INTS_M
#    Modification time : Tue Mar 25 00:03:40 2014

@<TRIPOS>MOLECULE
1el4_CTZ_1_INTS_M
   74     0     9     0     0
SMALL
NO_CHARGES


@<TRIPOS>ATOM
      1 N          26.5380   12.5445   21.2700 N.am      2 SEC2        0.0000 
      2 N          27.1440   12.8210   22.4710 N.am      8 SEL2        0.0000 
      3 N          25.9320   12.2680   20.0690 N.am      5 SEP2        0.0000 
      4 CA         26.5815   11.3930   23.9075 C.3       3 GLC5        0.0000 
      5 CA         28.2960   12.1750   22.7780 C.3       9 GLL5        0.0000 
      6 CA         24.8670   10.6110   25.0370 C.3       6 GLP5        0.0000 
      7 CA         28.0125   12.7280   20.8235 C.3       3 GLC5        0.0000 
      8 CA         27.7290   13.2810   18.8690 C.3       6 GLP5        0.0000 
      9 CA         26.3930   10.4350   22.8990 C.3       3 GLC5        0.0000 
     10 CA         28.1740   10.8820   21.9590 C.3       9 GLL5        0.0000 
     11 CA         24.6120    9.9880   23.8390 C.3       6 GLP5        0.0000 
     12 CA         27.4010   11.6615   20.4265 C.3       3 GLC5        0.0000 
     13 CA         26.6280   12.4410   18.8940 C.3       6 GLP5        0.0000 
     14 N          30.1365   12.6455   26.1920 N.am      2 SEC2        0.0000 
     15 N          29.4910   11.9140   24.8490 N.am      8 SEL2        0.0000 
     16 N          30.7820   13.3770   27.5350 N.am      5 SEP2        0.0000 
     17 O          26.0005   16.6470   32.1500 O.2       1 ALC1        0.0000 
     18 O          24.8790   16.6160   31.2570 O.2       7 ALL1        0.0000 
     19 O          27.1220   16.6780   33.0430 O.2       4 ALP1        0.0000 
     20 CA         23.8635   16.6315   23.0955 C.3       3 GLC5        0.0000 
     21 CA         24.5070   14.5830   22.8520 C.3       9 GLL5        0.0000 
     22 CA         23.2200   18.6800   23.3390 C.3       6 GLP5        0.0000 
     23 CA         20.3005   10.2535   24.0540 C.3       3 GLC5        0.0000 
     24 CA         20.8060   12.2070   23.1490 C.3       9 GLL5        0.0000 
     25 CA         19.7950    8.3000   24.9590 C.3       6 GLP5        0.0000 
     26 N          30.3875   13.6375   22.6645 N.am      2 SEC2        0.0000 
     27 N          29.3590   12.6960   21.9110 N.am      8 SEL2        0.0000 
     28 N          31.4160   14.5790   23.4180 N.am      5 SEP2        0.0000 
     29 CA         27.5650   15.4298   24.7658 C.3       3 GLC5        0.0000 
     30 CA         27.3350   13.5600   26.0170 C.3       9 GLL5        0.0000 
     31 CA         28.3730   16.9040   23.4090 C.3       6 GLP5        0.0000 
     32 CA         29.8100    8.7590   19.4408 C.3       3 GLC5        0.0000 
     33 CA         30.2850    9.8260   21.0560 C.3       9 GLL5        0.0000 
     34 CA         28.7470    8.0900   17.7590 C.3       6 GLP5        0.0000 
     35 CA         30.9363    6.8102   22.0242 C.3       3 GLC5        0.0000 
     36 CA         31.4610    9.0300   21.1890 C.3       9 GLL5        0.0000 
     37 CA         30.3310    5.0010   22.2840 C.3       6 GLP5        0.0000 
     38 CA         33.4183    9.1713   21.9198 C.3       3 GLC5        0.0000 
     39 CA         31.6220    8.2090   22.3400 C.3       9 GLL5        0.0000 
     40 CA         35.2950    9.7230   22.0750 C.3       6 GLP5        0.0000 
     41 CA         29.9638    8.5568   25.2730 C.3       3 GLC5        0.0000 
     42 CA         30.6140    8.1670   23.3700 C.3       9 GLL5        0.0000 
     43 CA         29.9070    8.5430   27.2480 C.3       6 GLP5        0.0000 
     44 CA         30.1758    6.7858   22.7910 C.3       3 GLC5        0.0000 
     45 CA         28.1390    8.5570   21.1195 C.3       3 GLC5        0.0000 
     46 CA         29.4270    8.9740   23.2260 C.3       9 GLL5        0.0000 
     47 CA         27.2080    7.4520   19.6210 C.3       6 GLP5        0.0000 
     48 CA         26.7092   17.2912   28.7340 C.3       3 GLC5        0.0000 
     49 CA         26.8770   15.2200   28.5010 C.3       9 GLL5        0.0000 
     50 CA         26.7050   19.0780   28.3420 C.3       6 GLP5        0.0000 
     51 CA         24.9592   17.5448   29.1998 C.3       3 GLC5        0.0000 
     52 CA         25.1840   16.0620   30.0550 C.3       9 GLL5        0.0000 
     53 CA         25.2560   19.1750   28.8120 C.3       6 GLP5        0.0000 
     54 CA         22.3858   16.0600   28.1300 C.3       3 GLC5        0.0000 
     55 CA         24.1410   15.7670   29.1200 C.3       9 GLL5        0.0000 
     56 CA         20.4570   16.6420   27.7760 C.3       6 GLP5        0.0000 
     57 CA         25.6032   16.4825   26.6266 C.3       3 GLC5        0.0000 
     58 CA         24.4880   15.1890   27.8480 C.3       9 GLL5        0.0000 
     59 CA         25.9510   18.0560   25.8920 C.3       6 GLP5        0.0000 
     60 CA         22.1465   12.7755   20.3173 C.3       3 GLC5        0.0000 
     61 CA         22.9400   12.7580   21.9860 C.3       9 GLL5        0.0000 
     62 CA         21.9560   13.1830   18.6040 C.3       6 GLP5        0.0000 
     63 CA         20.1700   10.7662   21.7660 C.3       3 GLC5        0.0000 
     64 CA         19.0700    9.4400   20.9200 C.3       6 GLP5        0.0000 
     65 CA         19.6722   12.1515   24.8377 C.3       3 GLC5        0.0000 
     66 CA         18.3980   11.5890   26.0320 C.3       6 GLP5        0.0000 
     67 CA         20.9567   15.3227   24.7022 C.3       3 GLC5        0.0000 
     68 CA         21.0870   13.2210   24.1380 C.3       9 GLL5        0.0000 
     69 CA         20.2180   17.0330   25.3140 C.3       6 GLP5        0.0000 
     70 CA         20.2743   14.2209   22.5610 C.3       3 GLC5        0.0000 
     71 CA         19.3700   15.7850   21.7470 C.3       6 GLP5        0.0000 
     72 CA         21.6669   15.0656   22.2696 C.3       3 GLC5        0.0000 
     73 CA         22.3040   14.0040   24.0430 C.3       9 GLL5        0.0000 
     74 CA         20.6360   16.4950   21.2800 C.3       6 GLP5        0.0000 
@<TRIPOS>BOND
@<TRIPOS>SUBSTRUCTURE
     1 ALC1       17 GROUP        1 X    ALC  0     ROOT ALC X 1
     2 SEC2        1 GROUP        1 X    SEC  0     **** SEC X 2
     3 GLC5        4 GROUP        1 X    GLC  0     **** GLC X 6
     4 ALP1       19 GROUP        1 Y    ALP  0     ROOT ALP Y 8
     5 SEP2        3 GROUP        1 Y    SEP  0     **** SEP Y 9
     6 GLP5        6 GROUP        1 Y    GLP  0     **** GLP Y 13
     7 ALL1       18 GROUP        1 Z    ALL  0     ROOT ALL Z 15
     8 SEL2        2 GROUP        1 Z    SEL  0     **** SEL Z 16
     9 GLL5        5 GROUP        1 Z    GLL  0     **** GLL Z 20
@<TRIPOS>SET

