#    Name: 1el4_CTZ_1_ligand
#    Modification time : Tue Mar 25 00:03:40 2014

@<TRIPOS>MOLECULE
1el4_CTZ_1_ligand
   54    58     1     0     0
SMALL
NO_CHARGES


@<TRIPOS>ATOM
      1 N1         27.1440   12.8210   22.4710 N.2       1 CTZ197      0.0000 
      2 C2         28.2960   12.1750   22.7780 C.3       1 CTZ197      0.0000 
      3 C3         28.6020   12.3010   24.1300 C.2       1 CTZ197      0.0000 
      4 N4         27.5730   13.0840   24.6840 N.am      1 CTZ197      0.0000 
      5 C5         27.3350   13.5600   26.0170 C.2       1 CTZ197      0.0000 
      6 C6         26.1790   14.3510   26.2280 C.2       1 CTZ197      0.0000 
      7 N7         25.3090   14.6340   25.1360 N.2       1 CTZ197      0.0000 
      8 C8         25.5170   14.1780   23.8260 C.2       1 CTZ197      0.0000 
      9 C9         26.6640   13.3960   23.6060 C.2       1 CTZ197      0.0000 
     10 C10        28.1740   10.8820   21.9590 C.3       1 CTZ197      0.0000 
     11 C11        29.2520    9.8180   22.0610 C.ar      1 CTZ197      0.0000 
     12 C12        30.2850    9.8260   21.0560 C.ar      1 CTZ197      0.0000 
     13 C13        31.4610    9.0300   21.1890 C.ar      1 CTZ197      0.0000 
     14 C14        31.6220    8.2090   22.3400 C.ar      1 CTZ197      0.0000 
     15 C15        30.6140    8.1670   23.3700 C.ar      1 CTZ197      0.0000 
     16 C16        29.4270    8.9740   23.2260 C.ar      1 CTZ197      0.0000 
     17 O17        32.7470    7.4550   22.4630 O.3       1 CTZ197      0.0000 
     18 O18        29.4910   11.9140   24.8490 O.2       1 CTZ197      0.0000 
     19 C19        25.8670   14.9070   27.5210 C.ar      1 CTZ197      0.0000 
     20 C20        26.8770   15.2200   28.5010 C.ar      1 CTZ197      0.0000 
     21 C21        26.5500   15.7890   29.7510 C.ar      1 CTZ197      0.0000 
     22 C22        25.1840   16.0620   30.0550 C.ar      1 CTZ197      0.0000 
     23 C23        24.1410   15.7670   29.1200 C.ar      1 CTZ197      0.0000 
     24 C24        24.4880   15.1890   27.8480 C.ar      1 CTZ197      0.0000 
     25 O25        24.8790   16.6160   31.2570 O.3       1 CTZ197      0.0000 
     26 C26        24.5070   14.5830   22.8520 C.3       1 CTZ197      0.0000 
     27 C27        23.2430   13.7790   22.9650 C.ar      1 CTZ197      0.0000 
     28 C28        22.9400   12.7580   21.9860 C.ar      1 CTZ197      0.0000 
     29 C29        21.7340   11.9780   22.0750 C.ar      1 CTZ197      0.0000 
     30 C30        20.8060   12.2070   23.1490 C.ar      1 CTZ197      0.0000 
     31 C31        21.0870   13.2210   24.1380 C.ar      1 CTZ197      0.0000 
     32 C32        22.3040   14.0040   24.0430 C.ar      1 CTZ197      0.0000 
     33 O33        29.3590   12.6960   21.9110 O.3       1 CTZ197      0.0000 
     34 H          27.9635   13.3379   26.7588 H         1 CTZ197      0.0000 
     35 H          28.0588   11.1711   20.8729 H         1 CTZ197      0.0000 
     36 H          27.1793   10.4080   22.2086 H         1 CTZ197      0.0000 
     37 H          30.1658   10.4196   20.2289 H         1 CTZ197      0.0000 
     38 H          32.1739    9.0500   20.4702 H         1 CTZ197      0.0000 
     39 H          30.7365    7.5827   24.1787 H         1 CTZ197      0.0000 
     40 H          28.7106    8.9526   23.9411 H         1 CTZ197      0.0000 
     41 H          27.8599   15.0183   28.2710 H         1 CTZ197      0.0000 
     42 H          27.2726   16.0031   30.4281 H         1 CTZ197      0.0000 
     43 H          23.1796   15.9592   29.3447 H         1 CTZ197      0.0000 
     44 H          23.7596   14.9769   27.1736 H         1 CTZ197      0.0000 
     45 H          24.9019   14.4767   21.8239 H         1 CTZ197      0.0000 
     46 H          24.2571   15.6530   22.9816 H         1 CTZ197      0.0000 
     47 H          23.5932   12.5909   21.2223 H         1 CTZ197      0.0000 
     48 H          21.5393   11.2673   21.3803 H         1 CTZ197      0.0000 
     49 H          19.9582   11.6611   23.2141 H         1 CTZ197      0.0000 
     50 H          20.4404   13.3863   24.8938 H         1 CTZ197      0.0000 
     51 H          22.4975   14.7151   24.7387 H         1 CTZ197      0.0000 
     52 H          32.6735    7.0256   23.3631 H         1 CTZ197      0.0000 
     53 H          25.6878   16.4537   31.8221 H         1 CTZ197      0.0000 
     54 H          30.0960   12.0228   21.9723 H         1 CTZ197      0.0000 
@<TRIPOS>BOND
     1    2    1 1    
     2    9    1 2    
     3    3    2 1    
     4   10    2 1    
     5   33    2 1    
     6    4    3 am   
     7   18    3 2    
     8    5    4 1    
     9    9    4 1    
    10    6    5 2    
    11   34    5 1    
    12    7    6 1    
    13   19    6 1    
    14    8    7 2    
    15    9    8 1    
    16   26    8 1    
    17   11   10 1    
    18   35   10 1    
    19   36   10 1    
    20   12   11 ar   
    21   16   11 ar   
    22   13   12 ar   
    23   37   12 1    
    24   14   13 ar   
    25   38   13 1    
    26   15   14 ar   
    27   17   14 1    
    28   16   15 ar   
    29   39   15 1    
    30   40   16 1    
    31   52   17 1    
    32   20   19 ar   
    33   24   19 ar   
    34   21   20 ar   
    35   41   20 1    
    36   22   21 ar   
    37   42   21 1    
    38   23   22 ar   
    39   25   22 1    
    40   24   23 ar   
    41   43   23 1    
    42   44   24 1    
    43   53   25 1    
    44   27   26 1    
    45   45   26 1    
    46   46   26 1    
    47   28   27 ar   
    48   32   27 ar   
    49   29   28 ar   
    50   47   28 1    
    51   30   29 ar   
    52   48   29 1    
    53   31   30 ar   
    54   49   30 1    
    55   32   31 ar   
    56   50   31 1    
    57   51   32 1    
    58   54   33 1    
@<TRIPOS>SUBSTRUCTURE
     1 CTZ197      1 GROUP   
@<TRIPOS>SET

