#    Name: 1HWP_1_CAVITY_N1_ALL.mol2
#    Modification time : Tue Mar 11 07:15:46 2014

@<TRIPOS>MOLECULE
1HWP_1_CAVITY_N1_ALL.mol2
  133     0     6     0     0
SMALL
NO_CHARGES


@<TRIPOS>ATOM
      1 CA         27.8560   46.5664   83.3001 C.3       5 GLY6        0.0000 
      2 N          28.9633   47.2677   82.5708 N.2       2 ALA2        0.0000 
      3 CA         31.1780   48.6705   81.1122 C.3       5 GLY6        0.0000 
      4 DU         27.8598   45.4823   82.2634 H         6 CUB7        0.0000 
      5 DU         28.9671   46.1837   81.5341 H         6 CUB7        0.0000 
      6 DU         30.0745   46.8850   80.8048 H         6 CUB7        0.0000 
      7 DU         28.9709   45.0996   80.4973 H         6 CUB7        0.0000 
      8 DU         30.0783   45.8010   79.7680 H         6 CUB7        0.0000 
      9 NZ         31.1856   46.5024   79.0387 N.2       3 LYS4        0.0000 
     10 NZ         30.0821   44.7170   78.7313 N.2       3 LYS4        0.0000 
     11 CZ         25.6641   38.6594   78.5382 C.ar      4 PHE5        0.0000 
     12 O          26.7714   39.3608   77.8089 O.2       2 ALA2        0.0000 
     13 DU         24.5605   36.8740   78.2308 H         6 CUB7        0.0000 
     14 NZ         25.6679   37.5754   77.5015 N.2       3 LYS4        0.0000 
     15 NZ         26.7752   38.2767   76.7722 N.2       3 LYS4        0.0000 
     16 CA         24.5643   35.7900   77.1940 C.3       5 GLY6        0.0000 
     17 CA         23.4608   34.0046   76.8866 C.3       5 GLY6        0.0000 
     18 O          26.8404   48.4139   83.5348 O.2       2 ALA2        0.0000 
     19 CA         24.6295   45.9271   83.9567 C.3       5 GLY6        0.0000 
     20 CA         25.7368   46.6285   83.2274 C.3       5 GLY6        0.0000 
     21 N          26.8442   47.3299   82.4981 N.2       2 ALA2        0.0000 
     22 N          27.9515   48.0312   81.7688 N.2       2 ALA2        0.0000 
     23 N          29.0589   48.7326   81.0395 N.2       2 ALA2        0.0000 
     24 CA         23.5259   44.1417   83.6492 C.3       5 GLY6        0.0000 
     25 CA         24.6333   44.8431   82.9199 C.3       5 GLY6        0.0000 
     26 OG         25.7406   45.5445   82.1906 O.2       1 SER1        0.0000 
     27 DU         26.8480   46.2458   81.4613 H         6 CUB7        0.0000 
     28 DU         27.9553   46.9472   80.7320 H         6 CUB7        0.0000 
     29 CA         29.0626   47.6486   80.0027 C.3       5 GLY6        0.0000 
     30 N          30.1700   48.3499   79.2734 N.2       2 ALA2        0.0000 
     31 OG         24.6371   43.7591   81.8832 O.2       1 SER1        0.0000 
     32 OG         26.8518   45.1618   80.4246 O.2       1 SER1        0.0000 
     33 OG         27.9591   45.8632   79.6953 O.2       1 SER1        0.0000 
     34 CZ         29.0664   46.5645   78.9660 C.ar      4 PHE5        0.0000 
     35 CA         30.1738   47.2659   78.2367 C.3       5 GLY6        0.0000 
     36 OG         27.9629   44.7791   78.6585 O.2       1 SER1        0.0000 
     37 O          29.0702   45.4805   77.9292 O.2       2 ALA2        0.0000 
     38 CA         27.9667   43.6951   77.6218 C.3       5 GLY6        0.0000 
     39 CZ         23.5411   39.8056   79.5022 C.ar      4 PHE5        0.0000 
     40 O          20.2229   36.6175   80.6534 O.2       2 ALA2        0.0000 
     41 O          22.4376   38.0202   79.1948 O.2       2 ALA2        0.0000 
     42 CZ         23.5449   38.7216   78.4655 C.ar      4 PHE5        0.0000 
     43 CZ         24.6523   39.4229   77.7362 C.ar      4 PHE5        0.0000 
     44 CZ         25.7596   40.1243   77.0069 C.ar      4 PHE5        0.0000 
     45 NZ         20.2267   35.5334   79.6166 N.2       3 LYS4        0.0000 
     46 NZ         21.3340   36.2348   78.8873 N.2       3 LYS4        0.0000 
     47 DU         22.4414   36.9362   78.1580 H         6 CUB7        0.0000 
     48 DU         23.5487   37.6375   77.4287 H         6 CUB7        0.0000 
     49 CZ         24.6560   38.3389   76.6994 C.ar      4 PHE5        0.0000 
     50 O          25.7634   39.0402   75.9701 O.2       2 ALA2        0.0000 
     51 CA         21.3378   35.1507   77.8506 C.3       5 GLY6        0.0000 
     52 DU         22.4452   35.8521   77.1213 H         6 CUB7        0.0000 
     53 NZ         23.5525   36.5535   76.3920 N.2       3 LYS4        0.0000 
     54 NZ         24.6598   37.2548   75.6627 N.2       3 LYS4        0.0000 
     55 N          22.4490   34.7681   76.0845 N.2       2 ALA2        0.0000 
     56 N          23.5563   35.4694   75.3552 N.2       2 ALA2        0.0000 
     57 CZ         23.6177   46.6907   83.1546 C.ar      4 PHE5        0.0000 
     58 CZ         24.7250   47.3920   82.4253 C.ar      4 PHE5        0.0000 
     59 CA         25.8323   48.0934   81.6960 C.3       5 GLY6        0.0000 
     60 N          26.9397   48.7947   80.9667 N.2       2 ALA2        0.0000 
     61 CZ         23.6215   45.6066   82.1179 C.ar      4 PHE5        0.0000 
     62 OG         24.7288   46.3080   81.3886 O.2       1 SER1        0.0000 
     63 OG         25.8361   47.0093   80.6593 O.2       1 SER1        0.0000 
     64 N          26.9435   47.7107   79.9300 N.2       2 ALA2        0.0000 
     65 N          28.0508   48.4121   79.2007 N.2       2 ALA2        0.0000 
     66 N          29.1582   49.1134   78.4714 N.2       2 ALA2        0.0000 
     67 OG         23.6253   44.5226   81.0811 O.2       1 SER1        0.0000 
     68 OG         25.8399   45.9253   79.6225 O.2       1 SER1        0.0000 
     69 OG         26.9473   46.6267   78.8932 O.2       1 SER1        0.0000 
     70 CZ         28.0546   47.3280   78.1639 C.ar      4 PHE5        0.0000 
     71 OG         26.9511   45.5426   77.8565 O.2       1 SER1        0.0000 
     72 CZ         28.0584   46.2440   77.1272 C.ar      4 PHE5        0.0000 
     73 OG         26.9549   44.4586   76.8197 O.2       1 SER1        0.0000 
     74 NZ         20.3184   38.0823   79.1220 N.2       3 LYS4        0.0000 
     75 O          21.4257   38.7837   78.3927 O.2       2 ALA2        0.0000 
     76 NZ         20.3222   36.9983   78.0853 N.2       3 LYS4        0.0000 
     77 NZ         21.4295   37.6997   77.3560 N.2       3 LYS4        0.0000 
     78 CZ         22.5369   38.4010   76.6267 C.ar      4 PHE5        0.0000 
     79 CZ         23.6442   39.1024   75.8974 C.ar      4 PHE5        0.0000 
     80 CZ         24.7516   39.8038   75.1681 C.ar      4 PHE5        0.0000 
     81 O          20.3260   35.9143   77.0485 O.2       2 ALA2        0.0000 
     82 O          21.4333   36.6156   76.3192 O.2       2 ALA2        0.0000 
     83 DU         22.5407   37.3170   75.5899 H         6 CUB7        0.0000 
     84 CZ         23.6480   38.0184   74.8606 C.ar      4 PHE5        0.0000 
     85 CZ         24.7554   38.7197   74.1313 C.ar      4 PHE5        0.0000 
     86 N          22.5445   36.2330   74.5532 N.2       2 ALA2        0.0000 
     87 CZ         23.6518   36.9343   73.8239 C.ar      4 PHE5        0.0000 
     88 CA         24.8205   48.8569   80.8940 C.3       5 GLY6        0.0000 
     89 CZ         23.7170   47.0715   80.5865 C.ar      4 PHE5        0.0000 
     90 DU         24.8243   47.7729   79.8572 H         6 CUB7        0.0000 
     91 N          25.9317   48.4742   79.1279 N.2       2 ALA2        0.0000 
     92 CZ         23.7208   45.9875   79.5498 C.ar      4 PHE5        0.0000 
     93 OG         24.8281   46.6888   78.8205 O.2       1 SER1        0.0000 
     94 DU         25.9355   47.3902   78.0912 H         6 CUB7        0.0000 
     95 CZ         27.0428   48.0915   77.3619 C.ar      4 PHE5        0.0000 
     96 OG         24.8319   45.6048   77.7837 O.2       1 SER1        0.0000 
     97 OG         25.9393   46.3061   77.0544 O.2       1 SER1        0.0000 
     98 CZ         27.0466   47.0075   76.3251 C.ar      4 PHE5        0.0000 
     99 OG         25.9431   45.2221   76.0177 O.2       1 SER1        0.0000 
    100 CZ         27.0504   45.9235   75.2884 C.ar      4 PHE5        0.0000 
    101 CZ         24.8395   43.4367   75.7102 C.ar      4 PHE5        0.0000 
    102 N          25.9468   44.1381   74.9809 N.2       2 ALA2        0.0000 
    103 CZ         24.8433   42.3527   74.6735 C.ar      4 PHE5        0.0000 
    104 NZ         20.4177   38.4632   76.5539 N.2       3 LYS4        0.0000 
    105 CA         21.5251   39.1645   75.8246 C.3       5 GLY6        0.0000 
    106 CZ         22.6324   39.8659   75.0953 C.ar      4 PHE5        0.0000 
    107 CZ         23.7398   40.5673   74.3660 C.ar      4 PHE5        0.0000 
    108 CA         24.8471   41.2686   73.6367 C.3       5 GLY6        0.0000 
    109 CA         20.4215   37.3791   75.5172 C.3       5 GLY6        0.0000 
    110 CA         21.5289   38.0805   74.7879 C.3       5 GLY6        0.0000 
    111 N          22.6362   38.7819   74.0586 N.2       2 ALA2        0.0000 
    112 CZ         23.7435   39.4832   73.3293 C.ar      4 PHE5        0.0000 
    113 CA         21.5327   36.9965   73.7511 C.3       5 GLY6        0.0000 
    114 CZ         22.6400   37.6978   73.0218 C.ar      4 PHE5        0.0000 
    115 NZ         24.9198   49.2377   78.3259 N.2       3 LYS4        0.0000 
    116 O          24.9236   48.1537   77.2891 O.2       2 ALA2        0.0000 
    117 CZ         26.0310   48.8551   76.5598 C.ar      4 PHE5        0.0000 
    118 O          23.8201   46.3683   76.9817 O.2       2 ALA2        0.0000 
    119 O          24.9274   47.0697   76.2524 O.2       2 ALA2        0.0000 
    120 CZ         26.0348   47.7710   75.5231 C.ar      4 PHE5        0.0000 
    121 CZ         23.8239   45.2843   75.9449 C.ar      4 PHE5        0.0000 
    122 CA         24.9312   45.9856   75.2156 C.3       5 GLY6        0.0000 
    123 CZ         26.0386   46.6870   74.4863 C.ar      4 PHE5        0.0000 
    124 CZ         23.8277   44.2002   74.9082 C.ar      4 PHE5        0.0000 
    125 CA         24.9350   44.9016   74.1789 C.3       5 GLY6        0.0000 
    126 CZ         23.8315   43.1162   73.8714 C.ar      4 PHE5        0.0000 
    127 CA         24.9388   43.8175   73.1421 C.3       5 GLY6        0.0000 
    128 N          22.7279   41.3308   73.5640 N.2       2 ALA2        0.0000 
    129 N          23.8353   42.0321   72.8347 N.2       2 ALA2        0.0000 
    130 CA         24.9426   42.7335   72.1054 C.3       5 GLY6        0.0000 
    131 O          22.8121   46.0478   75.1429 O.2       2 ALA2        0.0000 
    132 O          22.8159   44.9637   74.1062 O.2       2 ALA2        0.0000 
    133 O          22.8197   43.8797   73.0694 O.2       2 ALA2        0.0000 
@<TRIPOS>BOND
@<TRIPOS>SUBSTRUCTURE
     1 SER1       26 GROUP   
     2 ALA2        2 GROUP   
     3 LYS4        9 GROUP   
     4 PHE5       11 GROUP   
     5 GLY6        1 GROUP   
     6 CUB7        4 GROUP   
@<TRIPOS>SET

