#    Name: 1HWP_1_CAVITY_N1_6.mol2
#    Modification time : Tue Mar 11 07:15:46 2014

@<TRIPOS>MOLECULE
1HWP_1_CAVITY_N1_6.mol2
  106     0     6     0     0
SMALL
NO_CHARGES


@<TRIPOS>ATOM
      1 CA         27.8560   46.5664   83.3001 C.3       5 GLY6        0.0000 
      2 N          28.9633   47.2677   82.5708 N.2       2 ALA2        0.0000 
      3 CA         31.1780   48.6705   81.1122 C.3       5 GLY6        0.0000 
      4 DU         27.8598   45.4823   82.2634 H         6 CUB7        0.0000 
      5 DU         28.9671   46.1837   81.5341 H         6 CUB7        0.0000 
      6 DU         30.0745   46.8850   80.8048 H         6 CUB7        0.0000 
      7 DU         28.9709   45.0996   80.4973 H         6 CUB7        0.0000 
      8 DU         30.0783   45.8010   79.7680 H         6 CUB7        0.0000 
      9 NZ         31.1856   46.5024   79.0387 N.2       3 LYS4        0.0000 
     10 NZ         30.0821   44.7170   78.7313 N.2       3 LYS4        0.0000 
     11 O          26.7714   39.3608   77.8089 O.2       2 ALA2        0.0000 
     12 NZ         26.7752   38.2767   76.7722 N.2       3 LYS4        0.0000 
     13 O          26.8404   48.4139   83.5348 O.2       2 ALA2        0.0000 
     14 CA         24.6295   45.9271   83.9567 C.3       5 GLY6        0.0000 
     15 CA         25.7368   46.6285   83.2274 C.3       5 GLY6        0.0000 
     16 N          26.8442   47.3299   82.4981 N.2       2 ALA2        0.0000 
     17 N          27.9515   48.0312   81.7688 N.2       2 ALA2        0.0000 
     18 N          29.0589   48.7326   81.0395 N.2       2 ALA2        0.0000 
     19 CA         23.5259   44.1417   83.6492 C.3       5 GLY6        0.0000 
     20 CA         24.6333   44.8431   82.9199 C.3       5 GLY6        0.0000 
     21 OG         25.7406   45.5445   82.1906 O.2       1 SER1        0.0000 
     22 DU         26.8480   46.2458   81.4613 H         6 CUB7        0.0000 
     23 DU         27.9553   46.9472   80.7320 H         6 CUB7        0.0000 
     24 CA         29.0626   47.6486   80.0027 C.3       5 GLY6        0.0000 
     25 N          30.1700   48.3499   79.2734 N.2       2 ALA2        0.0000 
     26 OG         24.6371   43.7591   81.8832 O.2       1 SER1        0.0000 
     27 OG         26.8518   45.1618   80.4246 O.2       1 SER1        0.0000 
     28 OG         27.9591   45.8632   79.6953 O.2       1 SER1        0.0000 
     29 CZ         29.0664   46.5645   78.9660 C.ar      4 PHE5        0.0000 
     30 CA         30.1738   47.2659   78.2367 C.3       5 GLY6        0.0000 
     31 OG         27.9629   44.7791   78.6585 O.2       1 SER1        0.0000 
     32 O          29.0702   45.4805   77.9292 O.2       2 ALA2        0.0000 
     33 CA         27.9667   43.6951   77.6218 C.3       5 GLY6        0.0000 
     34 CZ         23.5411   39.8056   79.5022 C.ar      4 PHE5        0.0000 
     35 CZ         24.6523   39.4229   77.7362 C.ar      4 PHE5        0.0000 
     36 CZ         25.7596   40.1243   77.0069 C.ar      4 PHE5        0.0000 
     37 CZ         24.6560   38.3389   76.6994 C.ar      4 PHE5        0.0000 
     38 O          25.7634   39.0402   75.9701 O.2       2 ALA2        0.0000 
     39 NZ         24.6598   37.2548   75.6627 N.2       3 LYS4        0.0000 
     40 CZ         23.6177   46.6907   83.1546 C.ar      4 PHE5        0.0000 
     41 CZ         24.7250   47.3920   82.4253 C.ar      4 PHE5        0.0000 
     42 CA         25.8323   48.0934   81.6960 C.3       5 GLY6        0.0000 
     43 N          26.9397   48.7947   80.9667 N.2       2 ALA2        0.0000 
     44 CZ         23.6215   45.6066   82.1179 C.ar      4 PHE5        0.0000 
     45 OG         24.7288   46.3080   81.3886 O.2       1 SER1        0.0000 
     46 OG         25.8361   47.0093   80.6593 O.2       1 SER1        0.0000 
     47 N          26.9435   47.7107   79.9300 N.2       2 ALA2        0.0000 
     48 N          28.0508   48.4121   79.2007 N.2       2 ALA2        0.0000 
     49 N          29.1582   49.1134   78.4714 N.2       2 ALA2        0.0000 
     50 OG         23.6253   44.5226   81.0811 O.2       1 SER1        0.0000 
     51 OG         25.8399   45.9253   79.6225 O.2       1 SER1        0.0000 
     52 OG         26.9473   46.6267   78.8932 O.2       1 SER1        0.0000 
     53 CZ         28.0546   47.3280   78.1639 C.ar      4 PHE5        0.0000 
     54 OG         26.9511   45.5426   77.8565 O.2       1 SER1        0.0000 
     55 CZ         28.0584   46.2440   77.1272 C.ar      4 PHE5        0.0000 
     56 OG         26.9549   44.4586   76.8197 O.2       1 SER1        0.0000 
     57 CZ         22.5369   38.4010   76.6267 C.ar      4 PHE5        0.0000 
     58 CZ         23.6442   39.1024   75.8974 C.ar      4 PHE5        0.0000 
     59 CZ         24.7516   39.8038   75.1681 C.ar      4 PHE5        0.0000 
     60 DU         22.5407   37.3170   75.5899 H         6 CUB7        0.0000 
     61 CZ         23.6480   38.0184   74.8606 C.ar      4 PHE5        0.0000 
     62 CZ         24.7554   38.7197   74.1313 C.ar      4 PHE5        0.0000 
     63 CZ         23.6518   36.9343   73.8239 C.ar      4 PHE5        0.0000 
     64 CA         24.8205   48.8569   80.8940 C.3       5 GLY6        0.0000 
     65 CZ         23.7170   47.0715   80.5865 C.ar      4 PHE5        0.0000 
     66 DU         24.8243   47.7729   79.8572 H         6 CUB7        0.0000 
     67 N          25.9317   48.4742   79.1279 N.2       2 ALA2        0.0000 
     68 CZ         23.7208   45.9875   79.5498 C.ar      4 PHE5        0.0000 
     69 OG         24.8281   46.6888   78.8205 O.2       1 SER1        0.0000 
     70 DU         25.9355   47.3902   78.0912 H         6 CUB7        0.0000 
     71 CZ         27.0428   48.0915   77.3619 C.ar      4 PHE5        0.0000 
     72 OG         24.8319   45.6048   77.7837 O.2       1 SER1        0.0000 
     73 OG         25.9393   46.3061   77.0544 O.2       1 SER1        0.0000 
     74 CZ         27.0466   47.0075   76.3251 C.ar      4 PHE5        0.0000 
     75 OG         25.9431   45.2221   76.0177 O.2       1 SER1        0.0000 
     76 CZ         27.0504   45.9235   75.2884 C.ar      4 PHE5        0.0000 
     77 CZ         24.8395   43.4367   75.7102 C.ar      4 PHE5        0.0000 
     78 N          25.9468   44.1381   74.9809 N.2       2 ALA2        0.0000 
     79 CZ         24.8433   42.3527   74.6735 C.ar      4 PHE5        0.0000 
     80 CA         21.5251   39.1645   75.8246 C.3       5 GLY6        0.0000 
     81 CZ         22.6324   39.8659   75.0953 C.ar      4 PHE5        0.0000 
     82 CZ         23.7398   40.5673   74.3660 C.ar      4 PHE5        0.0000 
     83 CA         24.8471   41.2686   73.6367 C.3       5 GLY6        0.0000 
     84 CA         21.5289   38.0805   74.7879 C.3       5 GLY6        0.0000 
     85 N          22.6362   38.7819   74.0586 N.2       2 ALA2        0.0000 
     86 CZ         23.7435   39.4832   73.3293 C.ar      4 PHE5        0.0000 
     87 CZ         22.6400   37.6978   73.0218 C.ar      4 PHE5        0.0000 
     88 NZ         24.9198   49.2377   78.3259 N.2       3 LYS4        0.0000 
     89 O          24.9236   48.1537   77.2891 O.2       2 ALA2        0.0000 
     90 CZ         26.0310   48.8551   76.5598 C.ar      4 PHE5        0.0000 
     91 O          23.8201   46.3683   76.9817 O.2       2 ALA2        0.0000 
     92 O          24.9274   47.0697   76.2524 O.2       2 ALA2        0.0000 
     93 CZ         26.0348   47.7710   75.5231 C.ar      4 PHE5        0.0000 
     94 CZ         23.8239   45.2843   75.9449 C.ar      4 PHE5        0.0000 
     95 CA         24.9312   45.9856   75.2156 C.3       5 GLY6        0.0000 
     96 CZ         26.0386   46.6870   74.4863 C.ar      4 PHE5        0.0000 
     97 CZ         23.8277   44.2002   74.9082 C.ar      4 PHE5        0.0000 
     98 CA         24.9350   44.9016   74.1789 C.3       5 GLY6        0.0000 
     99 CZ         23.8315   43.1162   73.8714 C.ar      4 PHE5        0.0000 
    100 CA         24.9388   43.8175   73.1421 C.3       5 GLY6        0.0000 
    101 N          22.7279   41.3308   73.5640 N.2       2 ALA2        0.0000 
    102 N          23.8353   42.0321   72.8347 N.2       2 ALA2        0.0000 
    103 CA         24.9426   42.7335   72.1054 C.3       5 GLY6        0.0000 
    104 O          22.8121   46.0478   75.1429 O.2       2 ALA2        0.0000 
    105 O          22.8159   44.9637   74.1062 O.2       2 ALA2        0.0000 
    106 O          22.8197   43.8797   73.0694 O.2       2 ALA2        0.0000 
@<TRIPOS>BOND
@<TRIPOS>SUBSTRUCTURE
     1 SER1       21 GROUP   
     2 ALA2        2 GROUP   
     3 LYS4        9 GROUP   
     4 PHE5       29 GROUP   
     5 GLY6        1 GROUP   
     6 CUB7        4 GROUP   
@<TRIPOS>SET

