#    Name: 1hwp_PT1_1_INTS_M
#    Modification time : Tue Mar 25 06:25:37 2014

@<TRIPOS>MOLECULE
1hwp_PT1_1_INTS_M
   34     0     9     0     0
SMALL
NO_CHARGES


@<TRIPOS>ATOM
      1 CA         21.4370   44.0465   75.0300 C.3       3 GLC5        0.0000 
      2 CA         23.0550   44.9880   74.6060 C.3       9 GLL5        0.0000 
      3 CA         19.8190   43.1050   75.4540 C.3       6 GLP5        0.0000 
      4 CA         22.7415   43.1880   72.2110 C.3       3 GLC5        0.0000 
      5 CA         24.4100   43.3100   73.6460 C.3       9 GLL5        0.0000 
      6 CA         21.0730   43.0660   70.7760 C.3       6 GLP5        0.0000 
      7 CA         25.8850   41.8745   73.3910 C.3       3 GLC5        0.0000 
      8 CA         27.3600   40.4390   73.1360 C.3       6 GLP5        0.0000 
      9 CA         25.0720   44.3310   72.1010 C.3       3 GLC5        0.0000 
     10 CA         25.7340   45.3520   70.5560 C.3       6 GLP5        0.0000 
     11 CA         24.8750   47.4580   74.4330 C.3       3 GLC5        0.0000 
     12 CA         25.3590   47.2420   76.5950 C.3       9 GLL5        0.0000 
     13 CA         24.3910   47.6740   72.2710 C.3       6 GLP5        0.0000 
     14 O          26.2110   42.4500   73.2915 O.2       1 ALC1        0.0000 
     15 O          24.5580   42.1990   72.8760 O.2       7 ALL1        0.0000 
     16 O          27.8640   42.7010   73.7070 O.2       4 ALP1        0.0000 
     17 CA         28.6140   46.6570   75.7960 C.3       3 GLC5        0.0000 
     18 CA         26.5850   46.5620   76.3260 C.3       9 GLL5        0.0000 
     19 CA         30.6430   46.7520   75.2660 C.3       6 GLP5        0.0000 
     20 N          21.1060   44.1350   73.9505 N.am      2 SEC2        0.0000 
     21 N          21.8080   45.5010   74.7800 N.am      8 SEL2        0.0000 
     22 N          20.4040   42.7690   73.1210 N.am      5 SEP2        0.0000 
     23 N          21.8600   46.7925   75.8145 N.am      2 SEC2        0.0000 
     24 N          21.9120   48.0840   76.8490 N.am      5 SEP2        0.0000 
     25 N          21.7840   43.3035   73.4630 N.am      2 SEC2        0.0000 
     26 N          23.1640   43.8380   73.8050 N.am      8 SEL2        0.0000 
     27 CA         26.8230   49.0975   76.4030 C.3       3 GLC5        0.0000 
     28 CA         25.4120   48.4890   77.4680 C.3       9 GLL5        0.0000 
     29 CA         28.2340   49.7060   75.3380 C.3       6 GLP5        0.0000 
     30 CA         24.2285   49.0485   81.1035 C.3       3 GLC5        0.0000 
     31 CA         24.8870   47.5340   79.7010 C.3       9 GLL5        0.0000 
     32 CA         23.5700   50.5630   82.5060 C.3       6 GLP5        0.0000 
     33 CA         24.4599   46.3920   73.6130 C.3       3 GLC5        0.0000 
     34 CA         24.1800   45.6060   75.2480 C.3       9 GLL5        0.0000 
@<TRIPOS>BOND
@<TRIPOS>SUBSTRUCTURE
     1 ALC1       14 GROUP        1 X    ALC  0     ROOT ALC X 1
     2 SEC2       20 GROUP        1 X    SEC  0     **** SEC X 2
     3 GLC5        1 GROUP        1 X    GLC  0     **** GLC X 6
     4 ALP1       16 GROUP        1 Y    ALP  0     ROOT ALP Y 8
     5 SEP2       22 GROUP        1 Y    SEP  0     **** SEP Y 9
     6 GLP5        3 GROUP        1 Y    GLP  0     **** GLP Y 13
     7 ALL1       15 GROUP        1 Z    ALL  0     ROOT ALL Z 15
     8 SEL2       21 GROUP        1 Z    SEL  0     **** SEL Z 16
     9 GLL5        2 GROUP        1 Z    GLL  0     **** GLL Z 20
@<TRIPOS>SET

