#    Name: 1hwp_PT1_1_ligand
#    Modification time : Tue Mar 25 06:25:37 2014

@<TRIPOS>MOLECULE
1hwp_PT1_1_ligand
   34    36     1     0     0
SMALL
NO_CHARGES


@<TRIPOS>ATOM
      1 C2         23.0550   44.9880   74.6060 C.ar      1 PT1321      0.0000 
      2 C3         24.1800   45.6060   75.2480 C.ar      1 PT1321      0.0000 
      3 C5         25.4400   44.9230   74.9830 C.ar      1 PT1321      0.0000 
      4 N6         24.1610   46.7490   76.0530 N.ar      1 PT1321      0.0000 
      5 C7         24.4100   43.3100   73.6460 C.ar      1 PT1321      0.0000 
      6 N9         25.5590   43.7880   74.1890 N.ar      1 PT1321      0.0000 
      7 C10        25.3590   47.2420   76.5950 C.ar      1 PT1321      0.0000 
      8 N11        24.5580   42.1990   72.8760 N.pl3     1 PT1321      0.0000 
      9 C12        26.5850   46.5620   76.3260 C.ar      1 PT1321      0.0000 
     10 C21        25.2930   44.5010   82.9160 C.2       1 PT1321      0.0000 
     11 O22        26.3720   44.3480   83.6060 O.co2     1 PT1321      0.0000 
     12 O1         21.8080   45.5010   74.7800 O.3       1 PT1321      0.0000 
     13 N4         23.1640   43.8380   73.8050 N.ar      1 PT1321      0.0000 
     14 N8         26.5980   45.4250   75.5310 N.ar      1 PT1321      0.0000 
     15 C13        25.4120   48.4890   77.4680 C.3       1 PT1321      0.0000 
     16 N14        24.6340   48.4330   78.6830 N.pl3     1 PT1321      0.0000 
     17 C15        24.8870   47.5340   79.7010 C.ar      1 PT1321      0.0000 
     18 C16        26.1790   47.3440   80.3420 C.ar      1 PT1321      0.0000 
     19 C17        23.7780   46.7420   80.1170 C.ar      1 PT1321      0.0000 
     20 C18        26.3110   46.3540   81.3850 C.ar      1 PT1321      0.0000 
     21 C19        23.9090   45.7570   81.1540 C.ar      1 PT1321      0.0000 
     22 C20        25.1740   45.5490   81.8070 C.ar      1 PT1321      0.0000 
     23 O23        24.3080   43.7280   83.2090 O.co2     1 PT1321      0.0000 
     24 H          25.4843   41.8274   72.8132 H         1 PT1321      0.0000 
     25 H          23.7275   41.8516   72.4405 H         1 PT1321      0.0000 
     26 H          27.4524   46.9303   76.7312 H         1 PT1321      0.0000 
     27 H          25.0914   49.3555   76.8355 H         1 PT1321      0.0000 
     28 H          26.4886   48.6912   77.6995 H         1 PT1321      0.0000 
     29 H          23.8487   49.1148   78.7719 H         1 PT1321      0.0000 
     30 H          26.9669   47.8971   80.0591 H         1 PT1321      0.0000 
     31 H          22.8652   46.8744   79.6697 H         1 PT1321      0.0000 
     32 H          27.2117   46.2130   81.8355 H         1 PT1321      0.0000 
     33 H          23.1033   45.2026   81.4292 H         1 PT1321      0.0000 
     34 H          21.9416   46.3241   75.3320 H         1 PT1321      0.0000 
@<TRIPOS>BOND
     1    2    1 ar   
     2   12    1 1    
     3   13    1 ar   
     4    3    2 ar   
     5    4    2 ar   
     6    6    3 ar   
     7   14    3 ar   
     8    7    4 ar   
     9    6    5 ar   
    10    8    5 1    
    11   13    5 ar   
    12    9    7 ar   
    13   15    7 1    
    14   24    8 1    
    15   25    8 1    
    16   14    9 ar   
    17   26    9 1    
    18   11   10 ar   
    19   22   10 1    
    20   23   10 ar   
    21   34   12 1    
    22   16   15 1    
    23   27   15 1    
    24   28   15 1    
    25   17   16 1    
    26   29   16 1    
    27   18   17 ar   
    28   19   17 ar   
    29   20   18 ar   
    30   30   18 1    
    31   21   19 ar   
    32   31   19 1    
    33   22   20 ar   
    34   32   20 1    
    35   22   21 ar   
    36   33   21 1    
@<TRIPOS>SUBSTRUCTURE
     1 PT1321      1 GROUP   
@<TRIPOS>SET

