#    Name: 1klk_PMD_1_INTS_M
#    Modification time : Tue Mar 25 10:14:25 2014

@<TRIPOS>MOLECULE
1klk_PMD_1_INTS_M
   60     0     9     0     0
SMALL
NO_CHARGES


@<TRIPOS>ATOM
      1 CA          8.6025    2.8160   12.0690 C.3       3 GLC5        0.0000 
      2 CA         10.4280    2.3360   11.6530 C.3       9 GLL5        0.0000 
      3 CA          6.7770    3.2960   12.4850 C.3       6 GLP5        0.0000 
      4 CA          9.9055    1.7315   13.5975 C.3       3 GLC5        0.0000 
      5 CA          9.3830    1.1270   15.5420 C.3       6 GLP5        0.0000 
      6 CA         11.5320    0.6995   12.2105 C.3       3 GLC5        0.0000 
      7 CA         12.6360   -0.9370   12.7680 C.3       6 GLP5        0.0000 
      8 CA         10.2010    3.4590    9.8125 C.3       3 GLC5        0.0000 
      9 CA          9.9740    4.5820    7.9720 C.3       6 GLP5        0.0000 
     10 CA          9.1640    4.6475   13.5500 C.3       3 GLC5        0.0000 
     11 CA         11.2440    3.8480   13.3410 C.3       9 GLL5        0.0000 
     12 CA          7.0840    5.4470   13.7590 C.3       6 GLP5        0.0000 
     13 CA         10.3135    2.4875   14.4415 C.3       3 GLC5        0.0000 
     14 CA         14.8460    3.8640    9.2910 C.3       3 GLC5        0.0000 
     15 CA         14.8660    3.9970   11.2110 C.3       9 GLL5        0.0000 
     16 CA         14.8260    3.7310    7.3710 C.3       6 GLP5        0.0000 
     17 CA         12.6390    1.1230   12.1050 C.3       3 GLC5        0.0000 
     18 CA         12.6420    3.1830   11.4420 C.3       9 GLL5        0.0000 
     19 CA         16.8840    4.0305   12.4070 C.3       3 GLC5        0.0000 
     20 CA         15.9900    5.5790   12.9390 C.3       9 GLL5        0.0000 
     21 CA         17.7780    2.4820   11.8750 C.3       6 GLP5        0.0000 
     22 CA         14.9255    5.0745   14.6475 C.3       3 GLC5        0.0000 
     23 CA         13.8610    4.5700   16.3560 C.3       6 GLP5        0.0000 
     24 CA         17.9695    4.5060   12.1210 C.3       3 GLC5        0.0000 
     25 CA         18.1610    6.5300   12.3670 C.3       9 GLL5        0.0000 
     26 CA         20.3205    8.8785    9.7605 C.3       3 GLC5        0.0000 
     27 CA         19.1950    7.0730    9.9570 C.3       9 GLL5        0.0000 
     28 CA         21.4460   10.6840    9.5640 C.3       6 GLP5        0.0000 
     29 CA         13.8580   10.6145    8.9905 C.3       3 GLC5        0.0000 
     30 CA         14.5220    8.8140    9.1370 C.3       9 GLL5        0.0000 
     31 CA         13.1940   12.4150    8.8440 C.3       6 GLP5        0.0000 
     32 CA         12.6375   10.0365   10.3500 C.3       3 GLC5        0.0000 
     33 CA         13.9650    8.4020   10.3790 C.3       9 GLL5        0.0000 
     34 CA         11.3100   11.6710   10.3210 C.3       6 GLP5        0.0000 
     35 N          11.8260    1.6415    9.9140 N.am      2 SEC2        0.0000 
     36 N          11.6080    2.4180   10.9740 N.am      8 SEL2        0.0000 
     37 N          12.0440    0.8650    8.8540 N.am      5 SEP2        0.0000 
     38 O           9.8010    0.6565   10.1320 O.2       1 ALC1        0.0000 
     39 O           9.4430    1.5440   11.1790 O.2       7 ALL1        0.0000 
     40 O          10.1590   -0.2310    9.0850 O.2       4 ALP1        0.0000 
     41 O           9.8070    4.1585   15.1205 O.2       1 ALC1        0.0000 
     42 O          11.0270    4.5250   14.4890 O.2       7 ALL1        0.0000 
     43 O           8.5870    3.7920   15.7520 O.2       4 ALP1        0.0000 
     44 O          11.1925    5.7400   15.2940 O.2       1 ALC1        0.0000 
     45 O          11.3580    6.9550   16.0990 O.2       4 ALP1        0.0000 
     46 O          10.8735    4.1310   16.0965 O.2       1 ALC1        0.0000 
     47 O          10.7200    3.7370   17.7040 O.2       4 ALP1        0.0000 
     48 CA         16.2912    3.4300   11.8472 C.3       3 GLC5        0.0000 
     49 CA         14.7430    4.7590   12.4280 C.3       9 GLL5        0.0000 
     50 CA         18.9413    4.3347   13.5008 C.3       3 GLC5        0.0000 
     51 CA         18.4220    6.2660   13.7700 C.3       9 GLL5        0.0000 
     52 CA         18.8020    2.3750   12.9750 C.3       6 GLP5        0.0000 
     53 CA         18.8957    5.8552   16.0053 C.3       3 GLC5        0.0000 
     54 CA         18.7110    5.4160   17.9840 C.3       6 GLP5        0.0000 
     55 CA         21.5765    5.3320   14.5325 C.3       3 GLC5        0.0000 
     56 CA         19.7390    6.3230   14.2830 C.3       9 GLL5        0.0000 
     57 CA         22.8750    4.2190   15.2200 C.3       6 GLP5        0.0000 
     58 CA         20.7990    7.9895   14.8405 C.3       3 GLC5        0.0000 
     59 CA         20.8170    6.5670   13.4070 C.3       9 GLL5        0.0000 
     60 CA         21.3200    9.5340   15.8360 C.3       6 GLP5        0.0000 
@<TRIPOS>BOND
@<TRIPOS>SUBSTRUCTURE
     1 ALC1       38 GROUP        1 X    ALC  0     ROOT ALC X 1
     2 SEC2       35 GROUP        1 X    SEC  0     **** SEC X 2
     3 GLC5        1 GROUP        1 X    GLC  0     **** GLC X 6
     4 ALP1       40 GROUP        1 Y    ALP  0     ROOT ALP Y 8
     5 SEP2       37 GROUP        1 Y    SEP  0     **** SEP Y 9
     6 GLP5        3 GROUP        1 Y    GLP  0     **** GLP Y 13
     7 ALL1       39 GROUP        1 Z    ALL  0     ROOT ALL Z 15
     8 SEL2       36 GROUP        1 Z    SEL  0     **** SEL Z 16
     9 GLL5        2 GROUP        1 Z    GLL  0     **** GLL Z 20
@<TRIPOS>SET

