#    Name: 1klk_PMD_1_ligand
#    Modification time : Tue Mar 25 10:14:25 2014

@<TRIPOS>MOLECULE
1klk_PMD_1_ligand
   45    49     1     0     0
SMALL
NO_CHARGES


@<TRIPOS>ATOM
      1 C2B        10.4280    2.3360   11.6530 C.ar      1 PMD653      0.0000 
      2 C4B        11.2440    3.8480   13.3410 C.ar      1 PMD653      0.0000 
      3 C4         12.4910    3.9500   12.6560 C.ar      1 PMD653      0.0000 
      4 C6B        14.7430    4.7590   12.4280 C.ar      1 PMD653      0.0000 
      5 C7B        14.8660    3.9970   11.2110 C.ar      1 PMD653      0.0000 
      6 C8         12.6420    3.1830   11.4420 C.ar      1 PMD653      0.0000 
      7 C9B        15.9900    5.5790   12.9390 C.3       1 PMD653      0.0000 
      8 C0'        18.1610    6.5300   12.3670 C.ar      1 PMD653      0.0000 
      9 C1'        18.4220    6.2660   13.7700 C.ar      1 PMD653      0.0000 
     10 C2'        19.7390    6.3230   14.2830 C.ar      1 PMD653      0.0000 
     11 C3'        20.8170    6.5670   13.4070 C.ar      1 PMD653      0.0000 
     12 C4'        20.5880    6.7990   12.0330 C.ar      1 PMD653      0.0000 
     13 C5'        19.2800    6.8530   11.4780 C.ar      1 PMD653      0.0000 
     14 C6'        19.1950    7.0730    9.9570 C.2       1 PMD653      0.0000 
     15 C6         18.1240    7.4530    9.2210 C.2       1 PMD653      0.0000 
     16 C7'        16.7080    7.7490    9.7220 C.ar      1 PMD653      0.0000 
     17 C8'        15.8660    8.4810    8.8090 C.ar      1 PMD653      0.0000 
     18 C9'        14.5220    8.8140    9.1370 C.ar      1 PMD653      0.0000 
     19 CA'        13.9650    8.4020   10.3790 C.ar      1 PMD653      0.0000 
     20 CB'        14.7310    7.6040   11.2610 C.ar      1 PMD653      0.0000 
     21 CC'        16.1060    7.2490   10.9720 C.ar      1 PMD653      0.0000 
     22 N1'        11.6080    2.4180   10.9740 N.ar      1 PMD653      0.0000 
     23 N2'         9.4430    1.5440   11.1790 N.pl3     1 PMD653      0.0000 
     24 N3'        10.2560    3.0510   12.8080 N.ar      1 PMD653      0.0000 
     25 N4'        11.0270    4.5250   14.4890 N.pl3     1 PMD653      0.0000 
     26 N5'        13.5600    4.7170   13.1260 N.ar      1 PMD653      0.0000 
     27 N8'        13.8210    3.2440   10.7540 N.ar      1 PMD653      0.0000 
     28 N0'        16.8340    6.2410   11.8210 N.3       1 PMD653      0.0000 
     29 H          15.7607    4.0418   10.7060 H         1 PMD653      0.0000 
     30 H          16.6296    4.8993   13.5181 H         1 PMD653      0.0000 
     31 H          15.6275    6.3568   13.6246 H         1 PMD653      0.0000 
     32 H          17.6370    6.0384   14.3793 H         1 PMD653      0.0000 
     33 H          19.9056    6.1886   15.2781 H         1 PMD653      0.0000 
     34 H          21.7760    6.5762   13.7703 H         1 PMD653      0.0000 
     35 H          21.3997    6.9353   11.4032 H         1 PMD653      0.0000 
     36 H          20.1388    6.8844    9.4786 H         1 PMD653      0.0000 
     37 H          18.2105    7.5788    8.1632 H         1 PMD653      0.0000 
     38 H          16.2529    8.7654    7.9020 H         1 PMD653      0.0000 
     39 H          13.9568    9.3496    8.4793 H         1 PMD653      0.0000 
     40 H          13.0197    8.6816   10.6291 H         1 PMD653      0.0000 
     41 H          14.3139    7.2592   12.1349 H         1 PMD653      0.0000 
     42 H           9.6386    1.0619   10.3250 H         1 PMD653      0.0000 
     43 H           8.6052    1.5098   11.7240 H         1 PMD653      0.0000 
     44 H          11.4698    5.4186   14.5633 H         1 PMD653      0.0000 
     45 H          10.4428    4.0727   15.1629 H         1 PMD653      0.0000 
@<TRIPOS>BOND
     1   22    1 ar   
     2   23    1 1    
     3   24    1 ar   
     4    3    2 ar   
     5   24    2 ar   
     6   25    2 1    
     7    6    3 ar   
     8   26    3 ar   
     9    5    4 ar   
    10    7    4 1    
    11   26    4 ar   
    12   27    5 ar   
    13   29    5 1    
    14   22    6 ar   
    15   27    6 ar   
    16   28    7 1    
    17   30    7 1    
    18   31    7 1    
    19    9    8 ar   
    20   13    8 ar   
    21   28    8 1    
    22   10    9 ar   
    23   32    9 1    
    24   11   10 ar   
    25   33   10 1    
    26   12   11 ar   
    27   34   11 1    
    28   13   12 ar   
    29   35   12 1    
    30   14   13 1    
    31   15   14 2    
    32   36   14 1    
    33   16   15 1    
    34   37   15 1    
    35   17   16 ar   
    36   21   16 ar   
    37   18   17 ar   
    38   38   17 1    
    39   19   18 ar   
    40   39   18 1    
    41   20   19 ar   
    42   40   19 1    
    43   21   20 ar   
    44   41   20 1    
    45   28   21 1    
    46   42   23 1    
    47   43   23 1    
    48   44   25 1    
    49   45   25 1    
@<TRIPOS>SUBSTRUCTURE
     1 PMD653      1 GROUP   
@<TRIPOS>SET

