#    Name: 4lxa_1YS_3_INTS_M
#    Modification time : Tue Mar 25 11:36:15 2014

@<TRIPOS>MOLECULE
4lxa_1YS_3_INTS_M
   81     0     9     0     0
SMALL
NO_CHARGES


@<TRIPOS>ATOM
      1 CA          1.3490  -39.8105   49.5895 C.3       3 GLC5        0.0000 
      2 CA          2.7840  -38.6900   48.7810 C.3       9 GLL5        0.0000 
      3 CA         -0.0860  -40.9310   50.3980 C.3       6 GLP5        0.0000 
      4 CA          5.1960  -36.0800   46.5070 C.3       3 GLC5        0.0000 
      5 CA          4.4900  -37.6500   47.8270 C.3       9 GLL5        0.0000 
      6 CA          5.9020  -34.5100   45.1870 C.3       6 GLP5        0.0000 
      7 CA          8.3060  -44.1345   51.0160 C.3       3 GLC5        0.0000 
      8 CA          6.6330  -43.8850   49.8200 C.3       9 GLL5        0.0000 
      9 CA          9.9790  -44.3840   52.2120 C.3       6 GLP5        0.0000 
     10 CA          7.9505  -42.7365   45.7625 C.3       3 GLC5        0.0000 
     11 CA          8.0710  -43.8010   47.6630 C.3       9 GLL5        0.0000 
     12 CA          7.8300  -41.6720   43.8620 C.3       6 GLP5        0.0000 
     13 CA         12.1135  -40.5465   50.5045 C.3       3 GLC5        0.0000 
     14 CA         11.8190  -41.1830   48.3690 C.3       9 GLL5        0.0000 
     15 CA         12.4080  -39.9100   52.6400 C.3       6 GLP5        0.0000 
     16 N          11.1655  -41.9240   51.8740 N.am      2 SEC2        0.0000 
     17 N          10.4660  -41.5630   50.6800 N.am      8 SEL2        0.0000 
     18 N          11.8650  -42.2850   53.0680 N.am      5 SEP2        0.0000 
     19 CA         15.9625  -43.9685   47.2600 C.3       3 GLC5        0.0000 
     20 CA         14.4780  -42.8480   47.7920 C.3       9 GLL5        0.0000 
     21 CA         17.4470  -45.0890   46.7280 C.3       6 GLP5        0.0000 
     22 CA         15.5530  -42.0505   46.2060 C.3       3 GLC5        0.0000 
     23 CA         16.6280  -41.2530   44.6200 C.3       6 GLP5        0.0000 
     24 CA         13.5360  -42.3935   52.6080 C.3       3 GLC5        0.0000 
     25 CA         14.8150  -43.7650   51.5320 C.3       9 GLL5        0.0000 
     26 CA         12.2570  -41.0220   53.6840 C.3       6 GLP5        0.0000 
     27 CA         13.5635  -41.4565   51.4925 C.3       3 GLC5        0.0000 
     28 CA         14.7190  -43.0030   50.3450 C.3       9 GLL5        0.0000 
     29 CA         16.8770  -48.9990   48.0355 C.3       3 GLC5        0.0000 
     30 CA         15.6100  -47.9640   49.0310 C.3       9 GLL5        0.0000 
     31 CA         18.1440  -50.0340   47.0400 C.3       6 GLP5        0.0000 
     32 CA         16.5285  -46.5265   47.8795 C.3       3 GLC5        0.0000 
     33 CA         12.9775  -48.9290   51.7130 C.3       3 GLC5        0.0000 
     34 CA         14.9640  -48.2350   51.4220 C.3       9 GLL5        0.0000 
     35 CA         10.9910  -49.6230   52.0040 C.3       6 GLP5        0.0000 
     36 CA         12.3885  -48.0105   48.0750 C.3       3 GLC5        0.0000 
     37 CA         13.1690  -47.8980   49.7250 C.3       9 GLL5        0.0000 
     38 CA         11.6080  -48.1230   46.4250 C.3       6 GLP5        0.0000 
     39 CA         12.0800  -48.7605   50.8645 C.3       3 GLC5        0.0000 
     40 CA         11.3230  -47.5310   49.6845 C.3       3 GLC5        0.0000 
     41 CA          9.4770  -47.1640   49.6440 C.3       6 GLP5        0.0000 
     42 O          10.2155  -44.5000   45.5090 O.2       1 ALC1        0.0000 
     43 O          10.8240  -44.6790   47.1210 O.2       7 ALL1        0.0000 
     44 O           9.6070  -44.3210   43.8970 O.2       4 ALP1        0.0000 
     45 O          10.1125  -45.3150   46.2355 O.2       1 ALC1        0.0000 
     46 O           9.4010  -45.9510   45.3500 O.2       4 ALP1        0.0000 
     47 CA          6.9110  -45.1755   51.9625 C.3       3 GLC5        0.0000 
     48 CA          5.3120  -43.9180   51.7970 C.3       9 GLL5        0.0000 
     49 CA          8.5100  -46.4330   52.1280 C.3       6 GLP5        0.0000 
     50 CA          5.8745  -43.7115   53.6025 C.3       3 GLC5        0.0000 
     51 CA          6.4370  -43.5050   55.4080 C.3       6 GLP5        0.0000 
     52 CA          4.8120  -45.3440   51.8385 C.3       3 GLC5        0.0000 
     53 CA          4.3120  -46.7700   51.8800 C.3       6 GLP5        0.0000 
     54 O           2.5695  -43.1305   51.3530 O.2       1 ALC1        0.0000 
     55 O           3.4560  -42.2030   50.6840 O.2       7 ALL1        0.0000 
     56 O           1.6830  -44.0580   52.0220 O.2       4 ALP1        0.0000 
     57 CA          5.8750  -41.3005   44.5620 C.3       3 GLC5        0.0000 
     58 CA          3.9200  -40.9290   45.2620 C.3       9 GLL5        0.0000 
     59 CA          1.5380  -41.8765   46.9505 C.3       3 GLC5        0.0000 
     60 CA          2.1710  -40.1410   46.3270 C.3       9 GLL5        0.0000 
     61 CA          0.9050  -43.6120   47.5740 C.3       6 GLP5        0.0000 
     62 CA          5.0949  -43.6764   46.8742 C.3       3 GLC5        0.0000 
     63 CA          4.7560  -42.1150   48.6620 C.3       9 GLL5        0.0000 
     64 CA          4.1080  -44.4880   45.3530 C.3       6 GLP5        0.0000 
     65 CA          6.9685  -45.4132   47.4065 C.3       3 GLC5        0.0000 
     66 CA          6.8390  -43.4080   48.4970 C.3       9 GLL5        0.0000 
     67 CA          6.4820  -47.2220   46.7330 C.3       6 GLP5        0.0000 
     68 CA          9.3255  -44.7180   49.1025 C.3       3 GLC5        0.0000 
     69 CA          9.9490  -46.0190   50.2740 C.3       6 GLP5        0.0000 
     70 CA         10.6005  -44.5023   48.9753 C.3       3 GLC5        0.0000 
     71 CA         10.6130  -43.2700   47.3320 C.3       9 GLL5        0.0000 
     72 CA         13.0010  -44.5512   52.2993 C.3       3 GLC5        0.0000 
     73 CA         14.7830  -45.1780   51.4670 C.3       9 GLL5        0.0000 
     74 CA         11.2030  -44.6310   53.0990 C.3       6 GLP5        0.0000 
     75 CA          1.3628  -38.9205   45.6869 C.3       3 GLC5        0.0000 
     76 CA          3.4950  -39.9430   46.0920 C.3       9 GLL5        0.0000 
     77 CA         -0.1580  -38.0950   45.3220 C.3       6 GLP5        0.0000 
     78 CA          2.4472  -40.0222   44.3211 C.3       3 GLC5        0.0000 
     79 CA          1.9300  -39.9040   42.7190 C.3       6 GLP5        0.0000 
     80 CA          2.8741  -41.8543   44.7400 C.3       3 GLC5        0.0000 
     81 CA          2.8090  -43.4200   43.4780 C.3       6 GLP5        0.0000 
@<TRIPOS>BOND
@<TRIPOS>SUBSTRUCTURE
     1 ALC1       42 GROUP        1 X    ALC  0     ROOT ALC X 1
     2 SEC2       16 GROUP        1 X    SEC  0     **** SEC X 2
     3 GLC5        1 GROUP        1 X    GLC  0     **** GLC X 6
     4 ALP1       44 GROUP        1 Y    ALP  0     ROOT ALP Y 8
     5 SEP2       18 GROUP        1 Y    SEP  0     **** SEP Y 9
     6 GLP5        3 GROUP        1 Y    GLP  0     **** GLP Y 13
     7 ALL1       43 GROUP        1 Z    ALL  0     ROOT ALL Z 15
     8 SEL2       17 GROUP        1 Z    SEL  0     **** SEL Z 16
     9 GLL5        2 GROUP        1 Z    GLL  0     **** GLL Z 20
@<TRIPOS>SET

