#    Name: 4lxa_1YS_3_ligand
#    Modification time : Tue Mar 25 11:36:15 2014

@<TRIPOS>MOLECULE
4lxa_1YS_3_ligand
   69    71     1     0     0
SMALL
NO_CHARGES


@<TRIPOS>ATOM
      1 F1          4.8380  -38.9960   49.5080 F         1 1YS501      0.0000 
      2 C2          4.0780  -38.8130   48.3970 C.3       1 1YS501      0.0000 
      3 F3          2.7840  -38.6900   48.7810 F         1 1YS501      0.0000 
      4 F4          4.4900  -37.6500   47.8270 F         1 1YS501      0.0000 
      5 C5          4.2640  -40.0270   47.4400 C.3       1 1YS501      0.0000 
      6 O7          3.8240  -41.2250   48.1190 O.3       1 1YS501      0.0000 
      7 C8          4.7560  -42.1150   48.6620 C.ar      1 1YS501      0.0000 
      8 C9          4.5490  -42.5930   49.9800 C.ar      1 1YS501      0.0000 
      9 C10         5.4940  -43.4770   50.5560 C.ar      1 1YS501      0.0000 
     10 C11         6.6330  -43.8850   49.8200 C.ar      1 1YS501      0.0000 
     11 C13         6.8390  -43.4080   48.4970 C.ar      1 1YS501      0.0000 
     12 C14         5.8930  -42.5280   47.9260 C.ar      1 1YS501      0.0000 
     13 C16         8.0710  -43.8010   47.6630 C.3       1 1YS501      0.0000 
     14 C19         9.3330  -43.0330   48.1990 C.3       1 1YS501      0.0000 
     15 C21        10.6130  -43.2700   47.3320 C.3       1 1YS501      0.0000 
     16 C23        11.8910  -42.7010   48.0210 C.3       1 1YS501      0.0000 
     17 C25        11.8190  -41.1830   48.3690 C.3       1 1YS501      0.0000 
     18 S28        10.4160  -40.7570   49.4020 S.o       1 1YS501      0.0000 
     19 C29         9.1160  -41.4930   48.4160 C.3       1 1YS501      0.0000 
     20 O32        10.4660  -41.5630   50.6800 O.2       1 1YS501      0.0000 
     21 N33        13.1100  -43.0230   47.2230 N.3       1 1YS501      0.0000 
     22 C35        14.4780  -42.8480   47.7920 C.3       1 1YS501      0.0000 
     23 C38        14.5900  -43.6600   49.0980 C.ar      1 1YS501      0.0000 
     24 C39        14.5610  -45.0750   49.0550 C.ar      1 1YS501      0.0000 
     25 C41        14.6540  -45.8800   50.2300 C.ar      1 1YS501      0.0000 
     26 C42        14.7830  -45.1780   51.4670 C.ar      1 1YS501      0.0000 
     27 C44        14.8150  -43.7650   51.5320 C.ar      1 1YS501      0.0000 
     28 C46        14.7190  -43.0030   50.3450 C.ar      1 1YS501      0.0000 
     29 C48        14.6110  -47.4470   50.1120 C.3       1 1YS501      0.0000 
     30 C49        15.6100  -47.9640   49.0310 C.3       1 1YS501      0.0000 
     31 C53        14.9640  -48.2350   51.4220 C.3       1 1YS501      0.0000 
     32 C57        13.1690  -47.8980   49.7250 C.3       1 1YS501      0.0000 
     33 O61        10.8240  -44.6790   47.1210 O.3       1 1YS501      0.0000 
     34 F63         5.3120  -43.9180   51.7970 F         1 1YS501      0.0000 
     35 N64         3.4560  -42.2030   50.6840 N.pl3     1 1YS501      0.0000 
     36 C67         3.4950  -39.9430   46.0920 C.3       1 1YS501      0.0000 
     37 F68         3.6970  -38.7590   45.4610 F         1 1YS501      0.0000 
     38 F69         3.9200  -40.9290   45.2620 F         1 1YS501      0.0000 
     39 F70         2.1710  -40.1410   46.3270 F         1 1YS501      0.0000 
     40 H           5.3256  -40.1152   47.2115 H         1 1YS501      0.0000 
     41 H           7.3098  -44.5238   50.2390 H         1 1YS501      0.0000 
     42 H           6.0295  -42.1844   46.9702 H         1 1YS501      0.0000 
     43 H           7.9167  -43.5279   46.6326 H         1 1YS501      0.0000 
     44 H           8.2508  -44.8591   47.7534 H         1 1YS501      0.0000 
     45 H           9.5661  -43.4558   49.2072 H         1 1YS501      0.0000 
     46 H          10.4883  -42.7533   46.3973 H         1 1YS501      0.0000 
     47 H          11.9833  -43.2422   48.9969 H         1 1YS501      0.0000 
     48 H          11.6800  -40.5700   47.5000 H         1 1YS501      0.0000 
     49 H          12.6598  -40.8556   48.9486 H         1 1YS501      0.0000 
     50 H           8.2308  -41.2853   48.9733 H         1 1YS501      0.0000 
     51 H           9.1565  -40.9474   47.5006 H         1 1YS501      0.0000 
     52 H          14.6647  -41.8042   48.0186 H         1 1YS501      0.0000 
     53 H          15.2278  -43.2090   47.0969 H         1 1YS501      0.0000 
     54 H          14.4689  -45.5485   48.1382 H         1 1YS501      0.0000 
     55 H          14.8550  -45.7255   52.3409 H         1 1YS501      0.0000 
     56 H          14.9071  -43.2976   52.4333 H         1 1YS501      0.0000 
     57 H          14.7425  -41.9859   50.3863 H         1 1YS501      0.0000 
     58 H           3.3786  -41.2234   50.8697 H         1 1YS501      0.0000 
     59 H           2.8246  -42.9297   50.9547 H         1 1YS501      0.0000 
     60 H          16.5529  -47.7076   49.2438 H         1 1YS501      0.0000 
     61 H          15.5881  -48.9606   48.9514 H         1 1YS501      0.0000 
     62 H          15.4025  -47.5930   48.1258 H         1 1YS501      0.0000 
     63 H          15.8880  -48.0270   51.7430 H         1 1YS501      0.0000 
     64 H          14.3373  -48.0132   52.1691 H         1 1YS501      0.0000 
     65 H          14.9174  -49.2244   51.2842 H         1 1YS501      0.0000 
     66 H          12.8820  -47.5123   48.8482 H         1 1YS501      0.0000 
     67 H          13.0999  -48.8924   49.6445 H         1 1YS501      0.0000 
     68 H          12.4950  -47.6115   50.4059 H         1 1YS501      0.0000 
     69 H          10.1877  -44.9294   46.3913 H         1 1YS501      0.0000 
@<TRIPOS>BOND
     1    2    1 1    
     2    3    2 1    
     3    4    2 1    
     4    5    2 1    
     5    6    5 1    
     6   36    5 1    
     7   40    5 1    
     8    7    6 1    
     9    8    7 ar   
    10   12    7 ar   
    11    9    8 ar   
    12   35    8 1    
    13   10    9 ar   
    14   34    9 1    
    15   11   10 ar   
    16   41   10 1    
    17   12   11 ar   
    18   13   11 1    
    19   42   12 1    
    20   14   13 1    
    21   43   13 1    
    22   44   13 1    
    23   15   14 1    
    24   19   14 1    
    25   45   14 1    
    26   16   15 1    
    27   33   15 1    
    28   46   15 1    
    29   17   16 1    
    30   21   16 1    
    31   47   16 1    
    32   18   17 1    
    33   48   17 1    
    34   49   17 1    
    35   19   18 1    
    36   20   18 2    
    37   50   19 1    
    38   51   19 1    
    39   22   21 1    
    40   23   22 1    
    41   52   22 1    
    42   53   22 1    
    43   24   23 ar   
    44   28   23 ar   
    45   25   24 ar   
    46   54   24 1    
    47   26   25 ar   
    48   29   25 1    
    49   27   26 ar   
    50   55   26 1    
    51   28   27 ar   
    52   56   27 1    
    53   57   28 1    
    54   30   29 1    
    55   31   29 1    
    56   32   29 1    
    57   60   30 1    
    58   61   30 1    
    59   62   30 1    
    60   63   31 1    
    61   64   31 1    
    62   65   31 1    
    63   66   32 1    
    64   67   32 1    
    65   68   32 1    
    66   69   33 1    
    67   58   35 1    
    68   59   35 1    
    69   37   36 1    
    70   38   36 1    
    71   39   36 1    
@<TRIPOS>SUBSTRUCTURE
     1 1YS501      1 GROUP   
@<TRIPOS>SET

