#    Name: 1pl8_NAD_2_INTS_M
#    Modification time : Mon Mar 24 21:55:20 2014

@<TRIPOS>MOLECULE
1pl8_NAD_2_INTS_M
   83     0    12     0     0
SMALL
NO_CHARGES


@<TRIPOS>ATOM
      1 NZ         69.8695   66.7050    8.9875 N.4       3 LYC4        0.0000 
      2 NZ         70.9880   66.8970    8.0310 N.4      11 LYL4        0.0000 
      3 NZ         67.7530   65.7610    9.4940 N.4       7 LYP4        0.0000 
      4 N          69.8695   66.7050    8.9875 N.am      2 SEC2        0.0000 
      5 N          70.9880   66.8970    8.0310 N.am     10 SEL2        0.0000 
      6 N          68.7510   66.5130    9.9440 N.am      6 SEP2        0.0000 
      7 CA         72.4035   67.5265   14.0860 C.3       4 GLC5        0.0000 
      8 CA         71.4930   68.4480   12.4630 C.3      12 GLL5        0.0000 
      9 CA         73.3140   66.6050   15.7090 C.3       8 GLP5        0.0000 
     10 N          69.0145   66.9640   11.2840 N.am      2 SEC2        0.0000 
     11 N          69.2780   67.4150   12.6240 N.am     10 SEL2        0.0000 
     12 O          69.4495   66.9830   13.7885 O.2       1 ALC1        0.0000 
     13 O          69.2780   67.4150   12.6240 O.2       9 ALL1        0.0000 
     14 O          69.6210   66.5510   14.9530 O.2       5 ALP1        0.0000 
     15 O          68.0490   68.7050   14.5825 O.2       1 ALC1        0.0000 
     16 O          68.3710   69.8610   13.7290 O.2       9 ALL1        0.0000 
     17 O          67.7270   67.5490   15.4360 O.2       5 ALP1        0.0000 
     18 CA         72.0575   68.1795   14.9650 C.3       4 GLC5        0.0000 
     19 CA         70.8010   69.7540   14.2210 C.3      12 GLL5        0.0000 
     20 CA         72.7340   69.8045   14.8255 C.3       4 GLC5        0.0000 
     21 CA         74.6670   69.8550   15.4300 C.3       8 GLP5        0.0000 
     22 CA         70.0680   72.8600   18.0450 C.3       4 GLC5        0.0000 
     23 CA         72.1900   72.7760   17.8510 C.3      12 GLL5        0.0000 
     24 CA         67.9460   72.9440   18.2390 C.3       8 GLP5        0.0000 
     25 CA         74.2375   72.6980   18.3115 C.3       4 GLC5        0.0000 
     26 CA         76.2850   72.6200   18.7720 C.3       8 GLP5        0.0000 
     27 CA         70.6170   69.0505   18.2645 C.3       4 GLC5        0.0000 
     28 CA         71.9000   70.5180   18.4140 C.3      12 GLL5        0.0000 
     29 CA         69.3340   67.5830   18.1150 C.3       8 GLP5        0.0000 
     30 CA         71.0155   70.3790   20.1620 C.3       4 GLC5        0.0000 
     31 CA         70.1310   70.2400   21.9100 C.3       8 GLP5        0.0000 
     32 CA         73.2835   70.1865   16.9220 C.3       4 GLC5        0.0000 
     33 CA         70.4210   69.3235   17.2125 C.3       4 GLC5        0.0000 
     34 CA         71.5080   71.0640   16.3100 C.3      12 GLL5        0.0000 
     35 N          74.5380   64.1565    9.1840 N.am      2 SEC2        0.0000 
     36 N          74.0990   65.6210    9.1790 N.am     10 SEL2        0.0000 
     37 N          74.9770   62.6920    9.1890 N.am      6 SEP2        0.0000 
     38 CA         76.5335   65.9720    9.4350 C.3       4 GLC5        0.0000 
     39 CA         76.0240   67.8910    9.4560 C.3      12 GLL5        0.0000 
     40 CA         77.0430   64.0530    9.4140 C.3       8 GLP5        0.0000 
     41 N          78.7145   71.7465    9.0380 N.am      2 SEC2        0.0000 
     42 N          77.4200   71.2270    8.6940 N.am     10 SEL2        0.0000 
     43 N          80.0090   72.2660    9.3820 N.am      6 SEP2        0.0000 
     44 CA         79.3380   69.6195    9.3300 C.3       4 GLC5        0.0000 
     45 CA         78.8620   68.8340    7.7330 C.3      12 GLL5        0.0000 
     46 CA         79.8140   70.4050   10.9270 C.3       8 GLP5        0.0000 
     47 CA         81.9310   65.1860    7.1260 C.3       4 GLC5        0.0000 
     48 CA         81.9710   67.2140    6.2210 C.3      12 GLL5        0.0000 
     49 CA         81.8910   63.1580    8.0310 C.3       8 GLP5        0.0000 
     50 N          85.3850   66.2805    5.5550 N.am      2 SEC2        0.0000 
     51 N          84.2060   66.8010    5.7600 N.am     10 SEL2        0.0000 
     52 N          86.5640   65.7600    5.3500 N.am      6 SEP2        0.0000 
     53 O          82.9110   68.7800    8.5405 O.2       1 ALC1        0.0000 
     54 O          83.8760   68.2890    7.3990 O.2       9 ALL1        0.0000 
     55 O          81.9460   69.2710    9.6820 O.2       5 ALP1        0.0000 
     56 O          85.2270   68.3065    7.8905 O.2       1 ALC1        0.0000 
     57 O          86.5780   68.3240    8.3820 O.2       5 ALP1        0.0000 
     58 CA         78.8535   64.6925    6.2450 C.3       4 GLC5        0.0000 
     59 CA         79.8970   66.0780    5.3990 C.3      12 GLL5        0.0000 
     60 CA         77.8100   63.3070    7.0910 C.3       8 GLP5        0.0000 
     61 CA         78.1045   65.6330    7.0030 C.3       4 GLC5        0.0000 
     62 CA         79.1170   66.9020    6.0920 C.3      12 GLL5        0.0000 
     63 CA         77.0920   64.3640    7.9140 C.3       8 GLP5        0.0000 
     64 CA         71.6557   66.4965   11.3187 C.3       4 GLC5        0.0000 
     65 CA         72.2920   68.6660   11.1940 C.3      12 GLL5        0.0000 
     66 CA         71.4190   64.4360   10.8090 C.3       8 GLP5        0.0000 
     67 CA         69.7802   71.9748   16.6692 C.3       4 GLC5        0.0000 
     68 CA         67.9140   72.2140   16.9120 C.3       8 GLP5        0.0000 
     69 CA         73.1568   70.7952   15.9282 C.3       4 GLC5        0.0000 
     70 CA         73.4632   73.8918   16.4360 C.3       4 GLC5        0.0000 
     71 CA         71.7850   72.4070   16.5430 C.3      12 GLL5        0.0000 
     72 CA         74.9390   75.1920   15.6750 C.3       8 GLP5        0.0000 
     73 CA         78.4177   69.9153    9.8425 C.3       4 GLC5        0.0000 
     74 CA         77.1360   68.8770    9.2820 C.3      12 GLL5        0.0000 
     75 CA         79.6488   70.1815    6.9287 C.3       4 GLC5        0.0000 
     76 CA         81.0270   71.2380    6.4760 C.3       8 GLP5        0.0000 
     77 CA         81.5507   66.8375    8.5038 C.3       4 GLC5        0.0000 
     78 CA         81.0540   67.9980    7.0620 C.3      12 GLL5        0.0000 
     79 CA         81.5890   66.0690   10.3660 C.3       8 GLP5        0.0000 
     80 CA         81.2698   69.4220    6.5587 C.3       4 GLC5        0.0000 
     81 CA         81.2417   64.2000    5.5045 C.3       4 GLC5        0.0000 
     82 CA         81.3840   66.2220    5.2410 C.3      12 GLL5        0.0000 
     83 CA         81.8430   62.2500    5.6890 C.3       8 GLP5        0.0000 
@<TRIPOS>BOND
@<TRIPOS>SUBSTRUCTURE
     1 ALC1       12 GROUP        1 X    ALC  0     ROOT ALC X 1
     2 SEC2        4 GROUP        1 X    SEC  0     **** SEC X 2
     3 LYC4        1 GROUP        1 X    LYC  0     **** LYC X 4
     4 GLC5        7 GROUP        1 X    GLC  0     **** GLC X 6
     5 ALP1       14 GROUP        1 Y    ALP  0     ROOT ALP Y 8
     6 SEP2        6 GROUP        1 Y    SEP  0     **** SEP Y 9
     7 LYP4        3 GROUP        1 Y    LYP  0     **** LYP Y 11
     8 GLP5        9 GROUP        1 Y    GLP  0     **** GLP Y 13
     9 ALL1       13 GROUP        1 Z    ALL  0     ROOT ALL Z 15
    10 SEL2        5 GROUP        1 Z    SEL  0     **** SEL Z 16
    11 LYL4        2 GROUP        1 Z    LYL  0     **** LYL Z 18
    12 GLL5        8 GROUP        1 Z    GLL  0     **** GLL Z 20
@<TRIPOS>SET

