#    Name: 1pl8_NAD_2_ligand
#    Modification time : Mon Mar 24 21:55:20 2014

@<TRIPOS>MOLECULE
1pl8_NAD_2_ligand
   69    73     1     0     0
SMALL
NO_CHARGES


@<TRIPOS>ATOM
      1 PA         71.8200   68.0140    8.6730 P.3       1 NAD400      0.0000 
      2 O1A        71.3660   69.3590    8.4260 O.co2     1 NAD400      0.0000 
      3 O2A        70.9880   66.8970    8.0310 O.co2     1 NAD400      0.0000 
      4 O5B        71.8620   67.6560   10.2510 O.3       1 NAD400      0.0000 
      5 C5B        72.2920   68.6660   11.1940 C.3       1 NAD400      0.0000 
      6 C4B        71.4930   68.4480   12.4630 C.3       1 NAD400      0.0000 
      7 O4B        71.9110   69.4160   13.4620 O.3       1 NAD400      0.0000 
      8 C3B        69.9730   68.6270   12.3060 C.3       1 NAD400      0.0000 
      9 O3B        69.2780   67.4150   12.6240 O.3       1 NAD400      0.0000 
     10 C2B        69.7080   69.8740   13.1730 C.3       1 NAD400      0.0000 
     11 O2B        68.3710   69.8610   13.7290 O.3       1 NAD400      0.0000 
     12 C1B        70.8010   69.7540   14.2210 C.3       1 NAD400      0.0000 
     13 N9A        71.1480   70.9810   14.9630 N.pl3     1 NAD400      0.0000 
     14 C8A        71.2480   72.2520   14.4760 C.2       1 NAD400      0.0000 
     15 N7A        71.6300   73.1490   15.3870 N.2       1 NAD400      0.0000 
     16 C5A        71.7850   72.4070   16.5430 C.ar      1 NAD400      0.0000 
     17 C6A        72.1900   72.7760   17.8510 C.ar      1 NAD400      0.0000 
     18 N6A        72.5000   73.9950   18.2550 N.pl3     1 NAD400      0.0000 
     19 N1A        72.1560   71.8040   18.8220 N.ar      1 NAD400      0.0000 
     20 C2A        71.9000   70.5180   18.4140 C.ar      1 NAD400      0.0000 
     21 N3A        71.5470   70.0540   17.2290 N.ar      1 NAD400      0.0000 
     22 C4A        71.5080   71.0640   16.3100 C.ar      1 NAD400      0.0000 
     23 O3         73.2550   67.8350    8.2470 O.3       1 NAD400      0.0000 
     24 PN         74.3150   66.6320    7.9940 P.3       1 NAD400      0.0000 
     25 O1N        74.1280   66.0620    6.7120 O.co2     1 NAD400      0.0000 
     26 O2N        74.0990   65.6210    9.1790 O.co2     1 NAD400      0.0000 
     27 O5D        75.5410   67.5630    8.1610 O.3       1 NAD400      0.0000 
     28 C5D        76.0240   67.8910    9.4560 C.3       1 NAD400      0.0000 
     29 C4D        77.1360   68.8770    9.2820 C.3       1 NAD400      0.0000 
     30 O4D        78.3550   68.1930    8.8700 O.3       1 NAD400      0.0000 
     31 C3D        76.9070   69.9740    8.2340 C.3       1 NAD400      0.0000 
     32 O3D        77.4200   71.2270    8.6940 O.3       1 NAD400      0.0000 
     33 C2D        77.6790   69.4160    7.0300 C.3       1 NAD400      0.0000 
     34 O2D        78.0230   70.4780    6.1170 O.3       1 NAD400      0.0000 
     35 C1D        78.8620   68.8340    7.7330 C.3       1 NAD400      0.0000 
     36 N1N        79.6740   67.9070    6.9520 N.pl3     1 NAD400      0.0000 
     37 C2N        81.0540   67.9980    7.0620 C.ar      1 NAD400      0.0000 
     38 C3N        81.9710   67.2140    6.2210 C.ar      1 NAD400      0.0000 
     39 C7N        83.4120   67.4350    6.4620 C.2       1 NAD400      0.0000 
     40 O7N        84.2060   66.8010    5.7600 O.2       1 NAD400      0.0000 
     41 N7N        83.8760   68.2890    7.3990 N.am      1 NAD400      0.0000 
     42 C4N        81.3840   66.2220    5.2410 C.ar      1 NAD400      0.0000 
     43 C5N        79.8970   66.0780    5.3990 C.ar      1 NAD400      0.0000 
     44 C6N        79.1170   66.9020    6.0920 C.ar      1 NAD400      0.0000 
     45 H          72.0898   69.6637   10.8247 H         1 NAD400      0.0000 
     46 H          73.3450   68.5673   11.4266 H         1 NAD400      0.0000 
     47 H          71.6747   67.4501   12.8385 H         1 NAD400      0.0000 
     48 H          69.8324   68.9351   11.2649 H         1 NAD400      0.0000 
     49 H          69.9140   70.7255   12.5698 H         1 NAD400      0.0000 
     50 H          70.5498   68.9550   14.8874 H         1 NAD400      0.0000 
     51 H          71.0496   72.4746   13.5209 H         1 NAD400      0.0000 
     52 H          72.0127   69.7606   19.2230 H         1 NAD400      0.0000 
     53 H          76.4135   67.0147    9.9755 H         1 NAD400      0.0000 
     54 H          75.2482   68.3460   10.0729 H         1 NAD400      0.0000 
     55 H          77.3360   69.3774   10.2351 H         1 NAD400      0.0000 
     56 H          75.8780   69.9795    7.9940 H         1 NAD400      0.0000 
     57 H          77.1019   68.6454    6.6119 H         1 NAD400      0.0000 
     58 H          79.4923   69.6817    8.0618 H         1 NAD400      0.0000 
     59 H          81.4897   68.6336    7.7537 H         1 NAD400      0.0000 
     60 H          83.1845   68.7501    7.9551 H         1 NAD400      0.0000 
     61 H          84.8699   68.3845    7.4537 H         1 NAD400      0.0000 
     62 H          81.8913   65.7564    4.6134 H         1 NAD400      0.0000 
     63 H          79.5035   65.2334    4.8938 H         1 NAD400      0.0000 
     64 H          78.0786   66.8544    6.0414 H         1 NAD400      0.0000 
     65 H          69.8470   66.9631   13.3110 H         1 NAD400      0.0000 
     66 H          68.3100   69.0012   14.2360 H         1 NAD400      0.0000 
     67 H          72.1452   74.6014   17.5434 H         1 NAD400      0.0000 
     68 H          76.7744   71.5290    9.3954 H         1 NAD400      0.0000 
     69 H          77.8338   71.3220    6.6188 H         1 NAD400      0.0000 
@<TRIPOS>BOND
     1    2    1 ar   
     2    3    1 ar   
     3    4    1 1    
     4   23    1 1    
     5    5    4 1    
     6    6    5 1    
     7   45    5 1    
     8   46    5 1    
     9    7    6 1    
    10    8    6 1    
    11   47    6 1    
    12   12    7 1    
    13    9    8 1    
    14   10    8 1    
    15   48    8 1    
    16   65    9 1    
    17   11   10 1    
    18   12   10 1    
    19   49   10 1    
    20   66   11 1    
    21   13   12 1    
    22   50   12 1    
    23   14   13 1    
    24   22   13 1    
    25   15   14 2    
    26   51   14 1    
    27   16   15 1    
    28   17   16 ar   
    29   22   16 ar   
    30   18   17 1    
    31   19   17 ar   
    32   67   18 1    
    33   20   19 ar   
    34   21   20 ar   
    35   52   20 1    
    36   22   21 ar   
    37   24   23 1    
    38   25   24 ar   
    39   26   24 ar   
    40   27   24 1    
    41   28   27 1    
    42   29   28 1    
    43   53   28 1    
    44   54   28 1    
    45   30   29 1    
    46   31   29 1    
    47   55   29 1    
    48   35   30 1    
    49   32   31 1    
    50   33   31 1    
    51   56   31 1    
    52   68   32 1    
    53   34   33 1    
    54   35   33 1    
    55   57   33 1    
    56   69   34 1    
    57   36   35 1    
    58   58   35 1    
    59   37   36 ar   
    60   44   36 ar   
    61   38   37 ar   
    62   59   37 1    
    63   39   38 1    
    64   42   38 ar   
    65   40   39 2    
    66   41   39 am   
    67   60   41 1    
    68   61   41 1    
    69   43   42 ar   
    70   62   42 1    
    71   44   43 ar   
    72   63   43 1    
    73   64   44 1    
@<TRIPOS>SUBSTRUCTURE
     1 NAD400      1 GROUP   
@<TRIPOS>SET

