#    Name: 1o5r_FR9_1_INTS_M
#    Modification time : Mon Mar 24 19:36:55 2014

@<TRIPOS>MOLECULE
1o5r_FR9_1_INTS_M
   68     0     9     0     0
SMALL
NO_CHARGES


@<TRIPOS>ATOM
      1 CA         53.6315   54.2625   22.2235 C.3       3 GLC5        0.0000 
      2 CA         51.9840   54.5140   20.7520 C.3       9 GLL5        0.0000 
      3 CA         55.2790   54.0110   23.6950 C.3       6 GLP5        0.0000 
      4 N          51.6130   53.2215   24.0750 N.am      2 SEC2        0.0000 
      5 N          51.6380   53.6160   22.7630 N.am      8 SEL2        0.0000 
      6 N          51.5880   52.8270   25.3870 N.am      5 SEP2        0.0000 
      7 CA         53.5625   53.0225   22.3040 C.3       3 GLC5        0.0000 
      8 CA         51.7660   53.3080   21.3420 C.3       9 GLL5        0.0000 
      9 CA         55.3590   52.7370   23.2660 C.3       6 GLP5        0.0000 
     10 N          52.3945   51.3130   18.7680 N.am      2 SEC2        0.0000 
     11 N          51.9080   51.9200   19.6970 N.am      8 SEL2        0.0000 
     12 N          52.8810   50.7060   17.8390 N.am      5 SEP2        0.0000 
     13 N          53.1010   51.0035   20.0580 N.am      2 SEC2        0.0000 
     14 N          54.2940   50.0870   20.4190 N.am      5 SEP2        0.0000 
     15 N          51.4795   50.3685   19.8520 N.am      2 SEC2        0.0000 
     16 N          51.0510   48.8170   20.0070 N.am      5 SEP2        0.0000 
     17 O          51.6995   50.9605   23.0180 O.2       1 ALC1        0.0000 
     18 O          51.4150   51.0140   21.5230 O.2       7 ALL1        0.0000 
     19 O          51.9840   50.9070   24.5130 O.2       4 ALP1        0.0000 
     20 O          51.2330   49.9155   20.7650 O.2       1 ALC1        0.0000 
     21 O          51.0510   48.8170   20.0070 O.2       4 ALP1        0.0000 
     22 CA         50.3280   56.2255   22.7400 C.3       3 GLC5        0.0000 
     23 CA         52.0850   57.0330   21.6130 C.3       9 GLL5        0.0000 
     24 CA         48.5710   55.4180   23.8670 C.3       6 GLP5        0.0000 
     25 N          54.9570   56.1375   22.6735 N.am      2 SEC2        0.0000 
     26 N          54.5430   57.4310   22.6980 N.am      8 SEL2        0.0000 
     27 N          55.3710   54.8440   22.6490 N.am      5 SEP2        0.0000 
     28 O          53.8400   57.6430   23.9090 O.2       1 ALC1        0.0000 
     29 O          54.5430   57.4310   22.6980 O.2       7 ALL1        0.0000 
     30 O          53.1370   57.8550   25.1200 O.2       4 ALP1        0.0000 
     31 CA         51.4670   58.4785   18.5690 C.3       3 GLC5        0.0000 
     32 CA         51.3820   57.4530   20.3350 C.3       9 GLL5        0.0000 
     33 CA         51.5520   59.5040   16.8030 C.3       6 GLP5        0.0000 
     34 CA         48.6695   56.4820   21.7890 C.3       3 GLC5        0.0000 
     35 CA         49.8710   57.5460   20.5300 C.3       9 GLL5        0.0000 
     36 CA         47.4680   55.4180   23.0480 C.3       6 GLP5        0.0000 
     37 CA         49.8770   60.2445   19.4820 C.3       3 GLC5        0.0000 
     38 CA         48.7350   58.8100   18.7000 C.3       9 GLL5        0.0000 
     39 CA         51.0190   61.6790   20.2640 C.3       6 GLP5        0.0000 
     40 CA         46.7165   53.6605   16.4905 C.3       3 GLC5        0.0000 
     41 CA         48.4460   54.9760   16.2970 C.3       9 GLL5        0.0000 
     42 CA         44.9870   52.3450   16.6840 C.3       6 GLP5        0.0000 
     43 CA         50.8227   59.5892   20.3483 C.3       3 GLC5        0.0000 
     44 CA         46.9555   55.8598   17.5095 C.3       3 GLC5        0.0000 
     45 CA         48.1540   56.3370   16.1950 C.3       9 GLL5        0.0000 
     46 CA         45.6110   56.0630   18.7730 C.3       6 GLP5        0.0000 
     47 CA         47.4187   55.4963   18.3680 C.3       3 GLC5        0.0000 
     48 CA         49.0830   54.5020   17.4470 C.3       9 GLL5        0.0000 
     49 CA         48.7643   54.8026   14.9187 C.3       3 GLC5        0.0000 
     50 CA         48.8370   54.5260   12.9910 C.3       6 GLP5        0.0000 
     51 CA         50.7601   54.9635   16.4823 C.3       3 GLC5        0.0000 
     52 CA         52.4530   54.8790   15.2890 C.3       6 GLP5        0.0000 
     53 CA         46.2935   50.6058   16.8148 C.3       3 GLC5        0.0000 
     54 CA         48.0320   49.2190   17.3550 C.3       9 GLL5        0.0000 
     55 CA         44.3087   49.4030   17.2748 C.3       3 GLC5        0.0000 
     56 CA         45.9940   47.9860   17.0600 C.3       9 GLL5        0.0000 
     57 CA         42.7910   50.7440   16.8120 C.3       6 GLP5        0.0000 
     58 CA         44.9043   49.5540   19.7820 C.3       3 GLC5        0.0000 
     59 CA         45.6590   48.1380   18.4150 C.3       9 GLL5        0.0000 
     60 CA         43.6940   50.6530   20.7560 C.3       6 GLP5        0.0000 
     61 CA         47.0705   46.7500   18.5113 C.3       3 GLC5        0.0000 
     62 CA         48.0210   45.3060   19.4160 C.3       6 GLP5        0.0000 
     63 CA         47.9012   47.6520   19.5081 C.3       3 GLC5        0.0000 
     64 CA         46.5700   48.7720   19.2010 C.3       9 GLL5        0.0000 
     65 CA         48.5780   46.2760   20.4020 C.3       6 GLP5        0.0000 
     66 CA         47.1256   56.9326   18.3561 C.3       3 GLC5        0.0000 
     67 CA         48.4750   57.1790   17.2260 C.3       9 GLL5        0.0000 
     68 CA         50.0961   58.6531   17.3711 C.3       3 GLC5        0.0000 
@<TRIPOS>BOND
@<TRIPOS>SUBSTRUCTURE
     1 ALC1       17 GROUP        1 X    ALC  0     ROOT ALC X 1
     2 SEC2        4 GROUP        1 X    SEC  0     **** SEC X 2
     3 GLC5        1 GROUP        1 X    GLC  0     **** GLC X 6
     4 ALP1       19 GROUP        1 Y    ALP  0     ROOT ALP Y 8
     5 SEP2        6 GROUP        1 Y    SEP  0     **** SEP Y 9
     6 GLP5        3 GROUP        1 Y    GLP  0     **** GLP Y 13
     7 ALL1       18 GROUP        1 Z    ALL  0     ROOT ALL Z 15
     8 SEL2        5 GROUP        1 Z    SEL  0     **** SEL Z 16
     9 GLL5        2 GROUP        1 Z    GLL  0     **** GLL Z 20
@<TRIPOS>SET

