#    Name: 1o5r_FR9_1_ligand
#    Modification time : Mon Mar 24 19:36:55 2014

@<TRIPOS>MOLECULE
1o5r_FR9_1_ligand
   59    62     1     0     0
SMALL
NO_CHARGES


@<TRIPOS>ATOM
      1 C1         51.9840   54.5140   20.7520 C.2       1 FR91001     0.0000 
      2 N2         52.0530   55.5750   21.7700 N.pl3     1 FR91001     0.0000 
      3 C3         51.7930   54.9070   22.8850 C.2       1 FR91001     0.0000 
      4 N4         51.6380   53.6160   22.7630 N.2       1 FR91001     0.0000 
      5 C5         51.7660   53.3080   21.3420 C.2       1 FR91001     0.0000 
      6 C8         51.7380   51.9640   20.7950 C.2       1 FR91001     0.0000 
      7 O9         51.9080   51.9200   19.6970 O.2       1 FR91001     0.0000 
      8 N10        51.4150   51.0140   21.5230 N.am      1 FR91001     0.0000 
      9 C13        52.0850   57.0330   21.6130 C.3       1 FR91001     0.0000 
     10 C14        53.5120   57.6680   21.6270 C.3       1 FR91001     0.0000 
     11 O15        54.5430   57.4310   22.6980 O.3       1 FR91001     0.0000 
     12 C18        51.3820   57.4530   20.3350 C.3       1 FR91001     0.0000 
     13 C19        49.8710   57.5460   20.5300 C.3       1 FR91001     0.0000 
     14 N22        49.2310   57.6440   19.2360 N.pl3     1 FR91001     0.0000 
     15 C27        48.7350   58.8100   18.7000 C.2       1 FR91001     0.0000 
     16 C28        48.2680   58.5680   17.4420 C.2       1 FR91001     0.0000 
     17 C29        48.4750   57.1790   17.2260 C.ar      1 FR91001     0.0000 
     18 C30        49.0830   56.6520   18.3890 C.ar      1 FR91001     0.0000 
     19 C31        48.1540   56.3370   16.1950 C.ar      1 FR91001     0.0000 
     20 C32        48.4460   54.9760   16.2970 C.ar      1 FR91001     0.0000 
     21 C33        49.0830   54.5020   17.4470 C.ar      1 FR91001     0.0000 
     22 C34        49.3700   55.3570   18.4790 C.ar      1 FR91001     0.0000 
     23 N1         49.3130   53.2450   17.7210 N.am      1 FR91001     0.0000 
     24 C2         49.2560   52.2020   16.8530 C.2       1 FR91001     0.0000 
     25 O1         48.7460   52.3280   15.7660 O.2       1 FR91001     0.0000 
     26 N3         49.5190   51.0810   17.4430 N.am      1 FR91001     0.0000 
     27 C6         49.2960   49.8220   16.7820 C.3       1 FR91001     0.0000 
     28 C7         47.7260   49.3490   18.7000 C.ar      1 FR91001     0.0000 
     29 C11        48.0320   49.2190   17.3550 C.ar      1 FR91001     0.0000 
     30 C9         47.1680   48.5140   16.5360 C.ar      1 FR91001     0.0000 
     31 C12        45.9940   47.9860   17.0600 C.ar      1 FR91001     0.0000 
     32 C10        45.6590   48.1380   18.4150 C.ar      1 FR91001     0.0000 
     33 C15        46.5700   48.7720   19.2010 C.ar      1 FR91001     0.0000 
     34 H          52.0856   54.7077   19.8238 H         1 FR91001     0.0000 
     35 H          51.7193   55.3879   23.7916 H         1 FR91001     0.0000 
     36 H          51.2066   51.2399   22.4746 H         1 FR91001     0.0000 
     37 H          51.3942   50.1137   21.0882 H         1 FR91001     0.0000 
     38 H          51.5288   57.5086   22.4445 H         1 FR91001     0.0000 
     39 H          53.3596   58.8044   21.5162 H         1 FR91001     0.0000 
     40 H          53.9854   57.4181   20.6071 H         1 FR91001     0.0000 
     41 H          51.5962   56.7261   19.5470 H         1 FR91001     0.0000 
     42 H          51.7613   58.4272   20.0152 H         1 FR91001     0.0000 
     43 H          49.6607   58.4227   21.1450 H         1 FR91001     0.0000 
     44 H          49.5423   56.6563   21.0698 H         1 FR91001     0.0000 
     45 H          48.7227   59.6628   19.1499 H         1 FR91001     0.0000 
     46 H          47.8906   59.1582   16.8316 H         1 FR91001     0.0000 
     47 H          47.6994   56.6944   15.3439 H         1 FR91001     0.0000 
     48 H          48.1982   54.3355   15.5430 H         1 FR91001     0.0000 
     49 H          49.8205   54.9680   19.3405 H         1 FR91001     0.0000 
     50 H          49.5802   52.9863   18.7492 H         1 FR91001     0.0000 
     51 H          49.9013   51.0209   18.4149 H         1 FR91001     0.0000 
     52 H          50.1175   49.1301   16.9548 H         1 FR91001     0.0000 
     53 H          49.1609   49.9528   15.7105 H         1 FR91001     0.0000 
     54 H          48.3541   49.8715   19.3241 H         1 FR91001     0.0000 
     55 H          47.3915   48.3794   15.5410 H         1 FR91001     0.0000 
     56 H          45.3451   47.4657   16.4396 H         1 FR91001     0.0000 
     57 H          44.7818   47.7873   18.7670 H         1 FR91001     0.0000 
     58 H          46.3987   48.8330   20.2400 H         1 FR91001     0.0000 
     59 H          54.0504   57.5441   23.5609 H         1 FR91001     0.0000 
@<TRIPOS>BOND
     1    2    1 1    
     2    5    1 2    
     3   34    1 1    
     4    3    2 1    
     5    9    2 1    
     6    4    3 2    
     7   35    3 1    
     8    5    4 1    
     9    6    5 1    
    10    7    6 2    
    11    8    6 am   
    12   36    8 1    
    13   37    8 1    
    14   10    9 1    
    15   12    9 1    
    16   38    9 1    
    17   11   10 1    
    18   39   10 1    
    19   40   10 1    
    20   59   11 1    
    21   13   12 1    
    22   41   12 1    
    23   42   12 1    
    24   14   13 1    
    25   43   13 1    
    26   44   13 1    
    27   15   14 1    
    28   18   14 1    
    29   16   15 2    
    30   45   15 1    
    31   17   16 1    
    32   46   16 1    
    33   18   17 ar   
    34   19   17 ar   
    35   22   18 ar   
    36   20   19 ar   
    37   47   19 1    
    38   21   20 ar   
    39   48   20 1    
    40   22   21 ar   
    41   23   21 1    
    42   49   22 1    
    43   24   23 am   
    44   50   23 1    
    45   25   24 2    
    46   26   24 am   
    47   27   26 1    
    48   51   26 1    
    49   29   27 1    
    50   52   27 1    
    51   53   27 1    
    52   29   28 ar   
    53   33   28 ar   
    54   54   28 1    
    55   30   29 ar   
    56   31   30 ar   
    57   55   30 1    
    58   32   31 ar   
    59   56   31 1    
    60   33   32 ar   
    61   57   32 1    
    62   58   33 1    
@<TRIPOS>SUBSTRUCTURE
     1 FR91001     1 GROUP   
@<TRIPOS>SET

