#    Name: 1xdi_FAD_2_INTS_M
#    Modification time : Tue Mar 25 09:46:33 2014

@<TRIPOS>MOLECULE
1xdi_FAD_2_INTS_M
  123     0     9     0     0
SMALL
NO_CHARGES


@<TRIPOS>ATOM
      1 N           4.9625   41.8655  -31.2315 N.am      2 SEC2        0.0000 
      2 N           6.3520   41.0360  -31.4380 N.am      8 SEL2        0.0000 
      3 N           3.5730   42.6950  -31.0250 N.am      5 SEP2        0.0000 
      4 CA          7.7845   38.3205  -34.2505 C.3       3 GLC5        0.0000 
      5 CA          8.2110   40.1190  -34.5130 C.3       9 GLL5        0.0000 
      6 CA          7.3580   36.5220  -33.9880 C.3       6 GLP5        0.0000 
      7 CA         10.4460   41.4135  -35.8015 C.3       3 GLC5        0.0000 
      8 CA          8.3010   41.1860  -35.5660 C.3       9 GLL5        0.0000 
      9 CA         12.5910   41.6410  -36.0370 C.3       6 GLP5        0.0000 
     10 N           5.3250   42.7420  -34.7150 N.am      2 SEC2        0.0000 
     11 N           6.2240   42.4330  -35.8240 N.am      8 SEL2        0.0000 
     12 N           4.4260   43.0510  -33.6060 N.am      5 SEP2        0.0000 
     13 CA          6.4775   43.3395  -38.6425 C.3       3 GLC5        0.0000 
     14 CA          7.5670   41.8720  -37.7660 C.3       9 GLL5        0.0000 
     15 CA          5.3880   44.8070  -39.5190 C.3       6 GLP5        0.0000 
     16 N           7.6605   44.2585  -39.1205 N.am      2 SEC2        0.0000 
     17 N           7.6310   43.2680  -38.0740 N.am      8 SEL2        0.0000 
     18 N           7.6900   45.2490  -40.1670 N.am      5 SEP2        0.0000 
     19 O           8.6345   43.9360  -37.4295 O.2       1 ALC1        0.0000 
     20 O           7.6310   43.2680  -38.0740 O.2       7 ALL1        0.0000 
     21 O           9.6380   44.6040  -36.7850 O.2       4 ALP1        0.0000 
     22 CA         10.7770   41.4840  -36.9280 C.3       3 GLC5        0.0000 
     23 CA          8.9630   41.3270  -37.8190 C.3       9 GLL5        0.0000 
     24 CA         11.6370   39.6080  -42.9720 C.3       3 GLC5        0.0000 
     25 CA         11.7740   39.3390  -41.1720 C.3       9 GLL5        0.0000 
     26 CA         11.5000   39.8770  -44.7720 C.3       6 GLP5        0.0000 
     27 O          13.4925   38.2200  -42.9955 O.2       1 ALC1        0.0000 
     28 O          12.1040   38.3270  -41.9710 O.2       7 ALL1        0.0000 
     29 O          14.8810   38.1130  -44.0200 O.2       4 ALP1        0.0000 
     30 N          13.5275   40.5860  -42.3415 N.am      2 SEC2        0.0000 
     31 N          12.5950   40.4570  -41.1830 N.am      8 SEL2        0.0000 
     32 N          14.4600   40.7150  -43.5000 N.am      5 SEP2        0.0000 
     33 CA         12.4715   41.5895  -38.2125 C.3       3 GLC5        0.0000 
     34 CA         12.3520   41.5380  -40.3880 C.3       9 GLL5        0.0000 
     35 CA         14.1380   42.6640  -40.8540 C.3       3 GLC5        0.0000 
     36 CA         15.9240   43.7900  -41.3200 C.3       6 GLP5        0.0000 
     37 CA         12.2995   43.1810  -39.6030 C.3       3 GLC5        0.0000 
     38 CA         12.2470   44.8240  -38.8180 C.3       6 GLP5        0.0000 
     39 CA         10.4475   41.8500  -41.1250 C.3       3 GLC5        0.0000 
     40 CA          8.5430   42.1620  -41.8620 C.3       6 GLP5        0.0000 
     41 CA         12.5510   41.8550  -42.4175 C.3       3 GLC5        0.0000 
     42 CA         12.7500   42.1720  -44.4470 C.3       6 GLP5        0.0000 
     43 N          10.8680   43.0165  -39.9605 N.am      2 SEC2        0.0000 
     44 N          11.2800   41.6210  -39.4960 N.am      8 SEL2        0.0000 
     45 N          10.4560   44.4120  -40.4250 N.am      5 SEP2        0.0000 
     46 CA         11.5305   41.0190  -37.8000 C.3       3 GLC5        0.0000 
     47 CA         10.4700   40.3970  -39.5630 C.3       9 GLL5        0.0000 
     48 N           3.5215   38.5160  -24.1845 N.am      2 SEC2        0.0000 
     49 N           2.0420   38.6880  -24.1090 N.am      8 SEL2        0.0000 
     50 N           5.0010   38.3440  -24.2600 N.am      5 SEP2        0.0000 
     51 N           4.1335   38.7255  -23.2555 N.am      2 SEC2        0.0000 
     52 N           3.2660   39.1070  -22.2510 N.am      8 SEL2        0.0000 
     53 N           5.0045   39.0740  -22.2325 N.am      2 SEC2        0.0000 
     54 N           6.7430   39.0410  -22.2140 N.am      5 SEP2        0.0000 
     55 O           1.4870   40.8870  -21.4810 O.2       1 ALC1        0.0000 
     56 O           1.1780   39.9380  -22.3020 O.2       7 ALL1        0.0000 
     57 O           1.7960   41.8360  -20.6600 O.2       4 ALP1        0.0000 
     58 N          -2.8680   40.4110  -24.2115 N.am      2 SEC2        0.0000 
     59 N          -1.5200   39.8420  -24.7710 N.am      8 SEL2        0.0000 
     60 N          -4.2160   40.9800  -23.6520 N.am      5 SEP2        0.0000 
     61 CA         -5.1240   41.0080  -27.8195 C.3       3 GLC5        0.0000 
     62 CA         -4.4290   39.1230  -28.8320 C.3       9 GLL5        0.0000 
     63 CA         -5.8190   42.8930  -26.8070 C.3       6 GLP5        0.0000 
     64 CA         -4.5840   39.2825  -30.6700 C.3       3 GLC5        0.0000 
     65 CA         -4.7390   39.4420  -32.5080 C.3       6 GLP5        0.0000 
     66 CA         -5.2045   37.6190  -27.6450 C.3       3 GLC5        0.0000 
     67 CA         -5.9800   36.1150  -26.4580 C.3       6 GLP5        0.0000 
     68 CA         -6.4685   39.4605  -28.6095 C.3       3 GLC5        0.0000 
     69 CA         -8.5080   39.7980  -28.3870 C.3       6 GLP5        0.0000 
     70 CA         -3.1400   37.4710  -31.4515 C.3       3 GLC5        0.0000 
     71 CA         -2.1530   37.6170  -30.0960 C.3       9 GLL5        0.0000 
     72 CA         -4.1270   37.3250  -32.8070 C.3       6 GLP5        0.0000 
     73 CA         -0.1080   40.3875  -26.5980 C.3       3 GLC5        0.0000 
     74 CA         -0.6160   38.5140  -26.7630 C.3       9 GLL5        0.0000 
     75 CA          0.4000   42.2610  -26.4330 C.3       6 GLP5        0.0000 
     76 CA          4.1285   39.5570  -25.9605 C.3       3 GLC5        0.0000 
     77 CA          2.8200   38.4680  -27.0990 C.3       9 GLL5        0.0000 
     78 CA          5.4370   40.6460  -24.8220 C.3       6 GLP5        0.0000 
     79 O           5.0950   35.7620  -27.7250 O.2       1 ALC1        0.0000 
     80 O           4.5630   36.9210  -26.8910 O.2       7 ALL1        0.0000 
     81 O           5.6270   34.6030  -28.5590 O.2       4 ALP1        0.0000 
     82 O           4.3600   36.2310  -28.4250 O.2       1 ALC1        0.0000 
     83 O           4.1570   35.5410  -29.9590 O.2       4 ALP1        0.0000 
     84 CA          4.8710   40.7320  -28.6115 C.3       3 GLC5        0.0000 
     85 CA          5.0920   38.6360  -28.2910 C.3       9 GLL5        0.0000 
     86 CA          4.6500   42.8280  -28.9320 C.3       6 GLP5        0.0000 
     87 CA          6.0855   36.1700  -29.9680 C.3       3 GLC5        0.0000 
     88 CA          6.1140   38.0010  -29.1000 C.3       9 GLL5        0.0000 
     89 CA          6.0570   34.3390  -30.8360 C.3       6 GLP5        0.0000 
     90 CA          7.7050   37.8505  -27.7800 C.3       3 GLC5        0.0000 
     91 CA          9.2960   37.7000  -26.4600 C.3       6 GLP5        0.0000 
     92 N          10.1700   40.2275  -29.2935 N.am      2 SEC2        0.0000 
     93 N           9.1350   39.8840  -30.2170 N.am      8 SEL2        0.0000 
     94 N          11.2050   40.5710  -28.3700 N.am      5 SEP2        0.0000 
     95 N           8.5490   35.9020  -29.9875 N.am      2 SEC2        0.0000 
     96 N           8.8480   37.3740  -30.2410 N.am      8 SEL2        0.0000 
     97 N           8.2500   34.4300  -29.7340 N.am      5 SEP2        0.0000 
     98 CA          9.3485   38.9638  -35.5512 C.3       3 GLC5        0.0000 
     99 CA         10.4410   37.2750  -36.0630 C.3       6 GLP5        0.0000 
    100 CA          7.0673   42.8573  -34.7395 C.3       3 GLC5        0.0000 
    101 CA          6.4610   44.3900  -33.4690 C.3       6 GLP5        0.0000 
    102 CA          8.4040   41.8807  -39.8273 C.3       3 GLC5        0.0000 
    103 CA          9.6902   41.0146  -41.0045 C.3       3 GLC5        0.0000 
    104 CA         10.6360   39.3360  -40.2900 C.3       9 GLL5        0.0000 
    105 CA         11.4078   38.4486  -39.1095 C.3       3 GLC5        0.0000 
    106 CA         11.9780   37.0300  -38.0720 C.3       6 GLP5        0.0000 
    107 CA         -3.3792   37.7255  -26.1890 C.3       3 GLC5        0.0000 
    108 CA         -1.6880   39.2810  -26.0800 C.3       9 GLL5        0.0000 
    109 CA         -4.4630   36.0860  -25.9420 C.3       6 GLP5        0.0000 
    110 CA         -2.4043   39.9382  -29.5747 C.3       3 GLC5        0.0000 
    111 CA         -3.1100   38.9140  -28.1090 C.3       9 GLL5        0.0000 
    112 CA         -1.0390   40.8580  -30.6790 C.3       6 GLP5        0.0000 
    113 CA         -1.8269   40.9078  -27.1333 C.3       3 GLC5        0.0000 
    114 CA         -0.9510   42.6760  -26.9940 C.3       6 GLP5        0.0000 
    115 CA         -3.5223   37.3225  -27.1752 C.3       3 GLC5        0.0000 
    116 CA         -1.2570   39.4086  -29.7018 C.3       3 GLC5        0.0000 
    117 CA         -2.0530   38.2040  -28.7080 C.3       9 GLL5        0.0000 
    118 CA          3.6579   37.0216  -25.5288 C.3       3 GLC5        0.0000 
    119 CA          1.7210   37.6170  -26.6150 C.3       9 GLL5        0.0000 
    120 CA          4.2170   36.1390  -23.7210 C.3       6 GLP5        0.0000 
    121 CA          5.2707   38.7370  -26.3238 C.3       3 GLC5        0.0000 
    122 CA          3.9270   37.7660  -27.8160 C.3       9 GLL5        0.0000 
    123 CA          6.0320   39.2730  -24.5940 C.3       6 GLP5        0.0000 
@<TRIPOS>BOND
@<TRIPOS>SUBSTRUCTURE
     1 ALC1       19 GROUP        1 X    ALC  0     ROOT ALC X 1
     2 SEC2        1 GROUP        1 X    SEC  0     **** SEC X 2
     3 GLC5        4 GROUP        1 X    GLC  0     **** GLC X 6
     4 ALP1       21 GROUP        1 Y    ALP  0     ROOT ALP Y 8
     5 SEP2        3 GROUP        1 Y    SEP  0     **** SEP Y 9
     6 GLP5        6 GROUP        1 Y    GLP  0     **** GLP Y 13
     7 ALL1       20 GROUP        1 Z    ALL  0     ROOT ALL Z 15
     8 SEL2        2 GROUP        1 Z    SEL  0     **** SEL Z 16
     9 GLL5        5 GROUP        1 Z    GLL  0     **** GLL Z 20
@<TRIPOS>SET

