#    Name: 1xdi_FAD_2_ligand
#    Modification time : Tue Mar 25 09:46:33 2014

@<TRIPOS>MOLECULE
1xdi_FAD_2_ligand
   84    89     1     0     0
SMALL
NO_CHARGES


@<TRIPOS>ATOM
      1 PA          6.5600   39.9400  -32.3990 P.3       1 FAD999      0.0000 
      2 O1A         5.3500   39.1600  -32.8320 O.co2     1 FAD999      0.0000 
      3 O2A         6.3520   41.0360  -31.4380 O.co2     1 FAD999      0.0000 
      4 O5B         7.1800   40.6030  -33.6740 O.3       1 FAD999      0.0000 
      5 C5B         8.2110   40.1190  -34.5130 C.3       1 FAD999      0.0000 
      6 C4B         8.3010   41.1860  -35.5660 C.3       1 FAD999      0.0000 
      7 O4B         9.3530   40.9950  -36.5100 O.3       1 FAD999      0.0000 
      8 C3B         7.0460   41.4630  -36.4540 C.3       1 FAD999      0.0000 
      9 O3B         6.2240   42.4330  -35.8240 O.3       1 FAD999      0.0000 
     10 C2B         7.5670   41.8720  -37.7660 C.3       1 FAD999      0.0000 
     11 O2B         7.6310   43.2680  -38.0740 O.3       1 FAD999      0.0000 
     12 C1B         8.9630   41.3270  -37.8190 C.3       1 FAD999      0.0000 
     13 N9A         9.3570   40.3030  -38.7310 N.pl3     1 FAD999      0.0000 
     14 C8A         8.8660   39.0370  -39.0760 C.2       1 FAD999      0.0000 
     15 N7A         9.5890   38.4340  -39.9960 N.2       1 FAD999      0.0000 
     16 C5A        10.6360   39.3360  -40.2900 C.ar      1 FAD999      0.0000 
     17 C6A        11.7740   39.3390  -41.1720 C.ar      1 FAD999      0.0000 
     18 N6A        12.1040   38.3270  -41.9710 N.pl3     1 FAD999      0.0000 
     19 N1A        12.5950   40.4570  -41.1830 N.ar      1 FAD999      0.0000 
     20 C2A        12.3520   41.5380  -40.3880 C.ar      1 FAD999      0.0000 
     21 N3A        11.2800   41.6210  -39.4960 N.ar      1 FAD999      0.0000 
     22 C4A        10.4700   40.3970  -39.5630 C.ar      1 FAD999      0.0000 
     23 N1          2.0420   38.6880  -24.1090 N.2       1 FAD999      0.0000 
     24 C2          2.2130   39.2330  -22.8710 C.2       1 FAD999      0.0000 
     25 O2          3.2660   39.1070  -22.2510 O.2       1 FAD999      0.0000 
     26 N3          1.1780   39.9380  -22.3020 N.am      1 FAD999      0.0000 
     27 C4         -0.0780   40.1590  -22.8900 C.2       1 FAD999      0.0000 
     28 O4         -0.9430   40.8110  -22.2600 O.2       1 FAD999      0.0000 
     29 C4X        -0.2460   39.6190  -24.1300 C.2       1 FAD999      0.0000 
     30 N5         -1.5200   39.8420  -24.7710 N.2       1 FAD999      0.0000 
     31 C5X        -1.6880   39.2810  -26.0800 C.ar      1 FAD999      0.0000 
     32 C6         -2.9030   39.4490  -26.7920 C.ar      1 FAD999      0.0000 
     33 C7         -3.1100   38.9140  -28.1090 C.ar      1 FAD999      0.0000 
     34 C7M        -4.4290   39.1230  -28.8320 C.3       1 FAD999      0.0000 
     35 C8         -2.0530   38.2040  -28.7080 C.ar      1 FAD999      0.0000 
     36 C8M        -2.1530   37.6170  -30.0960 C.3       1 FAD999      0.0000 
     37 C9         -0.8470   38.0080  -28.0470 C.ar      1 FAD999      0.0000 
     38 C9A        -0.6160   38.5140  -26.7630 C.ar      1 FAD999      0.0000 
     39 N10         0.6530   38.3510  -25.9860 N.pl3     1 FAD999      0.0000 
     40 C10         0.8230   38.8920  -24.7350 C.2       1 FAD999      0.0000 
     41 C1'         1.7210   37.6170  -26.6150 C.3       1 FAD999      0.0000 
     42 C2'         2.8200   38.4680  -27.0990 C.3       1 FAD999      0.0000 
     43 O2'         2.1870   39.3930  -28.0270 O.3       1 FAD999      0.0000 
     44 C3'         3.9270   37.7660  -27.8160 C.3       1 FAD999      0.0000 
     45 O3'         4.5630   36.9210  -26.8910 O.3       1 FAD999      0.0000 
     46 C4'         5.0920   38.6360  -28.2910 C.3       1 FAD999      0.0000 
     47 O4'         4.4640   39.5400  -29.2620 O.3       1 FAD999      0.0000 
     48 C5'         6.1140   38.0010  -29.1000 C.3       1 FAD999      0.0000 
     49 O5'         7.1100   38.9480  -29.3630 O.3       1 FAD999      0.0000 
     50 P           8.2570   38.7350  -30.3690 P.3       1 FAD999      0.0000 
     51 O1P         9.1350   39.8840  -30.2170 O.co2     1 FAD999      0.0000 
     52 O2P         8.8480   37.3740  -30.2410 O.co2     1 FAD999      0.0000 
     53 O3P         7.4740   38.8060  -31.7290 O.3       1 FAD999      0.0000 
     54 H           7.9532   39.1906  -34.9832 H         1 FAD999      0.0000 
     55 H           9.1535   40.0536  -34.0061 H         1 FAD999      0.0000 
     56 H           8.4987   42.1744  -35.0559 H         1 FAD999      0.0000 
     57 H           6.5453   40.5040  -36.5501 H         1 FAD999      0.0000 
     58 H           7.0154   41.3262  -38.5495 H         1 FAD999      0.0000 
     59 H           9.6206   42.2652  -38.0713 H         1 FAD999      0.0000 
     60 H           8.0498   38.6702  -38.6437 H         1 FAD999      0.0000 
     61 H          12.9451   38.4401  -42.4999 H         1 FAD999      0.0000 
     62 H          11.4811   37.5447  -41.9704 H         1 FAD999      0.0000 
     63 H          13.0054   42.3690  -40.4397 H         1 FAD999      0.0000 
     64 H           1.3312   40.3568  -21.3321 H         1 FAD999      0.0000 
     65 H          -3.6766   39.9774  -26.3513 H         1 FAD999      0.0000 
     66 H          -0.0904   37.4696  -28.5169 H         1 FAD999      0.0000 
     67 H           1.3233   37.0201  -27.4715 H         1 FAD999      0.0000 
     68 H           2.1364   36.8609  -25.9052 H         1 FAD999      0.0000 
     69 H           3.2229   39.0434  -26.2743 H         1 FAD999      0.0000 
     70 H           3.5629   37.2028  -28.6414 H         1 FAD999      0.0000 
     71 H           5.4792   39.2045  -27.5041 H         1 FAD999      0.0000 
     72 H           5.6614   37.6244  -30.0303 H         1 FAD999      0.0000 
     73 H           6.5187   37.1311  -28.5600 H         1 FAD999      0.0000 
     74 H          -4.6288   40.0935  -28.9670 H         1 FAD999      0.0000 
     75 H          -4.4289   38.6953  -29.7359 H         1 FAD999      0.0000 
     76 H          -5.1970   38.7335  -28.3236 H         1 FAD999      0.0000 
     77 H          -1.3103   37.1496  -30.3632 H         1 FAD999      0.0000 
     78 H          -2.8933   36.9481  -30.1639 H         1 FAD999      0.0000 
     79 H          -2.3292   38.3202  -30.7848 H         1 FAD999      0.0000 
     80 H           6.6358   43.3133  -36.0594 H         1 FAD999      0.0000 
     81 H           8.3985   43.6167  -37.5360 H         1 FAD999      0.0000 
     82 H           2.8452   39.5031  -28.7718 H         1 FAD999      0.0000 
     83 H           4.9346   36.1712  -27.4385 H         1 FAD999      0.0000 
     84 H           5.2022   40.1385  -29.5733 H         1 FAD999      0.0000 
@<TRIPOS>BOND
     1    2    1 ar   
     2    3    1 ar   
     3    4    1 1    
     4   53    1 1    
     5    5    4 1    
     6    6    5 1    
     7   54    5 1    
     8   55    5 1    
     9    7    6 1    
    10    8    6 1    
    11   56    6 1    
    12   12    7 1    
    13    9    8 1    
    14   10    8 1    
    15   57    8 1    
    16   80    9 1    
    17   11   10 1    
    18   12   10 1    
    19   58   10 1    
    20   81   11 1    
    21   13   12 1    
    22   59   12 1    
    23   14   13 1    
    24   22   13 1    
    25   15   14 2    
    26   60   14 1    
    27   16   15 1    
    28   17   16 ar   
    29   22   16 ar   
    30   18   17 1    
    31   19   17 ar   
    32   61   18 1    
    33   62   18 1    
    34   20   19 ar   
    35   21   20 ar   
    36   63   20 1    
    37   22   21 ar   
    38   24   23 1    
    39   40   23 2    
    40   25   24 2    
    41   26   24 am   
    42   27   26 am   
    43   64   26 1    
    44   28   27 2    
    45   29   27 1    
    46   30   29 2    
    47   40   29 1    
    48   31   30 1    
    49   32   31 ar   
    50   38   31 ar   
    51   33   32 ar   
    52   65   32 1    
    53   34   33 1    
    54   35   33 ar   
    55   74   34 1    
    56   75   34 1    
    57   76   34 1    
    58   36   35 1    
    59   37   35 ar   
    60   77   36 1    
    61   78   36 1    
    62   79   36 1    
    63   38   37 ar   
    64   66   37 1    
    65   39   38 1    
    66   40   39 1    
    67   41   39 1    
    68   42   41 1    
    69   67   41 1    
    70   68   41 1    
    71   43   42 1    
    72   44   42 1    
    73   69   42 1    
    74   82   43 1    
    75   45   44 1    
    76   46   44 1    
    77   70   44 1    
    78   83   45 1    
    79   47   46 1    
    80   48   46 1    
    81   71   46 1    
    82   84   47 1    
    83   49   48 1    
    84   72   48 1    
    85   73   48 1    
    86   50   49 1    
    87   51   50 ar   
    88   52   50 ar   
    89   53   50 1    
@<TRIPOS>SUBSTRUCTURE
     1 FAD999      1 GROUP   
@<TRIPOS>SET

