#    Name: 4nkt_2KH_1_INTS_M
#    Modification time : Tue Mar 25 13:14:47 2014

@<TRIPOS>MOLECULE
4nkt_2KH_1_INTS_M
   53     0    12     0     0
SMALL
NO_CHARGES


@<TRIPOS>ATOM
      1 N          65.8900   17.9060   93.4035 N.am      2 SEC2        0.0000 
      2 N          65.0990   18.8440   94.1920 N.am     10 SEL2        0.0000 
      3 N          66.6810   16.9680   92.6150 N.am      6 SEP2        0.0000 
      4 NZ         61.1855   15.3635   91.7780 N.4       3 LYC4        0.0000 
      5 NZ         60.8360   16.7370   92.5270 N.4      11 LYL4        0.0000 
      6 NZ         61.5350   13.9900   91.0290 N.4       7 LYP4        0.0000 
      7 N          59.6430   16.7250   91.6530 N.am      2 SEC2        0.0000 
      8 N          60.8360   16.7370   92.5270 N.am     10 SEL2        0.0000 
      9 N          58.4500   16.7130   90.7790 N.am      6 SEP2        0.0000 
     10 N          61.1855   15.3635   91.7780 N.am      2 SEC2        0.0000 
     11 N          61.5350   13.9900   91.0290 N.am      6 SEP2        0.0000 
     12 NZ         61.0105   14.7175   97.5365 N.4       3 LYC4        0.0000 
     13 NZ         60.3740   16.1090   96.8020 N.4      11 LYL4        0.0000 
     14 NZ         61.6470   13.3260   98.2710 N.4       7 LYP4        0.0000 
     15 N          61.0105   14.7175   97.5365 N.am      2 SEC2        0.0000 
     16 N          60.3740   16.1090   96.8020 N.am     10 SEL2        0.0000 
     17 N          61.6470   13.3260   98.2710 N.am      6 SEP2        0.0000 
     18 NZ         62.1950   14.6840   97.6765 N.4       3 LYC4        0.0000 
     19 NZ         62.7430   16.0420   97.0820 N.4      11 LYL4        0.0000 
     20 N          62.1950   14.6840   97.6765 N.am      2 SEC2        0.0000 
     21 N          62.7430   16.0420   97.0820 N.am     10 SEL2        0.0000 
     22 N          63.4280   15.3845   96.2780 N.am      2 SEC2        0.0000 
     23 N          64.1130   14.7270   95.4740 N.am      6 SEP2        0.0000 
     24 CA         62.3445   23.5485   90.3700 C.3       4 GLC5        0.0000 
     25 CA         63.2620   21.8670   90.7040 C.3      12 GLL5        0.0000 
     26 CA         61.4270   25.2300   90.0360 C.3       8 GLP5        0.0000 
     27 CA         63.1900   24.3085   90.1985 C.3       4 GLC5        0.0000 
     28 CA         64.9530   23.3870   90.3610 C.3      12 GLL5        0.0000 
     29 CA         64.4950   25.0525   89.1985 C.3       4 GLC5        0.0000 
     30 CA         64.0370   26.7180   88.0360 C.3       8 GLP5        0.0000 
     31 CA         62.9875   23.5905   89.0125 C.3       4 GLC5        0.0000 
     32 CA         64.8730   22.4230   89.2540 C.3      12 GLL5        0.0000 
     33 CA         61.1020   24.7580   88.7710 C.3       8 GLP5        0.0000 
     34 O          64.9455   22.7940   87.1780 O.2       1 ALC1        0.0000 
     35 O          64.0450   22.8760   88.2140 O.2       9 ALL1        0.0000 
     36 O          65.8460   22.7120   86.1420 O.2       5 ALP1        0.0000 
     37 O          63.8450   20.4260   87.6730 O.2       1 ALC1        0.0000 
     38 O          63.7100   20.3410   88.9530 O.2       9 ALL1        0.0000 
     39 O          63.9800   20.5110   86.3930 O.2       5 ALP1        0.0000 
     40 N          67.3125   24.4395   88.0360 N.am      2 SEC2        0.0000 
     41 N          67.1580   24.6730   89.4300 N.am     10 SEL2        0.0000 
     42 N          67.4670   24.2060   86.6420 N.am      6 SEP2        0.0000 
     43 N          71.1035   24.0835   92.8425 N.am      2 SEC2        0.0000 
     44 N          69.9420   23.1390   92.8210 N.am     10 SEL2        0.0000 
     45 N          72.2650   25.0280   92.8640 N.am      6 SEP2        0.0000 
     46 CA         65.9310   20.5750   89.1435 C.3       4 GLC5        0.0000 
     47 CA         64.2730   21.2570   89.8760 C.3      12 GLL5        0.0000 
     48 CA         67.2890   19.3100   88.7220 C.3       8 GLP5        0.0000 
     49 CA         61.9529   21.0948   89.4629 C.3       4 GLC5        0.0000 
     50 CA         60.2370   20.8570   88.3670 C.3       8 GLP5        0.0000 
     51 CA         67.8690   21.5463   91.3067 C.3       4 GLC5        0.0000 
     52 CA         66.3670   22.5720   92.1720 C.3      12 GLL5        0.0000 
     53 CA         68.7520   20.5600   90.1240 C.3       8 GLP5        0.0000 
@<TRIPOS>BOND
@<TRIPOS>SUBSTRUCTURE
     1 ALC1       34 GROUP        1 X    ALC  0     ROOT ALC X 1
     2 SEC2        1 GROUP        1 X    SEC  0     **** SEC X 2
     3 LYC4        4 GROUP        1 X    LYC  0     **** LYC X 4
     4 GLC5       24 GROUP        1 X    GLC  0     **** GLC X 6
     5 ALP1       36 GROUP        1 Y    ALP  0     ROOT ALP Y 8
     6 SEP2        3 GROUP        1 Y    SEP  0     **** SEP Y 9
     7 LYP4        6 GROUP        1 Y    LYP  0     **** LYP Y 11
     8 GLP5       26 GROUP        1 Y    GLP  0     **** GLP Y 13
     9 ALL1       35 GROUP        1 Z    ALL  0     ROOT ALL Z 15
    10 SEL2        2 GROUP        1 Z    SEL  0     **** SEL Z 16
    11 LYL4        5 GROUP        1 Z    LYL  0     **** LYL Z 18
    12 GLL5       25 GROUP        1 Z    GLL  0     **** GLL Z 20
@<TRIPOS>SET

