#    Name: 4nkt_2KH_1_ligand
#    Modification time : Tue Mar 25 13:14:47 2014

@<TRIPOS>MOLECULE
4nkt_2KH_1_ligand
   40    41     1     0     0
SMALL
NO_CHARGES


@<TRIPOS>ATOM
      1 PA         63.6670   19.2900   93.6550 P.3       1 2KH401      0.0000 
      2 O1A        65.0990   18.8440   94.1920 O.co2     1 2KH401      0.0000 
      3 O2A        62.8440   19.7890   94.8050 O.co2     1 2KH401      0.0000 
      4 N3A        62.9310   18.0020   92.9080 N.3       1 2KH401      0.0000 
      5 O5'        63.9070   20.4890   92.6320 O.3       1 2KH401      0.0000 
      6 PB         61.5380   17.4750   93.6130 P.3       1 2KH401      0.0000 
      7 O1B        60.6270   18.6880   94.0670 O.co2     1 2KH401      0.0000 
      8 O2B        60.8360   16.7370   92.5270 O.co2     1 2KH401      0.0000 
      9 O3B        61.7110   16.3910   94.7960 O.3       1 2KH401      0.0000 
     10 PG         61.6050   16.6820   96.3400 P.3       1 2KH401      0.0000 
     11 O1G        60.3740   16.1090   96.8020 O.co2     1 2KH401      0.0000 
     12 O2G        61.6170   18.1410   96.6620 O.co2     1 2KH401      0.0000 
     13 O3G        62.7430   16.0420   97.0820 O.co2     1 2KH401      0.0000 
     14 C5'        62.8670   20.9490   91.7790 C.3       1 2KH401      0.0000 
     15 C4'        63.2620   21.8670   90.7040 C.3       1 2KH401      0.0000 
     16 O4'        63.8890   23.0500   91.2240 O.3       1 2KH401      0.0000 
     17 C1'        64.9530   23.3870   90.3610 C.3       1 2KH401      0.0000 
     18 C2'        64.8730   22.4230   89.2540 C.3       1 2KH401      0.0000 
     19 O2'        64.0450   22.8760   88.2140 O.3       1 2KH401      0.0000 
     20 C3'        64.2730   21.2570   89.8760 C.3       1 2KH401      0.0000 
     21 O3'        63.7100   20.3410   88.9530 O.3       1 2KH401      0.0000 
     22 N1         66.2180   23.3130   91.0300 N.am      1 2KH401      0.0000 
     23 C6         66.3670   22.5720   92.1720 C.2       1 2KH401      0.0000 
     24 C2         67.2990   23.9780   90.5080 C.2       1 2KH401      0.0000 
     25 O2         67.1580   24.6730   89.4300 O.2       1 2KH401      0.0000 
     26 N3         68.5020   23.9200   91.1020 N.am      1 2KH401      0.0000 
     27 C4         68.6980   23.2050   92.2230 C.2       1 2KH401      0.0000 
     28 O4         69.9420   23.1390   92.8210 O.2       1 2KH401      0.0000 
     29 C5         67.6050   22.4930   92.8070 C.2       1 2KH401      0.0000 
     30 H          62.0565   21.4484   92.3906 H         1 2KH401      0.0000 
     31 H          62.3302   20.0687   91.3129 H         1 2KH401      0.0000 
     32 H          62.4153   22.1313   90.1023 H         1 2KH401      0.0000 
     33 H          64.7927   24.3806   89.9503 H         1 2KH401      0.0000 
     34 H          65.8594   22.1775   88.9307 H         1 2KH401      0.0000 
     35 H          65.0069   20.7960   90.5213 H         1 2KH401      0.0000 
     36 H          65.5611   22.0632   92.5747 H         1 2KH401      0.0000 
     37 H          69.3114   24.4472   90.6797 H         1 2KH401      0.0000 
     38 H          67.7416   21.9583   93.6472 H         1 2KH401      0.0000 
     39 H          64.6308   22.8883   87.4036 H         1 2KH401      0.0000 
     40 H          63.9524   20.7000   88.0517 H         1 2KH401      0.0000 
@<TRIPOS>BOND
     1    2    1 ar   
     2    3    1 ar   
     3    4    1 1    
     4    5    1 1    
     5    6    4 1    
     6   14    5 1    
     7    7    6 ar   
     8    8    6 ar   
     9    9    6 1    
    10   10    9 1    
    11   11   10 ar   
    12   12   10 ar   
    13   13   10 ar   
    14   15   14 1    
    15   30   14 1    
    16   31   14 1    
    17   16   15 1    
    18   20   15 1    
    19   32   15 1    
    20   17   16 1    
    21   18   17 1    
    22   22   17 1    
    23   33   17 1    
    24   19   18 1    
    25   20   18 1    
    26   34   18 1    
    27   39   19 1    
    28   21   20 1    
    29   35   20 1    
    30   40   21 1    
    31   23   22 1    
    32   24   22 am   
    33   29   23 2    
    34   36   23 1    
    35   25   24 2    
    36   26   24 am   
    37   27   26 am   
    38   37   26 1    
    39   28   27 2    
    40   29   27 1    
    41   38   29 1    
@<TRIPOS>SUBSTRUCTURE
     1 2KH401      1 GROUP   
@<TRIPOS>SET

