#    Name: 1bs6_MET_ALA_SER_3_INTS_M
#    Modification time : Mon Mar 24 19:47:52 2014

@<TRIPOS>MOLECULE
1bs6_MET_ALA_SER_3_INTS_M
   57     0    12     0     0
SMALL
NO_CHARGES


@<TRIPOS>ATOM
      1 OD1        62.6440   32.8000   44.3860 O.co2     3 ASC3        0.0000 
      2 OD1        62.1610   33.9300   44.7110 O.co2    11 ASL3        0.0000 
      3 OD1        63.1270   31.6700   44.0610 O.co2     7 ASP3        0.0000 
      4 O          63.6555   33.8645   45.5530 O.2       1 ALC1        0.0000 
      5 O          62.1610   33.9300   44.7110 O.2       9 ALL1        0.0000 
      6 O          65.1500   33.7990   46.3950 O.2       5 ALP1        0.0000 
      7 O          63.2940   33.8205   43.5875 O.2       1 ALC1        0.0000 
      8 O          64.4270   33.7110   42.4640 O.2       5 ALP1        0.0000 
      9 CA         61.7710   36.6990   42.9040 C.3       4 GLC5        0.0000 
     10 CA         61.3710   35.1180   44.3310 C.3      12 GLL5        0.0000 
     11 CA         62.1710   38.2800   41.4770 C.3       8 GLP5        0.0000 
     12 N          62.3130   35.5375   47.8460 N.am      2 SEC2        0.0000 
     13 N          62.2750   36.0390   46.3320 N.am     10 SEL2        0.0000 
     14 N          62.3510   35.0360   49.3600 N.am      6 SEP2        0.0000 
     15 CA         60.0335   31.6620   45.4665 C.3       4 GLC5        0.0000 
     16 CA         59.5840   33.2810   44.3690 C.3      12 GLL5        0.0000 
     17 CA         60.4830   30.0430   46.5640 C.3       8 GLP5        0.0000 
     18 CA         60.0385   32.6635   42.6515 C.3       4 GLC5        0.0000 
     19 CA         60.4930   32.0460   40.9340 C.3       8 GLP5        0.0000 
     20 CA         56.3510   31.5755   43.3170 C.3       4 GLC5        0.0000 
     21 CA         57.8980   32.8610   43.8560 C.3      12 GLL5        0.0000 
     22 CA         54.8040   30.2900   42.7780 C.3       8 GLP5        0.0000 
     23 CA         58.2790   30.9380   44.3170 C.3       4 GLC5        0.0000 
     24 CA         58.6600   29.0150   44.7780 C.3       8 GLP5        0.0000 
     25 CA         58.8380   31.8015   42.4640 C.3       4 GLC5        0.0000 
     26 CA         59.7780   30.7420   41.0720 C.3       8 GLP5        0.0000 
     27 CA         57.6825   33.9920   46.3615 C.3       4 GLC5        0.0000 
     28 CA         57.0320   34.3350   44.3490 C.3      12 GLL5        0.0000 
     29 CA         58.3330   33.6490   48.3740 C.3       8 GLP5        0.0000 
     30 CA         55.0815   33.9860   44.5885 C.3       4 GLC5        0.0000 
     31 CA         53.1310   33.6370   44.8280 C.3       8 GLP5        0.0000 
     32 O          60.3705   37.1880   43.7400 O.2       1 ALC1        0.0000 
     33 O          60.9140   37.3430   45.1340 O.2       9 ALL1        0.0000 
     34 O          59.8270   37.0330   42.3460 O.2       5 ALP1        0.0000 
     35 CA         62.0870   37.7665   47.7665 C.3       4 GLC5        0.0000 
     36 CA         60.7320   38.3510   46.1640 C.3      12 GLL5        0.0000 
     37 CA         63.4420   37.1820   49.3690 C.3       8 GLP5        0.0000 
     38 N          57.2975   38.7825   45.9085 N.am      2 SEC2        0.0000 
     39 N          58.4210   37.6340   46.3280 N.am     10 SEL2        0.0000 
     40 N          56.1740   39.9310   45.4890 N.am      6 SEP2        0.0000 
     41 CA         59.6060   39.3705   43.8550 C.3       4 GLC5        0.0000 
     42 CA         60.7250   39.7420   45.5480 C.3      12 GLL5        0.0000 
     43 CA         58.4870   38.9990   42.1620 C.3       8 GLP5        0.0000 
     44 N          56.5150   39.9305   46.9735 N.am      2 SEC2        0.0000 
     45 N          56.8560   39.9300   48.4580 N.am     10 SEL2        0.0000 
     46 N          57.1150   40.7880   47.4360 N.am      2 SEC2        0.0000 
     47 N          57.3740   41.6460   46.4140 N.am      6 SEP2        0.0000 
     48 CA         60.6767   34.5628   42.3785 C.3       4 GLC5        0.0000 
     49 CA         59.8940   34.7470   44.1830 C.3      12 GLL5        0.0000 
     50 CA         60.7210   34.1930   40.5000 C.3       8 GLP5        0.0000 
     51 CA         59.7770   33.9080   46.3805 C.3       4 GLC5        0.0000 
     52 CA         59.8150   33.8020   48.4850 C.3       8 GLP5        0.0000 
     53 CA         56.3885   33.9565   42.4838 C.3       4 GLC5        0.0000 
     54 CA         55.3120   34.3150   40.8650 C.3       8 GLP5        0.0000 
     55 CA         59.1497   36.7345   50.2765 C.3       4 GLC5        0.0000 
     56 CA         58.3530   38.2110   49.1550 C.3      12 GLL5        0.0000 
     57 CA         59.7840   34.9440   50.7180 C.3       8 GLP5        0.0000 
@<TRIPOS>BOND
@<TRIPOS>SUBSTRUCTURE
     1 ALC1        4 GROUP        1 X    ALC  0     ROOT ALC X 1
     2 SEC2       12 GROUP        1 X    SEC  0     **** SEC X 2
     3 ASC3        1 GROUP        1 X    ASC  0     **** ASC X 3
     4 GLC5        9 GROUP        1 X    GLC  0     **** GLC X 6
     5 ALP1        6 GROUP        1 Y    ALP  0     ROOT ALP Y 8
     6 SEP2       14 GROUP        1 Y    SEP  0     **** SEP Y 9
     7 ASP3        3 GROUP        1 Y    ASP  0     **** ASP Y 10
     8 GLP5       11 GROUP        1 Y    GLP  0     **** GLP Y 13
     9 ALL1        5 GROUP        1 Z    ALL  0     ROOT ALL Z 15
    10 SEL2       13 GROUP        1 Z    SEL  0     **** SEL Z 16
    11 ASL3        2 GROUP        1 Z    ASL  0     **** ASL Z 17
    12 GLL5       10 GROUP        1 Z    GLL  0     **** GLL Z 20
@<TRIPOS>SET

