#    Name: 1bs6_MET_ALA_SER_3_ligand
#    Modification time : Mon Mar 24 19:47:52 2014

@<TRIPOS>MOLECULE
1bs6_MET_ALA_SER_3_ligand
   42    41     3     0     0
SMALL
NO_CHARGES


@<TRIPOS>ATOM
      1 N          62.1610   33.9300   44.7110 N.4       1 MET1        0.0000
      2 CA         61.3710   35.1180   44.3310 C.3       1 MET1        0.0000
      3 C          61.5230   36.1960   45.3850 C.2       1 MET1        0.0000
      4 O          62.2750   36.0390   46.3320 O.2       1 MET1        0.0000
      5 CB         59.8940   34.7470   44.1830 C.3       1 MET1        0.0000
      6 CG         59.5840   33.2810   44.3690 C.3       1 MET1        0.0000
      7 SD         57.8980   32.8610   43.8560 S.3       1 MET1        0.0000
      8 CE         57.0320   34.3350   44.3490 C.3       1 MET1        0.0000
      9 HA         61.7186   35.5070   43.3872 H         1 MET1        0.0000
     10 HB2        59.5502   35.0687   43.1795 H         1 MET1        0.0000
     11 HB3        59.3083   35.3399   44.9138 H         1 MET1        0.0000
     12 HG2        59.5942   32.9602   45.3943 H         1 MET1        0.0000
     13 HG3        60.1759   32.6290   43.7536 H         1 MET1        0.0000
     14 HNCA       61.5852   33.1191   44.8159 H         1 MET1        0.0000
     15 H          62.8547   33.7102   44.0250 H         1 MET1        0.0000
     16 H          62.6393   34.0641   45.5789 H         1 MET1        0.0000
     17 HE1        57.2472   34.5949   45.2904 H         1 MET1        0.0000
     18 HE2        57.2663   35.1150   43.7688 H         1 MET1        0.0000
     19 HE3        56.0402   34.2181   44.2966 H         1 MET1        0.0000
     20 N          60.9140   37.3430   45.1340 N.am      2 ALA2        0.0000
     21 CA         60.7320   38.3510   46.1640 C.3       2 ALA2        0.0000
     22 C          59.4220   38.0970   46.9190 C.2       2 ALA2        0.0000
     23 O          58.4210   37.6340   46.3280 O.2       2 ALA2        0.0000
     24 CB         60.7250   39.7420   45.5480 C.3       2 ALA2        0.0000
     25 H          60.5358   37.5824   44.1925 H         2 ALA2        0.0000
     26 HA         61.5425   38.3034   46.8838 H         2 ALA2        0.0000
     27 HB1        61.5823   39.9425   45.0739 H         2 ALA2        0.0000
     28 HB2        59.9887   39.8486   44.8798 H         2 ALA2        0.0000
     29 HB3        60.5989   40.4536   46.2392 H         2 ALA2        0.0000
     30 N          59.4180   38.5240   48.1890 N.am      3 SER3        0.0000
     31 CA         58.3530   38.2110   49.1550 C.3       3 SER3        0.0000
     32 C          56.9840   38.7000   48.6940 C.2       3 SER3        0.0000
     33 O          56.0910   37.8270   48.5160 O.2       3 SER3        0.0000
     34 CB         58.6780   38.8390   50.5150 C.3       3 SER3        0.0000
     35 OG         58.8340   40.2480   50.3890 O.3       3 SER3        0.0000
     36 OXT        56.8560   39.9300   48.4580 O.3       3 SER3        0.0000
     37 HNCA       60.1971   39.1204   48.5689 H         3 SER3        0.0000
     38 HA         58.2927   37.1333   49.3056 H         3 SER3        0.0000
     39 HB2        59.5921   38.3575   50.8911 H         3 SER3        0.0000
     40 HB3        57.8616   38.5770   51.2032 H         3 SER3        0.0000
     41 HG         58.2020   40.5142   49.6612 H         3 SER3        0.0000
     42 H          55.9052   40.1396   48.6861 H         3 SER3        0.0000
@<TRIPOS>BOND
     1    2    1 1
     2   14    1 1
     3   15    1 1
     4   16    1 1
     5    3    2 1
     6    5    2 1
     7    9    2 1
     8    4    3 2
     9    6    5 1
    10   10    5 1
    11   11    5 1
    12    7    6 1
    13   12    6 1
    14   13    6 1
    15    8    7 1
    16   17    8 1
    17   18    8 1
    18   19    8 1
    19   21   20 1
    20   25   20 1
    21   22   21 1
    22   24   21 1
    23   26   21 1
    24   23   22 2
    25   27   24 1
    26   28   24 1
    27   29   24 1
    28   31   30 1
    29   37   30 1
    30   32   31 1
    31   34   31 1
    32   38   31 1
    33   33   32 2
    34   36   32 1
    35   35   34 1
    36   39   34 1
    37   40   34 1
    38   41   35 1
    39   42   36 1
    40   20    3 am
    41   30   22 am
@<TRIPOS>SUBSTRUCTURE
     1 MET1        1 RESIDUE
     2 ALA2       20 RESIDUE
     3 SER3       30 RESIDUE
@<TRIPOS>SET

