#    Name: 1gwc_GTX_1_INTS_M
#    Modification time : Tue Mar 25 04:03:56 2014

@<TRIPOS>MOLECULE
1gwc_GTX_1_INTS_M
   76     0    15     0     0
SMALL
NO_CHARGES


@<TRIPOS>ATOM
      1 OD1        48.0755   -6.9530   71.3595 O.co2     3 ASC3        0.0000 
      2 OD1        47.0000   -7.2030   70.5010 O.co2    13 ASL3        0.0000 
      3 OD1        49.1510   -6.7030   72.2180 O.co2     8 ASP3        0.0000 
      4 OD1        47.5730   -7.6300   72.0495 O.co2     3 ASC3        0.0000 
      5 OD1        48.1460   -8.0570   73.5980 O.co2     8 ASP3        0.0000 
      6 O          48.0755   -6.9530   71.3595 O.2       1 ALC1        0.0000 
      7 O          47.0000   -7.2030   70.5010 O.2      11 ALL1        0.0000 
      8 O          49.1510   -6.7030   72.2180 O.2       6 ALP1        0.0000 
      9 O          47.5730   -7.6300   72.0495 O.2       1 ALC1        0.0000 
     10 O          48.1460   -8.0570   73.5980 O.2       6 ALP1        0.0000 
     11 CA         47.0735   -8.5110   67.8145 C.3       5 GLC5        0.0000 
     12 CA         47.2500   -8.5590   70.0250 C.3      15 GLL5        0.0000 
     13 CA         46.8970   -8.4630   65.6040 C.3      10 GLP5        0.0000 
     14 N          50.5845   -8.9910   68.9635 N.am      2 SEC2        0.0000 
     15 N          49.2740   -9.4050   68.9530 N.am     12 SEL2        0.0000 
     16 N          51.8950   -8.5770   68.9740 N.am      7 SEP2        0.0000 
     17 N          50.3280   -7.9680   68.8425 N.am      2 SEC2        0.0000 
     18 N          48.7610   -7.3590   68.7110 N.am     12 SEL2        0.0000 
     19 N          49.7725   -7.0810   67.8255 N.am      2 SEC2        0.0000 
     20 N          50.7840   -6.8030   66.9400 N.am      7 SEP2        0.0000 
     21 N          49.7675   -6.3390   69.2610 N.am      2 SEC2        0.0000 
     22 N          50.7740   -5.3190   69.8110 N.am      7 SEP2        0.0000 
     23 CA         44.8605  -11.3165   70.5870 C.3       5 GLC5        0.0000 
     24 CA         45.8680  -10.3810   69.0320 C.3      15 GLL5        0.0000 
     25 CA         43.8530  -12.2520   72.1420 C.3      10 GLP5        0.0000 
     26 O          45.9060  -12.7330   68.1130 O.2       1 ALC1        0.0000 
     27 O          44.5210  -12.1680   68.1690 O.2      11 ALL1        0.0000 
     28 O          47.2910  -13.2980   68.0570 O.2       6 ALP1        0.0000 
     29 CA         43.7060  -13.2920   69.9875 C.3       5 GLC5        0.0000 
     30 CA         43.2690  -12.8630   67.9550 C.3      15 GLL5        0.0000 
     31 CA         44.1430  -13.7210   72.0200 C.3      10 GLP5        0.0000 
     32 N          45.6610  -15.1695   69.1000 N.am      2 SEC2        0.0000 
     33 N          44.2710  -14.8980   68.7360 N.am     12 SEL2        0.0000 
     34 N          47.0510  -15.4410   69.4640 N.am      7 SEP2        0.0000 
     35 CA         42.5580  -15.3475   66.3280 C.3       5 GLC5        0.0000 
     36 CA         43.1310  -13.2860   66.5160 C.3      15 GLL5        0.0000 
     37 CA         41.9850  -17.4090   66.1400 C.3      10 GLP5        0.0000 
     38 CA         44.4530  -10.3555   65.6190 C.3       5 GLC5        0.0000 
     39 CA         43.2800  -11.8230   65.4910 C.3      15 GLL5        0.0000 
     40 CA         45.6260   -8.8880   65.7470 C.3      10 GLP5        0.0000 
     41 CA         43.0995   -9.6420   65.7875 C.3       5 GLC5        0.0000 
     42 CA         41.5980  -11.2820   65.6840 C.3      15 GLL5        0.0000 
     43 CA         44.6010   -8.0020   65.8910 C.3      10 GLP5        0.0000 
     44 CA         42.8080  -10.1825   62.9550 C.3       5 GLC5        0.0000 
     45 CA         41.1750  -10.7930   64.3260 C.3      15 GLL5        0.0000 
     46 CA         44.4410   -9.5720   61.5840 C.3      10 GLP5        0.0000 
     47 CA         43.1665  -12.6710   62.1880 C.3       5 GLC5        0.0000 
     48 CA         41.1730  -12.8610   62.6980 C.3      15 GLL5        0.0000 
     49 CA         45.1600  -12.4810   61.6780 C.3      10 GLP5        0.0000 
     50 CA         39.6505  -14.6980   60.9985 C.3       5 GLC5        0.0000 
     51 CA         40.5050  -14.2420   62.7090 C.3      15 GLL5        0.0000 
     52 CA         38.7960  -15.1540   59.2880 C.3      10 GLP5        0.0000 
     53 CA         43.3040  -16.7185   62.9320 C.3       5 GLC5        0.0000 
     54 CA         41.5460  -15.3310   62.8580 C.3      15 GLL5        0.0000 
     55 CA         45.0620  -18.1060   63.0060 C.3      10 GLP5        0.0000 
     56 CA         41.7655  -16.3700   64.4990 C.3       5 GLC5        0.0000 
     57 CA         40.0855  -15.8345   61.4005 C.3       5 GLC5        0.0000 
     58 CA         38.6250  -16.3380   59.9430 C.3      10 GLP5        0.0000 
     59 CA         41.9755  -16.5750   68.0425 C.3       5 GLC5        0.0000 
     60 CA         41.9660  -15.7410   69.9450 C.3      15 GLL5        0.0000 
     61 CA         42.1230  -17.7770   70.5625 C.3       5 GLC5        0.0000 
     62 CA         42.2800  -19.8130   71.1800 C.3      10 GLP5        0.0000 
     63 CA         43.0545  -14.7310   70.9825 C.3       5 GLC5        0.0000 
     64 NZ         41.0060  -18.0770   71.3115 N.4       4 LYC4        0.0000 
     65 NZ         40.2560  -17.3460   70.4620 N.4      14 LYL4        0.0000 
     66 NZ         41.7560  -18.8080   72.1610 N.4       9 LYP4        0.0000 
     67 N          41.0060  -18.0770   71.3115 N.am      2 SEC2        0.0000 
     68 N          40.2560  -17.3460   70.4620 N.am     12 SEL2        0.0000 
     69 N          41.7560  -18.8080   72.1610 N.am      7 SEP2        0.0000 
     70 CA         45.7560   -9.2640   67.4808 C.3       5 GLC5        0.0000 
     71 CA         44.6745  -14.3068   66.6877 C.3       5 GLC5        0.0000 
     72 CA         46.1490  -15.5390   66.1400 C.3      10 GLP5        0.0000 
     73 CA         44.4618  -12.7858   64.4683 C.3       5 GLC5        0.0000 
     74 CA         45.7180  -13.0170   62.9330 C.3      10 GLP5        0.0000 
     75 CA         41.8487  -14.8003   60.8542 C.3       5 GLC5        0.0000 
     76 CA         42.6720  -14.8140   58.9250 C.3      10 GLP5        0.0000 
@<TRIPOS>BOND
@<TRIPOS>SUBSTRUCTURE
     1 ALC1        6 GROUP        1 X    ALC  0     ROOT ALC X 1
     2 SEC2       14 GROUP        1 X    SEC  0     **** SEC X 2
     3 ASC3        1 GROUP        1 X    ASC  0     **** ASC X 3
     4 LYC4       64 GROUP        1 X    LYC  0     **** LYC X 4
     5 GLC5       11 GROUP        1 X    GLC  0     **** GLC X 6
     6 ALP1        8 GROUP        1 Y    ALP  0     ROOT ALP Y 8
     7 SEP2       16 GROUP        1 Y    SEP  0     **** SEP Y 9
     8 ASP3        3 GROUP        1 Y    ASP  0     **** ASP Y 10
     9 LYP4       66 GROUP        1 Y    LYP  0     **** LYP Y 11
    10 GLP5       13 GROUP        1 Y    GLP  0     **** GLP Y 13
    11 ALL1        7 GROUP        1 Z    ALL  0     ROOT ALL Z 15
    12 SEL2       15 GROUP        1 Z    SEL  0     **** SEL Z 16
    13 ASL3        2 GROUP        1 Z    ASL  0     **** ASL Z 17
    14 LYL4       65 GROUP        1 Z    LYL  0     **** LYL Z 18
    15 GLL5       12 GROUP        1 Z    GLL  0     **** GLL Z 20
@<TRIPOS>SET

