#    Name: 1gwc_GTX_1_ligand
#    Modification time : Tue Mar 25 04:03:56 2014

@<TRIPOS>MOLECULE
1gwc_GTX_1_ligand
   54    53     1     0     0
SMALL
NO_CHARGES


@<TRIPOS>ATOM
      1 N1         47.0000   -7.2030   70.5010 N.4       1 GTX1225     0.0000 
      2 CA1        47.2500   -8.5590   70.0250 C.3       1 GTX1225     0.0000 
      3 C1         48.4810   -8.4660   69.1500 C.2       1 GTX1225     0.0000 
      4 O11        49.2740   -9.4050   68.9530 O.co2     1 GTX1225     0.0000 
      5 O12        48.7610   -7.3590   68.7110 O.co2     1 GTX1225     0.0000 
      6 CB1        45.9040   -8.8990   69.3970 C.3       1 GTX1225     0.0000 
      7 CG1        45.8680  -10.3810   69.0320 C.3       1 GTX1225     0.0000 
      8 CD1        44.6470  -10.7480   68.2040 C.2       1 GTX1225     0.0000 
      9 OE1        43.5570  -10.4430   68.9700 O.2       1 GTX1225     0.0000 
     10 N2         44.5210  -12.1680   68.1690 N.am      1 GTX1225     0.0000 
     11 CA2        43.2690  -12.8630   67.9550 C.3       1 GTX1225     0.0000 
     12 C2         43.2630  -14.1530   68.6920 C.2       1 GTX1225     0.0000 
     13 O2         44.2710  -14.8980   68.7360 O.2       1 GTX1225     0.0000 
     14 CB2        43.1310  -13.2860   66.5160 C.3       1 GTX1225     0.0000 
     15 SG2        43.2800  -11.8230   65.4910 S.3       1 GTX1225     0.0000 
     16 C1S        41.5980  -11.2820   65.6840 C.3       1 GTX1225     0.0000 
     17 C2S        41.1750  -10.7930   64.3260 C.3       1 GTX1225     0.0000 
     18 C3S        40.4120  -11.9380   63.6480 C.3       1 GTX1225     0.0000 
     19 C4S        41.1730  -12.8610   62.6980 C.3       1 GTX1225     0.0000 
     20 C5S        40.5050  -14.2420   62.7090 C.3       1 GTX1225     0.0000 
     21 C6S        41.5460  -15.3310   62.8580 C.3       1 GTX1225     0.0000 
     22 N3         42.1090  -14.4470   69.2370 N.am      1 GTX1225     0.0000 
     23 CA3        41.9660  -15.7410   69.9450 C.3       1 GTX1225     0.0000 
     24 C3         40.5700  -16.3370   69.8000 C.2       1 GTX1225     0.0000 
     25 O31        39.7370  -15.7920   69.0110 O.co2     1 GTX1225     0.0000 
     26 O32        40.2560  -17.3460   70.4620 O.co2     1 GTX1225     0.0000 
     27 H          47.4191   -9.1801   70.8715 H         1 GTX1225     0.0000 
     28 H          45.7631   -8.3050   68.5009 H         1 GTX1225     0.0000 
     29 H          45.1108   -8.6840   70.1043 H         1 GTX1225     0.0000 
     30 H          45.8718  -10.9758   69.9539 H         1 GTX1225     0.0000 
     31 H          46.7755  -10.6320   68.4689 H         1 GTX1225     0.0000 
     32 H          45.3756  -12.7477   68.3046 H         1 GTX1225     0.0000 
     33 H          42.4257  -12.2933   68.2301 H         1 GTX1225     0.0000 
     34 H          42.1704  -13.6489   66.2638 H         1 GTX1225     0.0000 
     35 H          43.9226  -13.8946   66.1680 H         1 GTX1225     0.0000 
     36 H          41.6740  -10.5248   66.4053 H         1 GTX1225     0.0000 
     37 H          41.1037  -12.1521   65.9969 H         1 GTX1225     0.0000 
     38 H          42.0383  -10.5466   63.7331 H         1 GTX1225     0.0000 
     39 H          40.5212   -9.9440   64.4226 H         1 GTX1225     0.0000 
     40 H          39.5411  -11.4978   63.0927 H         1 GTX1225     0.0000 
     41 H          39.9389  -12.5661   64.4493 H         1 GTX1225     0.0000 
     42 H          42.1960  -12.9569   63.0295 H         1 GTX1225     0.0000 
     43 H          41.1399  -12.4567   61.6975 H         1 GTX1225     0.0000 
     44 H          39.9614  -14.3785   61.7766 H         1 GTX1225     0.0000 
     45 H          39.8036  -14.2881   63.5393 H         1 GTX1225     0.0000 
     46 H          41.2798  -13.8529   69.2184 H         1 GTX1225     0.0000 
     47 H          42.1790  -15.6112   71.0182 H         1 GTX1225     0.0000 
     48 H          42.6968  -16.4683   69.5563 H         1 GTX1225     0.0000 
     49 H          47.3100   -6.5157   69.8441 H         1 GTX1225     0.0000 
     50 H          46.0264   -7.0387   70.6596 H         1 GTX1225     0.0000 
     51 H          47.4726   -7.0189   71.3628 H         1 GTX1225     0.0000 
     52 H          42.2094  -15.3155   62.1099 H         1 GTX1225     0.0000 
     53 H          42.0622  -15.2374   63.7094 H         1 GTX1225     0.0000 
     54 H          41.1326  -16.2415   62.8644 H         1 GTX1225     0.0000 
@<TRIPOS>BOND
     1    2    1 1    
     2   49    1 1    
     3   50    1 1    
     4   51    1 1    
     5    3    2 1    
     6    6    2 1    
     7   27    2 1    
     8    4    3 ar   
     9    5    3 ar   
    10    7    6 1    
    11   28    6 1    
    12   29    6 1    
    13    8    7 1    
    14   30    7 1    
    15   31    7 1    
    16    9    8 2    
    17   10    8 am   
    18   11   10 1    
    19   32   10 1    
    20   12   11 1    
    21   14   11 1    
    22   33   11 1    
    23   13   12 2    
    24   22   12 am   
    25   15   14 1    
    26   34   14 1    
    27   35   14 1    
    28   16   15 1    
    29   17   16 1    
    30   36   16 1    
    31   37   16 1    
    32   18   17 1    
    33   38   17 1    
    34   39   17 1    
    35   19   18 1    
    36   40   18 1    
    37   41   18 1    
    38   20   19 1    
    39   42   19 1    
    40   43   19 1    
    41   21   20 1    
    42   44   20 1    
    43   45   20 1    
    44   52   21 1    
    45   53   21 1    
    46   54   21 1    
    47   23   22 1    
    48   46   22 1    
    49   24   23 1    
    50   47   23 1    
    51   48   23 1    
    52   25   24 ar   
    53   26   24 ar   
@<TRIPOS>SUBSTRUCTURE
     1 GTX1225     1 GROUP   
@<TRIPOS>SET

