#    Name: 2xk8_5R1_1_INTS_M
#    Modification time : Tue Mar 25 06:08:41 2014

@<TRIPOS>MOLECULE
2xk8_5R1_1_INTS_M
   67     0    12     0     0
SMALL
NO_CHARGES


@<TRIPOS>ATOM
      1 CA         20.6555    5.3530  -15.7590 C.3       4 GLC5        0.0000 
      2 CA         20.9640    6.7870  -14.9110 C.3      12 GLL5        0.0000 
      3 CA         20.3470    3.9190  -16.6070 C.3       8 GLP5        0.0000 
      4 CA         20.4260    5.4790  -13.5810 C.3       4 GLC5        0.0000 
      5 CA         19.8880    4.1710  -12.2510 C.3       8 GLP5        0.0000 
      6 CA         22.3970    5.6920  -14.7975 C.3       4 GLC5        0.0000 
      7 CA         23.8300    4.5970  -14.6840 C.3       8 GLP5        0.0000 
      8 CA         20.8305    8.4920  -16.1120 C.3       4 GLC5        0.0000 
      9 CA         20.6970   10.1970  -17.3130 C.3       8 GLP5        0.0000 
     10 CA         19.4030    7.5615  -14.9985 C.3       4 GLC5        0.0000 
     11 CA         17.8420    8.3360  -15.0860 C.3       8 GLP5        0.0000 
     12 CA         27.9805    7.8605  -20.0955 C.3       4 GLC5        0.0000 
     13 CA         25.8850    8.4990  -20.2630 C.3      12 GLL5        0.0000 
     14 CA         30.0760    7.2220  -19.9280 C.3       8 GLP5        0.0000 
     15 CA         25.7115   12.3645  -23.7060 C.3       4 GLC5        0.0000 
     16 CA         27.1730   13.7910  -23.4670 C.3      12 GLL5        0.0000 
     17 CA         24.2500   10.9380  -23.9450 C.3       8 GLP5        0.0000 
     18 CA         25.9830   15.3900  -23.9515 C.3       4 GLC5        0.0000 
     19 CA         24.7930   16.9890  -24.4360 C.3       8 GLP5        0.0000 
     20 CA         28.2505    7.1915  -23.9805 C.3       4 GLC5        0.0000 
     21 CA         28.2880    9.1100  -24.7570 C.3      12 GLL5        0.0000 
     22 CA         28.2130    5.2730  -23.2040 C.3       8 GLP5        0.0000 
     23 CA         26.8370    7.5895  -25.4775 C.3       4 GLC5        0.0000 
     24 CA         25.3860    6.0690  -26.1980 C.3       8 GLP5        0.0000 
     25 CA         26.6585    5.5580  -19.9005 C.3       4 GLC5        0.0000 
     26 CA         25.6280    7.2710  -20.8810 C.3      12 GLL5        0.0000 
     27 CA         27.6890    3.8450  -18.9200 C.3       8 GLP5        0.0000 
     28 CA         23.9370    6.7010  -21.6575 C.3       4 GLC5        0.0000 
     29 CA         22.2460    6.1310  -22.4340 C.3       8 GLP5        0.0000 
     30 N          24.5610    5.4025  -21.2195 N.am      2 SEC2        0.0000 
     31 N          25.0350    6.2930  -20.1790 N.am     10 SEL2        0.0000 
     32 N          24.0870    4.5120  -22.2600 N.am      6 SEP2        0.0000 
     33 CA         26.1830    5.1595  -18.9085 C.3       4 GLC5        0.0000 
     34 CA         24.6770    6.4740  -18.8970 C.3      12 GLL5        0.0000 
     35 CA         23.4615    6.3025  -20.6655 C.3       4 GLC5        0.0000 
     36 O          23.9575    4.0590  -18.4875 O.2       1 ALC1        0.0000 
     37 O          24.0340    5.4000  -18.1700 O.2       9 ALL1        0.0000 
     38 O          23.8810    2.7180  -18.8050 O.2       5 ALP1        0.0000 
     39 NZ         23.1545    8.2430  -10.8045 N.4       3 LYC4        0.0000 
     40 NZ         22.5670    8.6660  -12.3790 N.4      11 LYL4        0.0000 
     41 NZ         23.7420    7.8200   -9.2300 N.4       7 LYP4        0.0000 
     42 N          23.1545    8.2430  -10.8045 N.am      2 SEC2        0.0000 
     43 N          22.5670    8.6660  -12.3790 N.am     10 SEL2        0.0000 
     44 N          23.7420    7.8200   -9.2300 N.am      6 SEP2        0.0000 
     45 NZ         24.2085    8.5510  -10.5910 N.4       3 LYC4        0.0000 
     46 NZ         24.6750    9.2820  -11.9520 N.4      11 LYL4        0.0000 
     47 CA         23.4767    6.2737  -15.2510 C.3       4 GLC5        0.0000 
     48 CA         22.9780    8.0880  -15.1450 C.3      12 GLL5        0.0000 
     49 CA         24.4565    6.3918  -15.6025 C.3       4 GLC5        0.0000 
     50 CA         25.5850    8.4060  -16.0830 C.3      12 GLL5        0.0000 
     51 CA         28.2458   10.2628  -20.0860 C.3       4 GLC5        0.0000 
     52 CA         26.4670    9.5610  -20.9490 C.3      12 GLL5        0.0000 
     53 CA         30.0330   10.3270  -19.5230 C.3       8 GLP5        0.0000 
     54 CA         25.3543   10.5683  -22.2970 C.3       4 GLC5        0.0000 
     55 CA         26.4500   10.8360  -20.3490 C.3      12 GLL5        0.0000 
     56 CA         28.6625   11.0873  -20.5835 C.3       4 GLC5        0.0000 
     57 CA         27.0100   11.9380  -21.0100 C.3      12 GLL5        0.0000 
     58 CA         25.7710   11.3927  -22.7945 C.3       4 GLC5        0.0000 
     59 CA         28.6677   10.1345  -21.0415 C.3       4 GLC5        0.0000 
     60 CA         27.5790   10.4960  -22.8920 C.3      12 GLL5        0.0000 
     61 CA         25.7762   10.4400  -23.2525 C.3       4 GLC5        0.0000 
     62 CA         27.0260    9.3880  -22.2280 C.3      12 GLL5        0.0000 
     63 CA         27.0210    8.1959  -15.8213 C.3       4 GLC5        0.0000 
     64 CA         24.5810    7.9670  -16.9590 C.3      12 GLL5        0.0000 
     65 CA         28.8540    7.9570  -16.0120 C.3       8 GLP5        0.0000 
     66 CA         24.2340    6.6000  -14.5945 C.3       4 GLC5        0.0000 
     67 CA         25.2930    8.6830  -14.7400 C.3      12 GLL5        0.0000 
@<TRIPOS>BOND
@<TRIPOS>SUBSTRUCTURE
     1 ALC1       36 GROUP        1 X    ALC  0     ROOT ALC X 1
     2 SEC2       30 GROUP        1 X    SEC  0     **** SEC X 2
     3 LYC4       39 GROUP        1 X    LYC  0     **** LYC X 4
     4 GLC5        1 GROUP        1 X    GLC  0     **** GLC X 6
     5 ALP1       38 GROUP        1 Y    ALP  0     ROOT ALP Y 8
     6 SEP2       32 GROUP        1 Y    SEP  0     **** SEP Y 9
     7 LYP4       41 GROUP        1 Y    LYP  0     **** LYP Y 11
     8 GLP5        3 GROUP        1 Y    GLP  0     **** GLP Y 13
     9 ALL1       37 GROUP        1 Z    ALL  0     ROOT ALL Z 15
    10 SEL2       31 GROUP        1 Z    SEL  0     **** SEL Z 16
    11 LYL4       40 GROUP        1 Z    LYL  0     **** LYL Z 18
    12 GLL5        2 GROUP        1 Z    GLL  0     **** GLL Z 20
@<TRIPOS>SET

