#    Name: 2xk8_5R1_1_ligand
#    Modification time : Tue Mar 25 06:08:41 2014

@<TRIPOS>MOLECULE
2xk8_5R1_1_ligand
   50    52     1     0     0
SMALL
NO_CHARGES


@<TRIPOS>ATOM
      1 C01        20.9640    6.7870  -14.9110 C.3       1 5R11280     0.0000 
      2 O02        21.6670    7.9680  -14.6830 O.3       1 5R11280     0.0000 
      3 C03        22.9780    8.0880  -15.1450 C.ar      1 5R11280     0.0000 
      4 C04        23.2690    7.8130  -16.4910 C.ar      1 5R11280     0.0000 
      5 C05        24.5810    7.9670  -16.9590 C.ar      1 5R11280     0.0000 
      6 C06        24.9100    7.7140  -18.2870 C.ar      1 5R11280     0.0000 
      7 N07        25.5210    8.6770  -18.9870 N.ar      1 5R11280     0.0000 
      8 C08        25.8850    8.4990  -20.2630 C.ar      1 5R11280     0.0000 
      9 C09        26.4670    9.5610  -20.9490 C.ar      1 5R11280     0.0000 
     10 C10        26.4500   10.8360  -20.3490 C.ar      1 5R11280     0.0000 
     11 C11        27.0100   11.9380  -21.0100 C.ar      1 5R11280     0.0000 
     12 O12        27.0380   13.2210  -20.4360 O.3       1 5R11280     0.0000 
     13 C13        26.5090   13.4590  -19.1580 C.3       1 5R11280     0.0000 
     14 C14        27.5740   11.7570  -22.2780 C.ar      1 5R11280     0.0000 
     15 O15        28.0940   12.8700  -22.9370 O.3       1 5R11280     0.0000 
     16 C16        27.1730   13.7910  -23.4670 C.3       1 5R11280     0.0000 
     17 C17        27.5790   10.4960  -22.8920 C.ar      1 5R11280     0.0000 
     18 O18        28.1300   10.3690  -24.1700 O.3       1 5R11280     0.0000 
     19 C19        28.2880    9.1100  -24.7570 C.3       1 5R11280     0.0000 
     20 C20        27.0260    9.3880  -22.2280 C.ar      1 5R11280     0.0000 
     21 C21        25.6280    7.2710  -20.8810 C.ar      1 5R11280     0.0000 
     22 N22        25.0350    6.2930  -20.1790 N.ar      1 5R11280     0.0000 
     23 C23        24.6770    6.4740  -18.8970 C.ar      1 5R11280     0.0000 
     24 N24        24.0340    5.4000  -18.1700 N.pl3     1 5R11280     0.0000 
     25 C25        25.5850    8.4060  -16.0830 C.ar      1 5R11280     0.0000 
     26 C26        25.2930    8.6830  -14.7400 C.ar      1 5R11280     0.0000 
     27 C27        23.9830    8.5230  -14.2700 C.ar      1 5R11280     0.0000 
     28 C28        23.6610    8.8280  -12.8040 C.2       1 5R11280     0.0000 
     29 O29        22.5670    8.6660  -12.3790 O.co2     1 5R11280     0.0000 
     30 O30        24.6750    9.2820  -11.9520 O.co2     1 5R11280     0.0000 
     31 H          22.5296    7.5033  -17.1228 H         1 5R11280     0.0000 
     32 H          26.0245   10.9550  -19.4230 H         1 5R11280     0.0000 
     33 H          27.0296    8.4696  -22.6675 H         1 5R11280     0.0000 
     34 H          25.9012    7.1439  -21.8668 H         1 5R11280     0.0000 
     35 H          23.7515    5.6097  -17.2339 H         1 5R11280     0.0000 
     36 H          23.9256    4.5374  -18.6641 H         1 5R11280     0.0000 
     37 H          26.5466    8.5260  -16.4305 H         1 5R11280     0.0000 
     38 H          26.0311    8.9995  -14.1085 H         1 5R11280     0.0000 
     39 H          20.8726    6.5918  -15.8875 H         1 5R11280     0.0000 
     40 H          21.4178    5.9986  -14.4958 H         1 5R11280     0.0000 
     41 H          20.0394    6.8261  -14.5321 H         1 5R11280     0.0000 
     42 H          26.9677   12.9113  -18.4583 H         1 5R11280     0.0000 
     43 H          26.6044   14.4175  -18.8892 H         1 5R11280     0.0000 
     44 H          25.5350   13.2372  -19.1120 H         1 5R11280     0.0000 
     45 H          27.6313   14.5570  -23.9177 H         1 5R11280     0.0000 
     46 H          26.5734   13.3676  -24.1461 H         1 5R11280     0.0000 
     47 H          26.5846   14.1781  -22.7571 H         1 5R11280     0.0000 
     48 H          28.6892    9.1740  -25.6707 H         1 5R11280     0.0000 
     49 H          28.8862    8.5199  -24.2149 H         1 5R11280     0.0000 
     50 H          27.4145    8.6328  -24.8532 H         1 5R11280     0.0000 
@<TRIPOS>BOND
     1    2    1 1    
     2   39    1 1    
     3   40    1 1    
     4   41    1 1    
     5    3    2 1    
     6    4    3 ar   
     7   27    3 ar   
     8    5    4 ar   
     9   31    4 1    
    10    6    5 1    
    11   25    5 ar   
    12    7    6 ar   
    13   23    6 ar   
    14    8    7 ar   
    15    9    8 1    
    16   21    8 ar   
    17   10    9 ar   
    18   20    9 ar   
    19   11   10 ar   
    20   32   10 1    
    21   12   11 1    
    22   14   11 ar   
    23   13   12 1    
    24   42   13 1    
    25   43   13 1    
    26   44   13 1    
    27   15   14 1    
    28   17   14 ar   
    29   16   15 1    
    30   45   16 1    
    31   46   16 1    
    32   47   16 1    
    33   18   17 1    
    34   20   17 ar   
    35   19   18 1    
    36   48   19 1    
    37   49   19 1    
    38   50   19 1    
    39   33   20 1    
    40   22   21 ar   
    41   34   21 1    
    42   23   22 ar   
    43   24   23 1    
    44   35   24 1    
    45   36   24 1    
    46   26   25 ar   
    47   37   25 1    
    48   27   26 ar   
    49   38   26 1    
    50   28   27 1    
    51   29   28 ar   
    52   30   28 ar   
@<TRIPOS>SUBSTRUCTURE
     1 5R11280     1 GROUP   
@<TRIPOS>SET

