#    Name: 2xp2_VGH_1_INTS_M
#    Modification time : Tue Mar 25 06:28:30 2014

@<TRIPOS>MOLECULE
2xp2_VGH_1_INTS_M
   72     0     9     0     0
SMALL
NO_CHARGES


@<TRIPOS>ATOM
      1 CA         32.6075   44.6985    5.4630 C.3       3 GLC5        0.0000 
      2 CA         32.9370   46.3310    6.6220 C.3       9 GLL5        0.0000 
      3 CA         32.2780   43.0660    4.3040 C.3       6 GLP5        0.0000 
      4 CA         36.1770   46.4825   12.9310 C.3       3 GLC5        0.0000 
      5 CA         34.7220   45.6010   12.2650 C.3       9 GLL5        0.0000 
      6 CA         37.6320   47.3640   13.5970 C.3       6 GLP5        0.0000 
      7 CA         33.0400   46.2230   12.6150 C.3       3 GLC5        0.0000 
      8 CA         31.3580   46.8450   12.9650 C.3       6 GLP5        0.0000 
      9 CA         34.2925   44.5805   13.6150 C.3       3 GLC5        0.0000 
     10 CA         33.8630   43.5600   14.9650 C.3       6 GLP5        0.0000 
     11 CA         31.9255   41.5485   10.9610 C.3       3 GLC5        0.0000 
     12 CA         33.0420   43.3000   11.4140 C.3       9 GLL5        0.0000 
     13 CA         30.8090   39.7970   10.5080 C.3       6 GLP5        0.0000 
     14 CA         33.4525   43.4300   13.1895 C.3       3 GLC5        0.0000 
     15 CA         30.9930   43.5075    6.6780 C.3       3 GLC5        0.0000 
     16 CA         32.0950   43.7500    8.3080 C.3       9 GLL5        0.0000 
     17 CA         29.8910   43.2650    5.0480 C.3       6 GLP5        0.0000 
     18 CA         32.5285   42.7180    6.2935 C.3       3 GLC5        0.0000 
     19 CA         32.7790   42.3700    8.2830 C.3       9 GLL5        0.0000 
     20 CA         33.5160   40.5095    7.6870 C.3       3 GLC5        0.0000 
     21 CA         34.2530   38.6490    7.0910 C.3       6 GLP5        0.0000 
     22 CA         31.7940   41.0835    9.3955 C.3       3 GLC5        0.0000 
     23 CA         28.0455   44.9460   12.0450 C.3       3 GLC5        0.0000 
     24 CA         28.7610   44.2670   10.0990 C.3       9 GLL5        0.0000 
     25 CA         27.3300   45.6250   13.9910 C.3       6 GLP5        0.0000 
     26 O          27.5220   42.7685   11.6030 O.2       1 ALC1        0.0000 
     27 O          28.7980   43.0760   10.8500 O.2       7 ALL1        0.0000 
     28 O          26.2460   42.4610   12.3560 O.2       4 ALP1        0.0000 
     29 N          26.5280   45.3885   11.1060 N.am      2 SEC2        0.0000 
     30 N          27.7320   45.1150   10.3500 N.am      8 SEL2        0.0000 
     31 N          25.3240   45.6620   11.8620 N.am      5 SEP2        0.0000 
     32 CA         27.2025   44.2045    8.9310 C.3       3 GLC5        0.0000 
     33 CA         27.6600   46.2780    9.6400 C.3       9 GLL5        0.0000 
     34 CA         26.7450   42.1310    8.2220 C.3       6 GLP5        0.0000 
     35 CA         25.7985   45.5720    8.9950 C.3       3 GLC5        0.0000 
     36 CA         23.9370   44.8660    8.3500 C.3       6 GLP5        0.0000 
     37 CA         27.3305   46.5710   11.3995 C.3       3 GLC5        0.0000 
     38 CA         27.0010   46.8640   13.1590 C.3       6 GLP5        0.0000 
     39 CA         27.5775   46.7950    6.6130 C.3       3 GLC5        0.0000 
     40 CA         28.4980   47.9680    7.8660 C.3       9 GLL5        0.0000 
     41 CA         26.6570   45.6220    5.3600 C.3       6 GLP5        0.0000 
     42 CA         27.0770   47.7645    6.0360 C.3       3 GLC5        0.0000 
     43 CA         27.3800   48.7930    7.7370 C.3       9 GLL5        0.0000 
     44 CA         26.7740   46.7360    4.3350 C.3       6 GLP5        0.0000 
     45 CA         26.2110   48.6460    5.1240 C.3       3 GLC5        0.0000 
     46 CA         25.6480   50.5560    5.9130 C.3       9 GLL5        0.0000 
     47 CA         34.0400   48.8233   10.0307 C.3       3 GLC5        0.0000 
     48 CA         34.2220   47.0020    8.9000 C.3       9 GLL5        0.0000 
     49 CA         33.6410   50.7220   10.4910 C.3       6 GLP5        0.0000 
     50 CA         32.8897   46.9775   11.1612 C.3       3 GLC5        0.0000 
     51 CA         34.6560   46.8470   10.2410 C.3       9 GLL5        0.0000 
     52 CA         31.3090   47.6800   11.7030 C.3       6 GLP5        0.0000 
     53 CA         36.1162   44.4710   11.9697 C.3       3 GLC5        0.0000 
     54 CA         34.2850   45.7030   10.9980 C.3       9 GLL5        0.0000 
     55 CA         37.7290   43.2900   12.3080 C.3       6 GLP5        0.0000 
     56 CA         32.3563   46.6737   10.2511 C.3       3 GLC5        0.0000 
     57 CA         32.9950   44.8250    9.0120 C.3       9 GLL5        0.0000 
     58 CA         32.0267   44.7210   11.8083 C.3       3 GLC5        0.0000 
     59 CA         33.4550   44.6800   10.4050 C.3       9 GLL5        0.0000 
     60 CA         30.8050   45.4520   12.7070 C.3       6 GLP5        0.0000 
     61 CA         29.8140   44.1968    6.9035 C.3       3 GLC5        0.0000 
     62 CA         29.7900   44.5100    9.1260 C.3       9 GLL5        0.0000 
     63 CA         28.0102   43.2597    8.9172 C.3       3 GLC5        0.0000 
     64 CA         30.0403   44.9202   11.1597 C.3       3 GLC5        0.0000 
     65 CA         27.5301   45.9315    7.2191 C.3       3 GLC5        0.0000 
     66 CA         29.6840   45.7470    8.3920 C.3       9 GLL5        0.0000 
     67 CA         29.8561   46.9605   10.3906 C.3       3 GLC5        0.0000 
     68 CA         28.6090   46.6610    8.6410 C.3       9 GLL5        0.0000 
     69 CA         28.3635   49.6993    9.0307 C.3       3 GLC5        0.0000 
     70 CA         28.7880   51.0180   10.2600 C.3       6 GLP5        0.0000 
     71 CA         27.8530   51.2675    8.6585 C.3       3 GLC5        0.0000 
     72 CA         26.8190   52.0170    7.6370 C.3       9 GLL5        0.0000 
@<TRIPOS>BOND
@<TRIPOS>SUBSTRUCTURE
     1 ALC1       26 GROUP        1 X    ALC  0     ROOT ALC X 1
     2 SEC2       29 GROUP        1 X    SEC  0     **** SEC X 2
     3 GLC5        1 GROUP        1 X    GLC  0     **** GLC X 6
     4 ALP1       28 GROUP        1 Y    ALP  0     ROOT ALP Y 8
     5 SEP2       31 GROUP        1 Y    SEP  0     **** SEP Y 9
     6 GLP5        3 GROUP        1 Y    GLP  0     **** GLP Y 13
     7 ALL1       27 GROUP        1 Z    ALL  0     ROOT ALL Z 15
     8 SEL2       30 GROUP        1 Z    SEL  0     **** SEL Z 16
     9 GLL5        2 GROUP        1 Z    GLL  0     **** GLL Z 20
@<TRIPOS>SET

