#    Name: 2xp2_VGH_1_ligand
#    Modification time : Tue Mar 25 06:28:30 2014

@<TRIPOS>MOLECULE
2xp2_VGH_1_ligand
   51    54     1     0     0
SMALL
NO_CHARGES


@<TRIPOS>ATOM
      1 CL         32.9370   46.3310    6.6220 Cl        1 VGH9000     0.0000 
      2 C13        33.4020   46.0180    8.2730 C.ar      1 VGH9000     0.0000 
      3 C3         34.2220   47.0020    8.9000 C.ar      1 VGH9000     0.0000 
      4 C2         34.6560   46.8470   10.2410 C.ar      1 VGH9000     0.0000 
      5 C12        34.2850   45.7030   10.9980 C.ar      1 VGH9000     0.0000 
      6 F          34.7220   45.6010   12.2650 F         1 VGH9000     0.0000 
      7 C17        32.9950   44.8250    9.0120 C.ar      1 VGH9000     0.0000 
      8 C18        33.4550   44.6800   10.4050 C.ar      1 VGH9000     0.0000 
      9 CL2        33.0420   43.3000   11.4140 Cl        1 VGH9000     0.0000 
     10 C21        32.0950   43.7500    8.3080 C.3       1 VGH9000     0.0000 
     11 C1         32.7790   42.3700    8.2830 C.3       1 VGH9000     0.0000 
     12 O27        30.7900   43.5410    8.9500 O.3       1 VGH9000     0.0000 
     13 C15        29.7900   44.5100    9.1260 C.ar      1 VGH9000     0.0000 
     14 C4         29.6840   45.7470    8.3920 C.ar      1 VGH9000     0.0000 
     15 C19        28.7610   44.2670   10.0990 C.ar      1 VGH9000     0.0000 
     16 N22        28.7980   43.0760   10.8500 N.pl3     1 VGH9000     0.0000 
     17 N23        27.7320   45.1150   10.3500 N.ar      1 VGH9000     0.0000 
     18 C5         27.6600   46.2780    9.6400 C.ar      1 VGH9000     0.0000 
     19 C14        28.6090   46.6610    8.6410 C.ar      1 VGH9000     0.0000 
     20 C16        28.4980   47.9680    7.8660 C.2       1 VGH9000     0.0000 
     21 C6         29.5440   48.6380    7.0900 C.2       1 VGH9000     0.0000 
     22 C7         27.3800   48.7930    7.7370 C.2       1 VGH9000     0.0000 
     23 N26        27.8290   49.8540    6.9230 N.pl3     1 VGH9000     0.0000 
     24 N24        29.0630   49.7200    6.5830 N.2       1 VGH9000     0.0000 
     25 C20        27.0170   51.0170    6.4770 C.3       1 VGH9000     0.0000 
     26 C8         26.8190   52.0170    7.6370 C.3       1 VGH9000     0.0000 
     27 C10        25.9750   53.2180    7.1460 C.3       1 VGH9000     0.0000 
     28 N25        24.6730   52.7900    6.5550 N.4       1 VGH9000     0.0000 
     29 C11        24.8360   51.7910    5.4600 C.3       1 VGH9000     0.0000 
     30 C9         25.6480   50.5560    5.9130 C.3       1 VGH9000     0.0000 
     31 H          34.5005   47.8343    8.3693 H         1 VGH9000     0.0000 
     32 H          35.2440   47.5675   10.6704 H         1 VGH9000     0.0000 
     33 H          31.9523   44.0504    7.2733 H         1 VGH9000     0.0000 
     34 H          30.3856   45.9704    7.6872 H         1 VGH9000     0.0000 
     35 H          29.5649   42.4619   10.6636 H         1 VGH9000     0.0000 
     36 H          28.0542   42.9459   11.5056 H         1 VGH9000     0.0000 
     37 H          26.8692   46.9510    9.8185 H         1 VGH9000     0.0000 
     38 H          30.4228   48.2491    7.0295 H         1 VGH9000     0.0000 
     39 H          26.5438   48.6801    8.0944 H         1 VGH9000     0.0000 
     40 H          27.5411   51.5400    5.6779 H         1 VGH9000     0.0000 
     41 H          27.7820   52.3731    7.9694 H         1 VGH9000     0.0000 
     42 H          26.3001   51.5266    8.4462 H         1 VGH9000     0.0000 
     43 H          26.5662   53.7687    6.4042 H         1 VGH9000     0.0000 
     44 H          25.8038   53.8851    7.9996 H         1 VGH9000     0.0000 
     45 H          25.3533   52.2444    4.6057 H         1 VGH9000     0.0000 
     46 H          23.8551   51.4450    5.1120 H         1 VGH9000     0.0000 
     47 H          25.1047   50.0356    6.6856 H         1 VGH9000     0.0000 
     48 H          25.8144   49.9085    5.0669 H         1 VGH9000     0.0000 
     49 H          33.6484   42.3953    7.7896 H         1 VGH9000     0.0000 
     50 H          32.9748   42.0358    9.2049 H         1 VGH9000     0.0000 
     51 H          32.2085   41.6807    7.8364 H         1 VGH9000     0.0000 
@<TRIPOS>BOND
     1    2    1 1    
     2    3    2 ar   
     3    7    2 ar   
     4    4    3 ar   
     5   31    3 1    
     6    5    4 ar   
     7   32    4 1    
     8    6    5 1    
     9    8    5 ar   
    10    8    7 ar   
    11   10    7 1    
    12    9    8 1    
    13   11   10 1    
    14   12   10 1    
    15   33   10 1    
    16   49   11 1    
    17   50   11 1    
    18   51   11 1    
    19   13   12 1    
    20   14   13 ar   
    21   15   13 ar   
    22   19   14 ar   
    23   34   14 1    
    24   16   15 1    
    25   17   15 ar   
    26   35   16 1    
    27   36   16 1    
    28   18   17 ar   
    29   19   18 ar   
    30   37   18 1    
    31   20   19 1    
    32   21   20 1    
    33   22   20 2    
    34   24   21 2    
    35   38   21 1    
    36   23   22 1    
    37   39   22 1    
    38   24   23 1    
    39   25   23 1    
    40   26   25 1    
    41   30   25 1    
    42   40   25 1    
    43   27   26 1    
    44   41   26 1    
    45   42   26 1    
    46   28   27 1    
    47   43   27 1    
    48   44   27 1    
    49   29   28 1    
    50   30   29 1    
    51   45   29 1    
    52   46   29 1    
    53   47   30 1    
    54   48   30 1    
@<TRIPOS>SUBSTRUCTURE
     1 VGH9000     1 GROUP   
@<TRIPOS>SET

