#    Name: 3dqw_AGS_3_INTS_M
#    Modification time : Mon Mar 24 23:58:38 2014

@<TRIPOS>MOLECULE
3dqw_AGS_3_INTS_M
   55     0    15     0     0
SMALL
NO_CHARGES


@<TRIPOS>ATOM
      1 Zn        -17.4730   -4.7205   14.4405 Zn        4 ZIC7        0.0000 
      2 Zn        -18.3240   -4.6570   15.4190 Zn       14 ZIL7        0.0000 
      3 Zn        -16.6220   -4.7840   13.4620 Zn        9 ZIP7        0.0000 
      4 N         -19.6730   -3.0035   14.3225 N.am      2 SEC2        0.0000 
      5 N         -20.5040   -4.5060   14.2060 N.am     12 SEL2        0.0000 
      6 N         -18.8420   -1.5010   14.4390 N.am      7 SEP2        0.0000 
      7 NZ        -20.5660   -1.0745   16.3715 N.4       3 LYC4        0.0000 
      8 NZ        -21.1360   -2.2400   15.2690 N.4      13 LYL4        0.0000 
      9 NZ        -19.9960    0.0910   17.4740 N.4       8 LYP4        0.0000 
     10 N         -19.9890   -1.8705   14.8540 N.am      2 SEC2        0.0000 
     11 N         -21.1360   -2.2400   15.2690 N.am     12 SEL2        0.0000 
     12 CA        -23.6335   -4.2405   16.9425 C.3       5 GLC5        0.0000 
     13 CA        -23.1660   -5.6310   15.4140 C.3      15 GLL5        0.0000 
     14 CA        -24.1010   -2.8500   18.4710 C.3      10 GLP5        0.0000 
     15 CA        -27.1670   -4.7025   11.2680 C.3       5 GLC5        0.0000 
     16 CA        -25.9520   -5.1400   12.8510 C.3      15 GLL5        0.0000 
     17 CA        -28.3820   -4.2650    9.6850 C.3      10 GLP5        0.0000 
     18 CA        -27.8995   -4.8480   15.4695 C.3       5 GLC5        0.0000 
     19 CA        -26.3570   -4.4940   14.2290 C.3      15 GLL5        0.0000 
     20 CA        -29.4420   -5.2020   16.7100 C.3      10 GLP5        0.0000 
     21 CA        -26.3650   -3.2485   16.0590 C.3       5 GLC5        0.0000 
     22 CA        -26.3730   -2.0030   17.8890 C.3      10 GLP5        0.0000 
     23 CA        -26.1145    1.7115   14.6140 C.3       5 GLC5        0.0000 
     24 CA        -27.4220    0.3380   13.6600 C.3      15 GLL5        0.0000 
     25 CA        -24.8070    3.0850   15.5680 C.3      10 GLP5        0.0000 
     26 CA        -28.1325    0.7555   11.6560 C.3       5 GLC5        0.0000 
     27 CA        -28.8430    1.1730    9.6520 C.3      10 GLP5        0.0000 
     28 O         -27.6890    2.8225   13.6055 O.2       1 ALC1        0.0000 
     29 O         -27.0030    1.6280   13.7010 O.2      11 ALL1        0.0000 
     30 O         -28.3750    4.0170   13.5100 O.2       6 ALP1        0.0000 
     31 N         -29.5250    0.9475   12.4175 N.am      2 SEC2        0.0000 
     32 N         -28.7290    0.1240   13.3090 N.am     12 SEL2        0.0000 
     33 N         -30.3210    1.7710   11.5260 N.am      7 SEP2        0.0000 
     34 CA        -29.7735   -2.0495   14.7565 C.3       5 GLC5        0.0000 
     35 CA        -29.1540   -1.1690   13.2510 C.3      15 GLL5        0.0000 
     36 CA        -30.3930   -2.9300   16.2620 C.3      10 GLP5        0.0000 
     37 CA        -28.8790    0.2270   14.9350 C.3       5 GLC5        0.0000 
     38 CA        -28.6040    1.6230   16.6190 C.3      10 GLP5        0.0000 
     39 CA        -29.7230    0.0795   11.6890 C.3       5 GLC5        0.0000 
     40 CA        -30.2920    1.3280   10.1270 C.3      10 GLP5        0.0000 
     41 CA        -28.7925   -2.5050   15.0535 C.3       5 GLC5        0.0000 
     42 CA        -27.1920   -2.0800   13.8450 C.3      15 GLL5        0.0000 
     43 CA        -25.7980   -1.8320   12.1245 C.3       5 GLC5        0.0000 
     44 CA        -24.4040   -1.5840   10.4040 C.3      10 GLP5        0.0000 
     45 CA        -24.9060   -6.7395   16.3712 C.3       5 GLC5        0.0000 
     46 CA        -24.5180   -5.9290   14.6710 C.3      15 GLL5        0.0000 
     47 CA        -25.9700   -7.6990   17.7000 C.3      10 GLP5        0.0000 
     48 CA        -24.5010   -5.4558   10.9860 C.3       5 GLC5        0.0000 
     49 CA        -24.4560   -5.4130   13.1990 C.3      15 GLL5        0.0000 
     50 CA        -23.7980   -5.6350    8.9470 C.3      10 GLP5        0.0000 
     51 CA        -26.6358   -1.7165   15.8930 C.3       5 GLC5        0.0000 
     52 CA        -27.8087    0.7010   15.2117 C.3       5 GLC5        0.0000 
     53 CA        -26.6050   -0.7800   13.9490 C.3      15 GLL5        0.0000 
     54 CA        -25.8863    0.2475   12.5738 C.3       5 GLC5        0.0000 
     55 CA        -24.7590    0.7160   11.3430 C.3      10 GLP5        0.0000 
@<TRIPOS>BOND
@<TRIPOS>SUBSTRUCTURE
     1 ALC1       28 GROUP        1 X    ALC  0     ROOT ALC X 1
     2 SEC2        4 GROUP        1 X    SEC  0     **** SEC X 2
     3 LYC4        7 GROUP        1 X    LYC  0     **** LYC X 4
     4 ZIC7        1 GROUP        1 X    ZIC  0     **** ZIC X 5
     5 GLC5       12 GROUP        1 X    GLC  0     **** GLC X 6
     6 ALP1       30 GROUP        1 Y    ALP  0     ROOT ALP Y 8
     7 SEP2        6 GROUP        1 Y    SEP  0     **** SEP Y 9
     8 LYP4        9 GROUP        1 Y    LYP  0     **** LYP Y 11
     9 ZIP7        3 GROUP        1 Y    ZIP  0     **** ZIP Y 12
    10 GLP5       14 GROUP        1 Y    GLP  0     **** GLP Y 13
    11 ALL1       29 GROUP        1 Z    ALL  0     ROOT ALL Z 15
    12 SEL2        5 GROUP        1 Z    SEL  0     **** SEL Z 16
    13 LYL4        8 GROUP        1 Z    LYL  0     **** LYL Z 18
    14 ZIL7        2 GROUP        1 Z    ZIL  0     **** ZIL Z 19
    15 GLL5       13 GROUP        1 Z    GLL  0     **** GLL Z 20
@<TRIPOS>SET

