#    Name: 3dqw_AGS_3_ligand
#    Modification time : Mon Mar 24 23:58:38 2014

@<TRIPOS>MOLECULE
3dqw_AGS_3_ligand
   43    45     1     0     0
SMALL
NO_CHARGES


@<TRIPOS>ATOM
      1 PG        -16.2950   -2.8880   17.2130 P.3       1 AGS534      0.0000 
      2 S1G       -15.9220   -0.9630   17.7130 S.3       1 AGS534      0.0000 
      3 O2G       -15.7520   -3.5370   18.5630 O.co2     1 AGS534      0.0000 
      4 O3G       -15.5230   -3.4740   16.1020 O.co2     1 AGS534      0.0000 
      5 PB        -18.8650   -4.3320   16.8460 P.3       1 AGS534      0.0000 
      6 O1B       -18.3240   -4.6570   15.4190 O.co2     1 AGS534      0.0000 
      7 O2B       -18.4120   -5.2120   17.9410 O.co2     1 AGS534      0.0000 
      8 O3B       -17.8470   -3.0710   17.0820 O.3       1 AGS534      0.0000 
      9 PA        -21.3040   -3.7070   15.3010 P.3       1 AGS534      0.0000 
     10 O1A       -20.5040   -4.5060   14.2060 O.co2     1 AGS534      0.0000 
     11 O2A       -21.1360   -2.2400   15.2690 O.co2     1 AGS534      0.0000 
     12 O3A       -20.3770   -4.0160   16.5920 O.3       1 AGS534      0.0000 
     13 O5'       -22.8210   -4.2600   15.2160 O.3       1 AGS534      0.0000 
     14 C5'       -23.1660   -5.6310   15.4140 C.3       1 AGS534      0.0000 
     15 C4'       -24.5180   -5.9290   14.6710 C.3       1 AGS534      0.0000 
     16 O4'       -25.5320   -5.0800   15.2230 O.3       1 AGS534      0.0000 
     17 C3'       -24.4560   -5.4130   13.1990 C.3       1 AGS534      0.0000 
     18 O3'       -23.8060   -6.3680   12.4440 O.3       1 AGS534      0.0000 
     19 C2'       -25.9520   -5.1400   12.8510 C.3       1 AGS534      0.0000 
     20 O2'       -26.6580   -6.3220   12.6950 O.3       1 AGS534      0.0000 
     21 C1'       -26.3570   -4.4940   14.2290 C.3       1 AGS534      0.0000 
     22 N9        -26.2050   -3.0050   14.1730 N.pl3     1 AGS534      0.0000 
     23 C8        -25.0550   -2.2070   14.4650 C.2       1 AGS534      0.0000 
     24 N7        -25.2610   -0.8920   14.3330 N.2       1 AGS534      0.0000 
     25 C5        -26.6050   -0.7800   13.9490 C.ar      1 AGS534      0.0000 
     26 C6        -27.4220    0.3380   13.6600 C.ar      1 AGS534      0.0000 
     27 N6        -27.0030    1.6280   13.7010 N.pl3     1 AGS534      0.0000 
     28 N1        -28.7290    0.1240   13.3090 N.ar      1 AGS534      0.0000 
     29 C2        -29.1540   -1.1690   13.2510 C.ar      1 AGS534      0.0000 
     30 N3        -28.4910   -2.3210   13.4950 N.ar      1 AGS534      0.0000 
     31 C4        -27.1920   -2.0800   13.8450 C.ar      1 AGS534      0.0000 
     32 H         -23.3239   -5.8748   16.4634 H         1 AGS534      0.0000 
     33 H         -22.4238   -6.3124   15.0011 H         1 AGS534      0.0000 
     34 H         -24.7506   -6.9196   14.6874 H         1 AGS534      0.0000 
     35 H         -23.9590   -4.4609   13.2538 H         1 AGS534      0.0000 
     36 H         -26.0043   -4.4202   12.1390 H         1 AGS534      0.0000 
     37 H         -27.3977   -4.7481   14.3822 H         1 AGS534      0.0000 
     38 H         -24.2049   -2.6343   14.7365 H         1 AGS534      0.0000 
     39 H         -26.0566    1.7743   13.9889 H         1 AGS534      0.0000 
     40 H         -27.6777    2.3183   13.4396 H         1 AGS534      0.0000 
     41 H         -30.2192   -1.2925   12.9546 H         1 AGS534      0.0000 
     42 H         -23.4859   -5.8814   11.6311 H         1 AGS534      0.0000 
     43 H         -25.9628   -7.0408   12.6974 H         1 AGS534      0.0000 
@<TRIPOS>BOND
     1    2    1 1    
     2    3    1 ar   
     3    4    1 ar   
     4    8    1 1    
     5    6    5 ar   
     6    7    5 ar   
     7    8    5 1    
     8   12    5 1    
     9   10    9 ar   
    10   11    9 ar   
    11   12    9 1    
    12   13    9 1    
    13   14   13 1    
    14   15   14 1    
    15   32   14 1    
    16   33   14 1    
    17   16   15 1    
    18   17   15 1    
    19   34   15 1    
    20   21   16 1    
    21   18   17 1    
    22   19   17 1    
    23   35   17 1    
    24   42   18 1    
    25   20   19 1    
    26   21   19 1    
    27   36   19 1    
    28   43   20 1    
    29   22   21 1    
    30   37   21 1    
    31   23   22 1    
    32   31   22 1    
    33   24   23 2    
    34   38   23 1    
    35   25   24 1    
    36   26   25 ar   
    37   31   25 ar   
    38   27   26 1    
    39   28   26 ar   
    40   39   27 1    
    41   40   27 1    
    42   29   28 ar   
    43   30   29 ar   
    44   41   29 1    
    45   31   30 ar   
@<TRIPOS>SUBSTRUCTURE
     1 AGS534      1 GROUP   
@<TRIPOS>SET

