#    Name: 1sb1_165_1_INTS_M
#    Modification time : Tue Mar 25 02:10:12 2014

@<TRIPOS>MOLECULE
1sb1_165_1_INTS_M
   67     0     9     0     0
SMALL
NO_CHARGES


@<TRIPOS>ATOM
      1 CA         16.5325  -19.2025   11.8915 C.3       3 GLC5        0.0000 
      2 CA         15.1210  -20.9160   12.1410 C.3       9 GLL5        0.0000 
      3 CA         17.9440  -17.4890   11.6420 C.3       6 GLP5        0.0000 
      4 CA         14.2115  -18.7385    9.0370 C.3       3 GLC5        0.0000 
      5 CA         13.7790  -20.2810   10.0350 C.3       9 GLL5        0.0000 
      6 CA         14.6440  -17.1960    8.0390 C.3       6 GLP5        0.0000 
      7 N          15.2075  -16.8880   11.8335 N.am      2 SEC2        0.0000 
      8 N          13.7590  -16.6480   12.5800 N.am      8 SEL2        0.0000 
      9 N          16.6560  -17.1280   11.0870 N.am      5 SEP2        0.0000 
     10 CA         10.2275  -12.8855   11.1200 C.3       3 GLC5        0.0000 
     11 CA          9.1870  -14.7650   11.1570 C.3       9 GLL5        0.0000 
     12 CA         11.2680  -11.0060   11.0830 C.3       6 GLP5        0.0000 
     13 CA         10.3390  -13.4595    8.9175 C.3       3 GLC5        0.0000 
     14 CA          9.0690  -14.3320    9.6570 C.3       9 GLL5        0.0000 
     15 CA         11.6090  -12.5870    8.1780 C.3       6 GLP5        0.0000 
     16 CA          7.1155  -11.8795   10.7310 C.3       3 GLC5        0.0000 
     17 CA          7.8460  -13.3470    9.3730 C.3       9 GLL5        0.0000 
     18 CA          6.3850  -10.4120   12.0890 C.3       6 GLP5        0.0000 
     19 CA          9.3805  -12.3780    8.9370 C.3       3 GLC5        0.0000 
     20 CA         10.9150  -11.4090    8.5010 C.3       6 GLP5        0.0000 
     21 CA          7.8410  -14.7815    8.2230 C.3       3 GLC5        0.0000 
     22 CA          6.4480  -14.0050    9.7640 C.3       9 GLL5        0.0000 
     23 CA          9.2340  -15.5580    6.6820 C.3       6 GLP5        0.0000 
     24 N          11.2345  -10.1655   17.0615 N.am      2 SEC2        0.0000 
     25 N          12.0720  -11.4380   17.1950 N.am      8 SEL2        0.0000 
     26 N          10.3970   -8.8930   16.9280 N.am      5 SEP2        0.0000 
     27 CA          9.7345  -14.1575   18.2535 C.3       3 GLC5        0.0000 
     28 CA          9.5900  -12.6210   16.8250 C.3       9 GLL5        0.0000 
     29 CA          9.8790  -15.6940   19.6820 C.3       6 GLP5        0.0000 
     30 CA         17.7855   -8.8950   13.4120 C.3       3 GLC5        0.0000 
     31 CA         16.2950  -10.0690   13.2480 C.3       9 GLL5        0.0000 
     32 CA         19.2760   -7.7210   13.5760 C.3       6 GLP5        0.0000 
     33 CA         16.1600   -8.2360   13.6720 C.3       3 GLC5        0.0000 
     34 CA         16.0250   -6.4030   14.0960 C.3       6 GLP5        0.0000 
     35 O          19.1465  -11.2695   10.5645 O.2       1 ALC1        0.0000 
     36 O          17.8310  -10.5530   10.9810 O.2       7 ALL1        0.0000 
     37 O          20.4620  -11.9860   10.1480 O.2       4 ALP1        0.0000 
     38 CA         15.6495  -12.7295   11.7160 C.3       3 GLC5        0.0000 
     39 CA         16.3400  -12.6680   13.5960 C.3       9 GLL5        0.0000 
     40 CA         14.9590  -12.7910    9.8360 C.3       6 GLP5        0.0000 
     41 CA         16.3860  -13.1785   17.2820 C.3       3 GLC5        0.0000 
     42 CA         15.3730  -14.0020   15.6670 C.3       9 GLL5        0.0000 
     43 CA         17.3990  -12.3550   18.8970 C.3       6 GLP5        0.0000 
     44 CA         14.0712  -17.9375   10.4627 C.3       3 GLC5        0.0000 
     45 CA         13.1590  -19.2610   12.3180 C.3       9 GLL5        0.0000 
     46 CA         15.1010  -16.5450    9.3440 C.3       6 GLP5        0.0000 
     47 CA          8.8457  -14.6988    8.0985 C.3       3 GLC5        0.0000 
     48 CA          6.4100  -12.3727   11.2915 C.3       3 GLC5        0.0000 
     49 CA          5.7480  -12.7825    8.7817 C.3       3 GLC5        0.0000 
     50 CA          4.3490  -11.8890    7.9950 C.3       6 GLP5        0.0000 
     51 CA          9.2314  -11.1206   16.8232 C.3       3 GLC5        0.0000 
     52 CA         10.5710  -12.3900   15.6190 C.3       9 GLL5        0.0000 
     53 CA          9.1850   -9.2850   17.4350 C.3       6 GLP5        0.0000 
     54 CA          7.1795  -14.3857   16.5708 C.3       3 GLC5        0.0000 
     55 CA          8.4750  -13.4070   16.2010 C.3       9 GLL5        0.0000 
     56 CA          5.4600  -14.7760   17.1510 C.3       6 GLP5        0.0000 
     57 CA          9.5175  -15.2837   17.2998 C.3       3 GLC5        0.0000 
     58 CA         10.1360  -16.5720   18.6090 C.3       6 GLP5        0.0000 
     59 CA         16.0688  -12.1750   17.2995 C.3       3 GLC5        0.0000 
     60 CA         14.4890  -12.6600   16.0300 C.3       9 GLL5        0.0000 
     61 CA         17.8732  -11.7795   14.8982 C.3       3 GLC5        0.0000 
     62 CA         15.8590  -11.4800   14.1330 C.3       9 GLL5        0.0000 
     63 CA         19.6470  -11.4850   15.9320 C.3       6 GLP5        0.0000 
     64 CA         14.3370  -10.5422   12.5567 C.3       3 GLC5        0.0000 
     65 CA         12.5970  -10.3100   11.4230 C.3       6 GLP5        0.0000 
     66 CA         18.0358  -13.9563   14.3105 C.3       3 GLC5        0.0000 
     67 CA         19.8530  -14.5510   14.7280 C.3       6 GLP5        0.0000 
@<TRIPOS>BOND
@<TRIPOS>SUBSTRUCTURE
     1 ALC1       35 GROUP        1 X    ALC  0     ROOT ALC X 1
     2 SEC2        7 GROUP        1 X    SEC  0     **** SEC X 2
     3 GLC5        1 GROUP        1 X    GLC  0     **** GLC X 6
     4 ALP1       37 GROUP        1 Y    ALP  0     ROOT ALP Y 8
     5 SEP2        9 GROUP        1 Y    SEP  0     **** SEP Y 9
     6 GLP5        3 GROUP        1 Y    GLP  0     **** GLP Y 13
     7 ALL1       36 GROUP        1 Z    ALL  0     ROOT ALL Z 15
     8 SEL2        8 GROUP        1 Z    SEL  0     **** SEL Z 16
     9 GLL5        2 GROUP        1 Z    GLL  0     **** GLL Z 20
@<TRIPOS>SET

