#    Name: 1sb1_165_1_ligand
#    Modification time : Tue Mar 25 02:10:12 2014

@<TRIPOS>MOLECULE
1sb1_165_1_ligand
   74    78     1     0     0
SMALL
NO_CHARGES


@<TRIPOS>ATOM
      1 C7         12.2270  -18.2760   13.0680 C.3       1 1651001     0.0000 
      2 S8         13.0050  -16.7040   13.7760 S.o2      1 1651001     0.0000 
      3 C5         13.1590  -19.2610   12.3180 C.ar      1 1651001     0.0000 
      4 C4         14.2450  -20.0120   12.9740 C.ar      1 1651001     0.0000 
      5 C3         15.1210  -20.9160   12.1410 C.ar      1 1651001     0.0000 
      6 C2         14.8920  -21.0430   10.6850 C.ar      1 1651001     0.0000 
      7 C1         13.7790  -20.2810   10.0350 C.ar      1 1651001     0.0000 
      8 C6         12.9240  -19.3990   10.8450 C.ar      1 1651001     0.0000 
      9 O36        13.7590  -16.6480   12.5800 O.2       1 1651001     0.0000 
     10 O37        13.5390  -17.4550   14.8680 O.2       1 1651001     0.0000 
     11 N9         11.3260  -16.4730   13.9990 N.pl3     1 1651001     0.0000 
     12 C10        10.3460  -15.5480   13.1120 C.3       1 1651001     0.0000 
     13 C18        10.7970  -14.1300   13.6970 C.2       1 1651001     0.0000 
     14 O38        11.5270  -13.3320   13.0290 O.2       1 1651001     0.0000 
     15 C11        10.6100  -15.6370   11.5500 C.3       1 1651001     0.0000 
     16 C12         9.1870  -14.7650   11.1570 C.3       1 1651001     0.0000 
     17 C13         7.7460  -15.5260   11.5660 C.3       1 1651001     0.0000 
     18 C17         9.0690  -14.3320    9.6570 C.3       1 1651001     0.0000 
     19 C14         6.4220  -14.6620   11.2240 C.3       1 1651001     0.0000 
     20 C16         7.8460  -13.3470    9.3730 C.3       1 1651001     0.0000 
     21 C15         6.4480  -14.0050    9.7640 C.3       1 1651001     0.0000 
     22 N19        10.2600  -13.7020   15.0490 N.am      1 1651001     0.0000 
     23 C23        10.5710  -12.3900   15.6190 C.3       1 1651001     0.0000 
     24 C24        11.9710  -12.1810   16.1990 C.2       1 1651001     0.0000 
     25 O39        12.0720  -11.4380   17.1950 O.2       1 1651001     0.0000 
     26 C22         9.5900  -12.6210   16.8250 C.3       1 1651001     0.0000 
     27 C21         8.4750  -13.4070   16.2010 C.3       1 1651001     0.0000 
     28 C20         9.3230  -14.5840   15.7800 C.3       1 1651001     0.0000 
     29 N25        13.0980  -12.8640   15.5190 N.am      1 1651001     0.0000 
     30 C26        14.4890  -12.6600   16.0300 C.ar      1 1651001     0.0000 
     31 C31        14.9880  -11.3300   15.3740 C.ar      1 1651001     0.0000 
     32 C30        15.8590  -11.4800   14.1330 C.ar      1 1651001     0.0000 
     33 S34        16.2950  -10.0690   13.2480 S.3       1 1651001     0.0000 
     34 C33        17.1920  -11.1080   12.0590 C.2       1 1651001     0.0000 
     35 N35        17.8310  -10.5530   10.9810 N.pl3     1 1651001     0.0000 
     36 N32        17.1310  -12.3740   12.3690 N.2       1 1651001     0.0000 
     37 C29        16.3400  -12.6680   13.5960 C.ar      1 1651001     0.0000 
     38 C28        16.0970  -14.0550   14.1900 C.ar      1 1651001     0.0000 
     39 C27        15.3730  -14.0020   15.6670 C.ar      1 1651001     0.0000 
     40 H          11.4467  -17.8496   12.4419 H         1 1651001     0.0000 
     41 H          11.7750  -18.6971   13.9630 H         1 1651001     0.0000 
     42 H          14.4099  -19.9352   13.9453 H         1 1651001     0.0000 
     43 H          15.8533  -21.4240   12.5859 H         1 1651001     0.0000 
     44 H          15.4725  -21.6320   10.1316 H         1 1651001     0.0000 
     45 H          13.6269  -20.3786    9.0554 H         1 1651001     0.0000 
     46 H          12.1794  -18.8843   10.4209 H         1 1651001     0.0000 
     47 H          10.9428  -16.9795   14.7698 H         1 1651001     0.0000 
     48 H           9.3820  -15.7237   13.3887 H         1 1651001     0.0000 
     49 H          10.4583  -16.5653   11.2160 H         1 1651001     0.0000 
     50 H          11.3699  -15.0472   11.2836 H         1 1651001     0.0000 
     51 H           9.2082  -13.8539   11.7713 H         1 1651001     0.0000 
     52 H           7.7832  -15.7143   12.6266 H         1 1651001     0.0000 
     53 H           7.7167  -16.4532   11.0173 H         1 1651001     0.0000 
     54 H           8.9378  -15.2184    9.0380 H         1 1651001     0.0000 
     55 H           9.9855  -13.8255    9.3576 H         1 1651001     0.0000 
     56 H           6.3381  -13.8712   11.9591 H         1 1651001     0.0000 
     57 H           5.5647  -15.3199   11.2934 H         1 1651001     0.0000 
     58 H           7.8333  -13.1089    8.3206 H         1 1651001     0.0000 
     59 H           7.9822  -12.4515    9.9594 H         1 1651001     0.0000 
     60 H           5.6797  -13.2360    9.7224 H         1 1651001     0.0000 
     61 H           6.2148  -14.7800    9.0371 H         1 1651001     0.0000 
     62 H          10.1954  -11.6203   15.0787 H         1 1651001     0.0000 
     63 H           9.2521  -11.6801   17.1624 H         1 1651001     0.0000 
     64 H          10.0939  -13.1883   17.5582 H         1 1651001     0.0000 
     65 H           8.1056  -12.9155   15.3650 H         1 1651001     0.0000 
     66 H           7.7882  -13.7008   16.9214 H         1 1651001     0.0000 
     67 H           9.7723  -15.0021   16.6016 H         1 1651001     0.0000 
     68 H           8.7956  -15.1808   15.1340 H         1 1651001     0.0000 
     69 H          12.9380  -13.4482   14.7371 H         1 1651001     0.0000 
     70 H          14.7516  -10.4896   15.7418 H         1 1651001     0.0000 
     71 H          18.6658  -11.0135   10.6793 H         1 1651001     0.0000 
     72 H          17.4065   -9.7361   10.5905 H         1 1651001     0.0000 
     73 H          16.3076  -14.8557   13.8153 H         1 1651001     0.0000 
     74 H          15.4583  -14.6953   16.2679 H         1 1651001     0.0000 
@<TRIPOS>BOND
     1    2    1 1    
     2    3    1 1    
     3   40    1 1    
     4   41    1 1    
     5    9    2 2    
     6   10    2 2    
     7   11    2 1    
     8    4    3 ar   
     9    8    3 ar   
    10    5    4 ar   
    11   42    4 1    
    12    6    5 ar   
    13   43    5 1    
    14    7    6 ar   
    15   44    6 1    
    16    8    7 ar   
    17   45    7 1    
    18   46    8 1    
    19   12   11 1    
    20   47   11 1    
    21   13   12 1    
    22   15   12 1    
    23   48   12 1    
    24   14   13 2    
    25   22   13 am   
    26   16   15 1    
    27   49   15 1    
    28   50   15 1    
    29   17   16 1    
    30   18   16 1    
    31   51   16 1    
    32   19   17 1    
    33   52   17 1    
    34   53   17 1    
    35   20   18 1    
    36   54   18 1    
    37   55   18 1    
    38   21   19 1    
    39   56   19 1    
    40   57   19 1    
    41   21   20 1    
    42   58   20 1    
    43   59   20 1    
    44   60   21 1    
    45   61   21 1    
    46   23   22 1    
    47   28   22 1    
    48   24   23 1    
    49   26   23 1    
    50   62   23 1    
    51   25   24 2    
    52   29   24 am   
    53   27   26 1    
    54   63   26 1    
    55   64   26 1    
    56   28   27 1    
    57   65   27 1    
    58   66   27 1    
    59   67   28 1    
    60   68   28 1    
    61   30   29 1    
    62   69   29 1    
    63   31   30 ar   
    64   39   30 ar   
    65   32   31 ar   
    66   70   31 1    
    67   33   32 1    
    68   37   32 ar   
    69   34   33 1    
    70   35   34 1    
    71   36   34 2    
    72   71   35 1    
    73   72   35 1    
    74   37   36 1    
    75   38   37 ar   
    76   39   38 ar   
    77   73   38 1    
    78   74   39 1    
@<TRIPOS>SUBSTRUCTURE
     1 1651001     1 GROUP   
@<TRIPOS>SET

