#    Name: 1q6p_213_2_INTS_M
#    Modification time : Mon Mar 24 23:10:09 2014

@<TRIPOS>MOLECULE
1q6p_213_2_INTS_M
  138     0     9     0     0
SMALL
NO_CHARGES


@<TRIPOS>ATOM
      1 CA         24.0995   32.6890   48.7005 C.3       3 GLC5        0.0000 
      2 CA         23.4570   32.0220   50.6240 C.3       9 GLL5        0.0000 
      3 CA         24.7420   33.3560   46.7770 C.3       6 GLP5        0.0000 
      4 CA         21.1895   34.2640   49.5075 C.3       3 GLC5        0.0000 
      5 CA         22.3780   32.4350   49.8040 C.3       9 GLL5        0.0000 
      6 CA         20.0010   36.0930   49.2110 C.3       6 GLP5        0.0000 
      7 CA         25.5065   31.0825   56.8795 C.3       3 GLC5        0.0000 
      8 CA         24.2080   31.0750   55.3890 C.3       9 GLL5        0.0000 
      9 CA         26.8050   31.0900   58.3700 C.3       6 GLP5        0.0000 
     10 CA         24.6360   31.6755   57.8555 C.3       3 GLC5        0.0000 
     11 CA         23.5620   31.9650   56.2740 C.3       9 GLL5        0.0000 
     12 CA         25.7100   31.3860   59.4370 C.3       6 GLP5        0.0000 
     13 CA         24.7970   33.5135   57.0970 C.3       3 GLC5        0.0000 
     14 CA         26.0320   35.0620   57.9200 C.3       6 GLP5        0.0000 
     15 CA         23.5655   28.3640   52.1485 C.3       3 GLC5        0.0000 
     16 CA         24.8760   30.1400   51.9540 C.3       9 GLL5        0.0000 
     17 CA         22.2550   26.5880   52.3430 C.3       6 GLP5        0.0000 
     18 CA         27.1245   32.3355   51.5770 C.3       3 GLC5        0.0000 
     19 CA         25.7870   31.4000   52.2600 C.3       9 GLL5        0.0000 
     20 CA         28.4620   33.2710   50.8940 C.3       6 GLP5        0.0000 
     21 CA         23.6315   27.9110   53.4115 C.3       3 GLC5        0.0000 
     22 CA         24.3090   29.4900   53.2890 C.3       9 GLL5        0.0000 
     23 CA         22.9540   26.3320   53.5340 C.3       6 GLP5        0.0000 
     24 CA         25.5000   28.7055   54.6350 C.3       3 GLC5        0.0000 
     25 CA         26.6910   27.9210   55.9810 C.3       6 GLP5        0.0000 
     26 CA         28.4120   27.4430   50.8900 C.3       3 GLC5        0.0000 
     27 CA         26.7380   27.8430   49.6590 C.3       9 GLL5        0.0000 
     28 CA         30.0860   27.0430   52.1210 C.3       6 GLP5        0.0000 
     29 N          27.5980   26.2045   51.5375 N.am      1 SEC2        0.0000 
     30 N          26.6500   27.2700   50.8830 N.am      7 SEL2        0.0000 
     31 N          28.5460   25.1390   52.1920 N.am      4 SEP2        0.0000 
     32 CA         22.3225   33.9635   55.3350 C.3       3 GLC5        0.0000 
     33 CA         21.6320   33.2470   57.0620 C.3       9 GLL5        0.0000 
     34 CA         23.0130   34.6800   53.6080 C.3       6 GLP5        0.0000 
     35 CA         19.6030   32.9835   55.0940 C.3       3 GLC5        0.0000 
     36 CA         20.6630   33.9640   56.6140 C.3       9 GLL5        0.0000 
     37 CA         18.5430   32.0030   53.5740 C.3       6 GLP5        0.0000 
     38 CA         19.0620   35.1965   56.1910 C.3       3 GLC5        0.0000 
     39 CA         17.4610   36.4290   55.7680 C.3       6 GLP5        0.0000 
     40 CA         21.1965   34.4835   54.8965 C.3       3 GLC5        0.0000 
     41 CA         21.7300   35.0030   53.1790 C.3       6 GLP5        0.0000 
     42 CA         23.1805   34.8730   55.9525 C.3       3 GLC5        0.0000 
     43 CA         22.6410   34.1650   57.5170 C.3       9 GLL5        0.0000 
     44 CA         23.7200   35.5810   54.3880 C.3       6 GLP5        0.0000 
     45 CA         23.1135   34.4565   59.2530 C.3       3 GLC5        0.0000 
     46 CA         23.5860   34.7480   60.9890 C.3       6 GLP5        0.0000 
     47 CA         24.3365   34.6135   57.7185 C.3       3 GLC5        0.0000 
     48 NZ         18.7095   32.3215   58.1070 N.4       2 LYC4        0.0000 
     49 NZ         19.9640   31.6130   58.2900 N.4       8 LYL4        0.0000 
     50 NZ         16.9950   33.9910   58.7230 N.4       5 LYP4        0.0000 
     51 N          18.9605   30.6625   58.8440 N.am      1 SEC2        0.0000 
     52 N          19.9640   31.6130   58.2900 N.am      7 SEL2        0.0000 
     53 N          17.9570   29.7120   59.3980 N.am      4 SEP2        0.0000 
     54 N          20.2100   30.2130   58.3050 N.am      1 SEC2        0.0000 
     55 N          20.4560   28.8130   58.3200 N.am      4 SEP2        0.0000 
     56 N          18.7095   32.3215   58.1070 N.am      1 SEC2        0.0000 
     57 N          17.4550   33.0300   57.9240 N.am      4 SEP2        0.0000 
     58 NZ         19.1850   34.1135   59.5300 N.4       2 LYC4        0.0000 
     59 NZ         20.5750   33.7080   59.4150 N.4       8 LYL4        0.0000 
     60 N          20.9960   34.3630   60.7255 N.am      1 SEC2        0.0000 
     61 N          20.5750   33.7080   59.4150 N.am      7 SEL2        0.0000 
     62 N          21.4170   35.0180   62.0360 N.am      4 SEP2        0.0000 
     63 N          19.1850   34.1135   59.5300 N.am      1 SEC2        0.0000 
     64 N          17.7950   34.5190   59.6450 N.am      4 SEP2        0.0000 
     65 N          23.0420   31.2030   60.4540 N.am      1 SEC2        0.0000 
     66 N          22.3150   31.9290   59.2580 N.am      7 SEL2        0.0000 
     67 N          23.7690   30.4770   61.6500 N.am      4 SEP2        0.0000 
     68 N          23.0660   32.6160   60.1510 N.am      1 SEC2        0.0000 
     69 N          23.8170   33.3030   61.0440 N.am      4 SEP2        0.0000 
     70 CA         32.5460   30.1905   59.0135 C.3       3 GLC5        0.0000 
     71 CA         32.8390   31.7930   57.4630 C.3       9 GLL5        0.0000 
     72 CA         32.2530   28.5880   60.5640 C.3       6 GLP5        0.0000 
     73 NZ         33.7040   35.8740   55.0455 N.4       2 LYC4        0.0000 
     74 NZ         32.9640   35.1050   55.6480 N.4       8 LYL4        0.0000 
     75 NZ         34.8040   37.9100   54.6690 N.4       5 LYP4        0.0000 
     76 N          33.7040   35.8740   55.0455 N.am      1 SEC2        0.0000 
     77 N          32.9640   35.1050   55.6480 N.am      7 SEL2        0.0000 
     78 N          34.4440   36.6430   54.4430 N.am      4 SEP2        0.0000 
     79 N          33.6030   34.7445   59.4250 N.am      1 SEC2        0.0000 
     80 N          33.8650   34.6070   57.8800 N.am      7 SEL2        0.0000 
     81 N          33.3410   34.8820   60.9700 N.am      4 SEP2        0.0000 
     82 NZ         31.3550   35.5450   59.2420 N.4       2 LYC4        0.0000 
     83 NZ         31.5090   35.3410   57.6660 N.4       8 LYL4        0.0000 
     84 NZ         32.1960   35.2400   61.5540 N.4       5 LYP4        0.0000 
     85 N          31.3550   35.5450   59.2420 N.am      1 SEC2        0.0000 
     86 N          31.5090   35.3410   57.6660 N.am      7 SEL2        0.0000 
     87 N          31.2010   35.7490   60.8180 N.am      4 SEP2        0.0000 
     88 N          29.9635   34.9770   57.7855 N.am      1 SEC2        0.0000 
     89 N          28.4180   34.6130   57.9050 N.am      4 SEP2        0.0000 
     90 CA         22.6833   32.4543   47.8165 C.3       3 GLC5        0.0000 
     91 CA         23.4570   32.9480   46.0500 C.3       6 GLP5        0.0000 
     92 CA         19.8330   29.9720   49.0510 C.3       3 GLC5        0.0000 
     93 CA         21.4410   31.4860   49.3620 C.3       9 GLL5        0.0000 
     94 CA         18.1630   29.1390   48.5550 C.3       6 GLP5        0.0000 
     95 CA         23.6848   34.0943   50.3150 C.3       3 GLC5        0.0000 
     96 CA         24.4520   35.9600   50.4160 C.3       6 GLP5        0.0000 
     97 CA         20.1632   31.4900   50.4382 C.3       3 GLC5        0.0000 
     98 CA         18.3860   31.3600   51.2010 C.3       6 GLP5        0.0000 
     99 CA         25.2920   29.3567   55.4198 C.3       3 GLC5        0.0000 
    100 CA         23.5780   30.5100   54.3280 C.3       9 GLL5        0.0000 
    101 CA         23.3360   29.9468   56.2383 C.3       3 GLC5        0.0000 
    102 CA         22.7790   29.1010   57.6180 C.3       6 GLP5        0.0000 
    103 CA         22.2680   30.2175   56.0948 C.3       3 GLC5        0.0000 
    104 CA         21.4800   31.7670   55.0190 C.3       9 GLL5        0.0000 
    105 CA         20.2598   31.9153   54.4536 C.3       3 GLC5        0.0000 
    106 CA         22.0340   30.9010   54.1240 C.3       9 GLL5        0.0000 
    107 CA         28.9220   31.3133   51.8230 C.3       3 GLC5        0.0000 
    108 CA         28.0260   30.2860   52.9670 C.3       9 GLL5        0.0000 
    109 CA         29.2500   32.3650   50.2640 C.3       6 GLP5        0.0000 
    110 CA         29.3400   28.6523   52.7515 C.3       3 GLC5        0.0000 
    111 CA         27.1262   29.3513   54.5263 C.3       3 GLC5        0.0000 
    112 CA         28.1157   32.6156   52.6201 C.3       3 GLC5        0.0000 
    113 CA         28.3720   32.1670   55.0090 C.3       9 GLL5        0.0000 
    114 CA         27.9755   29.3145   55.1478 C.3       3 GLC5        0.0000 
    115 CA         29.1620   30.2370   53.7970 C.3       9 GLL5        0.0000 
    116 CA         27.6931   31.3894   56.5430 C.3       3 GLC5        0.0000 
    117 CA         29.3580   31.1790   54.8320 C.3       9 GLL5        0.0000 
    118 CA         27.9715   30.3197   48.1668 C.3       3 GLC5        0.0000 
    119 CA         26.5130   29.6010   47.4510 C.3       9 GLL5        0.0000 
    120 CA         29.0880   31.6630   48.9480 C.3       6 GLP5        0.0000 
    121 CA         27.2160   29.5202   45.6028 C.3       3 GLC5        0.0000 
    122 CA         27.5770   30.0640   43.8200 C.3       6 GLP5        0.0000 
    123 CA         27.3978   25.5877   49.3927 C.3       3 GLC5        0.0000 
    124 CA         27.3030   27.4800   48.4400 C.3       9 GLL5        0.0000 
    125 CA         27.7750   23.5140   49.7360 C.3       6 GLP5        0.0000 
    126 CA         27.5373   30.6007   49.1085 C.3       3 GLC5        0.0000 
    127 CA         26.0360   29.1040   49.8270 C.3       9 GLL5        0.0000 
    128 CA         25.4835   31.5715   47.4290 C.3       3 GLC5        0.0000 
    129 CA         25.9370   29.9730   48.7110 C.3       9 GLL5        0.0000 
    130 CA         22.5173   30.8980   57.1206 C.3       3 GLC5        0.0000 
    131 CA         22.1960   32.3210   56.0950 C.3       9 GLL5        0.0000 
    132 CA         31.0063   32.6300   58.4068 C.3       3 GLC5        0.0000 
    133 CA         31.0520   32.5670   55.9990 C.3       9 GLL5        0.0000 
    134 CA         30.4090   32.5540   60.4040 C.3       6 GLP5        0.0000 
    135 CA         31.5115   31.8413   58.8825 C.3       3 GLC5        0.0000 
    136 CA         31.3010   28.9200   56.9977 C.3       3 GLC5        0.0000 
    137 CA         32.3890   30.4640   57.2590 C.3       9 GLL5        0.0000 
    138 CA         30.9420   27.2440   57.3130 C.3       6 GLP5        0.0000 
@<TRIPOS>BOND
@<TRIPOS>SUBSTRUCTURE
     1 SEC2       29 GROUP        1 X    SEC  0     ROOT SEC X 2
     2 LYC4       48 GROUP        1 X    LYC  0     **** LYC X 4
     3 GLC5        1 GROUP        1 X    GLC  0     **** GLC X 6
     4 SEP2       31 GROUP        1 Y    SEP  0     ROOT SEP Y 9
     5 LYP4       50 GROUP        1 Y    LYP  0     **** LYP Y 11
     6 GLP5        3 GROUP        1 Y    GLP  0     **** GLP Y 13
     7 SEL2       30 GROUP        1 Z    SEL  0     ROOT SEL Z 16
     8 LYL4       49 GROUP        1 Z    LYL  0     **** LYL Z 18
     9 GLL5        2 GROUP        1 Z    GLL  0     **** GLL Z 20
@<TRIPOS>SET

