#    Name: 1q6p_213_2_ligand
#    Modification time : Mon Mar 24 23:10:09 2014

@<TRIPOS>MOLECULE
1q6p_213_2_ligand
   72    77     1     0     0
SMALL
NO_CHARGES


@<TRIPOS>ATOM
      1 C1         21.4410   31.4860   49.3620 C.ar      1 2131301     0.0000 
      2 C2         21.5650   30.1240   49.7320 C.ar      1 2131301     0.0000 
      3 C3         22.6440   29.7000   50.5560 C.ar      1 2131301     0.0000 
      4 C4         23.6170   30.6510   51.0180 C.ar      1 2131301     0.0000 
      5 C5         23.4570   32.0220   50.6240 C.ar      1 2131301     0.0000 
      6 C6         22.3780   32.4350   49.8040 C.ar      1 2131301     0.0000 
      7 C10        24.2080   31.0750   55.3890 C.ar      1 2131301     0.0000 
      8 C11        23.5780   30.5100   54.3280 C.ar      1 2131301     0.0000 
      9 C12        22.0340   30.9010   54.1240 C.ar      1 2131301     0.0000 
     10 C13        21.4800   31.7670   55.0190 C.ar      1 2131301     0.0000 
     11 C14        22.1960   32.3210   56.0950 C.ar      1 2131301     0.0000 
     12 C15        23.5620   31.9650   56.2740 C.ar      1 2131301     0.0000 
     13 C20        28.0260   30.2860   52.9670 C.ar      1 2131301     0.0000 
     14 C21        27.0970   31.2770   53.1760 C.ar      1 2131301     0.0000 
     15 C22        27.2370   32.2300   54.1910 C.ar      1 2131301     0.0000 
     16 C23        28.3720   32.1670   55.0090 C.ar      1 2131301     0.0000 
     17 C24        29.3580   31.1790   54.8320 C.ar      1 2131301     0.0000 
     18 C25        29.1620   30.2370   53.7970 C.ar      1 2131301     0.0000 
     19 C30        24.8760   30.1400   51.9540 C.3       1 2131301     0.0000 
     20 N31        25.6380   29.0650   51.1930 N.pl3     1 2131301     0.0000 
     21 C32        25.7870   31.4000   52.2600 C.3       1 2131301     0.0000 
     22 C35        24.3090   29.4900   53.2890 C.3       1 2131301     0.0000 
     23 C40        27.1970   28.3520   47.3200 C.ar      1 2131301     0.0000 
     24 C41        27.3030   27.4800   48.4400 C.ar      1 2131301     0.0000 
     25 C42        26.7380   27.8430   49.6590 C.ar      1 2131301     0.0000 
     26 C43        26.0360   29.1040   49.8270 C.ar      1 2131301     0.0000 
     27 C44        25.9370   29.9730   48.7110 C.ar      1 2131301     0.0000 
     28 C45        26.5130   29.6010   47.4510 C.ar      1 2131301     0.0000 
     29 N46        26.6500   27.2700   50.8830 N.2       1 2131301     0.0000 
     30 N47        26.0080   27.9370   51.8510 N.2       1 2131301     0.0000 
     31 C52        21.6320   33.2470   57.0620 C.3       1 2131301     0.0000 
     32 F53        20.6630   33.9640   56.6140 F         1 2131301     0.0000 
     33 F54        22.6410   34.1650   57.5170 F         1 2131301     0.0000 
     34 P55        21.0450   32.5480   58.6150 P.3       1 2131301     0.0000 
     35 O56        19.9640   31.6130   58.2900 O.co2     1 2131301     0.0000 
     36 O57        20.5750   33.7080   59.4150 O.co2     1 2131301     0.0000 
     37 O58        22.3150   31.9290   59.2580 O.co2     1 2131301     0.0000 
     38 C61        30.5900   31.2440   55.7870 C.ar      1 2131301     0.0000 
     39 C62        31.0520   32.5670   55.9990 C.ar      1 2131301     0.0000 
     40 C63        32.1550   32.8450   56.8200 C.ar      1 2131301     0.0000 
     41 C64        32.8390   31.7930   57.4630 C.ar      1 2131301     0.0000 
     42 C65        32.3890   30.4640   57.2590 C.ar      1 2131301     0.0000 
     43 C66        31.2720   30.2120   56.4250 C.ar      1 2131301     0.0000 
     44 P71        32.6830   34.5410   57.0460 P.3       1 2131301     0.0000 
     45 O72        32.9640   35.1050   55.6480 O.co2     1 2131301     0.0000 
     46 O73        33.8650   34.6070   57.8800 O.co2     1 2131301     0.0000 
     47 O74        31.5090   35.3410   57.6660 O.co2     1 2131301     0.0000 
     48 H          20.6584   31.7766   48.7660 H         1 2131301     0.0000 
     49 H          20.8784   29.4423   49.4071 H         1 2131301     0.0000 
     50 H          22.7327   28.7230   50.8223 H         1 2131301     0.0000 
     51 H          24.1444   32.7130   50.9480 H         1 2131301     0.0000 
     52 H          22.2869   33.4142   49.5397 H         1 2131301     0.0000 
     53 H          25.2167   30.8558   55.5788 H         1 2131301     0.0000 
     54 H          21.6021   30.4728   53.3497 H         1 2131301     0.0000 
     55 H          20.4707   32.0451   54.9154 H         1 2131301     0.0000 
     56 H          24.0838   32.3660   57.0639 H         1 2131301     0.0000 
     57 H          27.9088   29.5924   52.2291 H         1 2131301     0.0000 
     58 H          26.5354   32.9476   54.3310 H         1 2131301     0.0000 
     59 H          28.4914   32.8652   55.7654 H         1 2131301     0.0000 
     60 H          29.8672   29.4992   53.6485 H         1 2131301     0.0000 
     61 H          26.1089   31.8394   51.2780 H         1 2131301     0.0000 
     62 H          25.1363   32.1933   52.7164 H         1 2131301     0.0000 
     63 H          23.5810   28.7161   53.0249 H         1 2131301     0.0000 
     64 H          25.1330   29.0107   53.8276 H         1 2131301     0.0000 
     65 H          27.6055   28.0902   46.4278 H         1 2131301     0.0000 
     66 H          27.7966   26.5909   48.3347 H         1 2131301     0.0000 
     67 H          25.4563   30.8668   48.7969 H         1 2131301     0.0000 
     68 H          26.4342   30.2244   46.6553 H         1 2131301     0.0000 
     69 H          30.5567   33.3470   55.5314 H         1 2131301     0.0000 
     70 H          33.6348   31.9788   58.0583 H         1 2131301     0.0000 
     71 H          32.8708   29.6883   57.7139 H         1 2131301     0.0000 
     72 H          30.9636   29.2324   56.2936 H         1 2131301     0.0000 
@<TRIPOS>BOND
     1    2    1 ar   
     2    6    1 ar   
     3   48    1 1    
     4    3    2 ar   
     5   49    2 1    
     6    4    3 ar   
     7   50    3 1    
     8    5    4 ar   
     9   19    4 1    
    10    6    5 ar   
    11   51    5 1    
    12   52    6 1    
    13    8    7 ar   
    14   12    7 ar   
    15   53    7 1    
    16    9    8 ar   
    17   22    8 1    
    18   10    9 ar   
    19   54    9 1    
    20   11   10 ar   
    21   55   10 1    
    22   12   11 ar   
    23   31   11 1    
    24   56   12 1    
    25   14   13 ar   
    26   18   13 ar   
    27   57   13 1    
    28   15   14 ar   
    29   21   14 1    
    30   16   15 ar   
    31   58   15 1    
    32   17   16 ar   
    33   59   16 1    
    34   18   17 ar   
    35   38   17 1    
    36   60   18 1    
    37   20   19 1    
    38   21   19 1    
    39   22   19 1    
    40   26   20 1    
    41   30   20 1    
    42   61   21 1    
    43   62   21 1    
    44   63   22 1    
    45   64   22 1    
    46   24   23 ar   
    47   28   23 ar   
    48   65   23 1    
    49   25   24 ar   
    50   66   24 1    
    51   26   25 ar   
    52   29   25 1    
    53   27   26 ar   
    54   28   27 ar   
    55   67   27 1    
    56   68   28 1    
    57   30   29 2    
    58   32   31 1    
    59   33   31 1    
    60   34   31 1    
    61   35   34 ar   
    62   36   34 ar   
    63   37   34 ar   
    64   39   38 ar   
    65   43   38 ar   
    66   40   39 ar   
    67   69   39 1    
    68   41   40 ar   
    69   44   40 1    
    70   42   41 ar   
    71   70   41 1    
    72   43   42 ar   
    73   71   42 1    
    74   72   43 1    
    75   45   44 ar   
    76   46   44 ar   
    77   47   44 ar   
@<TRIPOS>SUBSTRUCTURE
     1 2131301     1 GROUP   
@<TRIPOS>SET

