#    Name: 2BXO_1_CAVITY_N1_6.mol2
#    Modification time : Tue Mar 11 05:20:23 2014

@<TRIPOS>MOLECULE
2BXO_1_CAVITY_N1_6.mol2
   79     0     4     0     0
SMALL
NO_CHARGES


@<TRIPOS>ATOM
      1 O          36.5069   11.1106   12.0887 O.2       1 ALA2        0.0000 
      2 O          37.3598   10.0896   14.3203 O.2       1 ALA2        0.0000 
      3 O          34.6904   13.6950   13.9652 O.2       1 ALA2        0.0000 
      4 CA         36.5246    9.3710   13.3025 C.3       3 GLY6        0.0000 
      5 O          35.6348   10.5728   13.1841 O.2       1 ALA2        0.0000 
      6 O          34.7450   11.7745   13.0658 O.2       1 ALA2        0.0000 
      7 O          33.8552   12.9763   12.9474 O.2       1 ALA2        0.0000 
      8 CA         32.9654   14.1781   12.8291 C.3       3 GLY6        0.0000 
      9 O          36.4332   11.4722   16.3152 O.2       1 ALA2        0.0000 
     10 O          35.5434   12.6740   16.1968 O.2       1 ALA2        0.0000 
     11 O          34.6536   13.8758   16.0785 O.2       1 ALA2        0.0000 
     12 NZ         33.7638   15.0776   15.9601 N.2       2 LYS4        0.0000 
     13 CA         32.8740   16.2793   15.8418 C.3       3 GLY6        0.0000 
     14 O          36.4877    9.5518   15.4158 O.2       1 ALA2        0.0000 
     15 O          35.5979   10.7536   15.2974 O.2       1 ALA2        0.0000 
     16 O          34.7081   11.9554   15.1791 O.2       1 ALA2        0.0000 
     17 O          33.8183   13.1571   15.0607 O.2       1 ALA2        0.0000 
     18 CA         32.9285   14.3589   14.9423 C.3       3 GLY6        0.0000 
     19 CA         32.0387   15.5607   14.8240 C.3       3 GLY6        0.0000 
     20 O          35.6525    8.8331   14.3980 O.2       1 ALA2        0.0000 
     21 O          34.7627   10.0349   14.2796 O.2       1 ALA2        0.0000 
     22 DU         33.8729   11.2367   14.1613 H         4 CUB7        0.0000 
     23 DU         32.9831   12.4385   14.0429 H         4 CUB7        0.0000 
     24 CA         32.0933   13.6402   13.9246 C.3       3 GLY6        0.0000 
     25 CA         31.2035   14.8420   13.8062 C.3       3 GLY6        0.0000 
     26 O          35.7070    6.9127   13.4986 O.2       1 ALA2        0.0000 
     27 N          32.1478   11.7198   13.0251 N.2       1 ALA2        0.0000 
     28 DU         31.2580   12.9216   12.9068 H         4 CUB7        0.0000 
     29 N          30.3682   14.1233   12.7884 N.2       1 ALA2        0.0000 
     30 N          29.4784   15.3251   12.6701 N.2       1 ALA2        0.0000 
     31 N          31.3126   11.0011   12.0074 N.2       1 ALA2        0.0000 
     32 DU         30.4228   12.2029   11.8890 H         4 CUB7        0.0000 
     33 NZ         33.7814   13.3379   17.1740 N.2       2 LYS4        0.0000 
     34 NZ         32.8916   14.5397   17.0556 N.2       2 LYS4        0.0000 
     35 O          34.7258   10.2157   16.3929 O.2       1 ALA2        0.0000 
     36 O          33.8360   11.4175   16.2746 O.2       1 ALA2        0.0000 
     37 DU         32.9462   12.6193   16.1562 H         4 CUB7        0.0000 
     38 DU         32.0564   13.8211   16.0378 H         4 CUB7        0.0000 
     39 DU         31.1666   15.0228   15.9195 H         4 CUB7        0.0000 
     40 O          34.7803    8.2953   15.4935 O.2       1 ALA2        0.0000 
     41 O          33.8905    9.4971   15.3751 O.2       1 ALA2        0.0000 
     42 DU         33.0007   10.6988   15.2568 H         4 CUB7        0.0000 
     43 DU         30.3313   14.3042   14.9017 H         4 CUB7        0.0000 
     44 N          29.4415   15.5059   14.7833 N.2       1 ALA2        0.0000 
     45 NZ         28.5517   16.7077   14.6650 N.2       2 LYS4        0.0000 
     46 O          33.9451    7.5766   14.4757 O.2       1 ALA2        0.0000 
     47 O          33.0553    8.7784   14.3574 O.2       1 ALA2        0.0000 
     48 DU         32.1655    9.9802   14.2390 H         4 CUB7        0.0000 
     49 DU         31.2757   11.1820   14.1206 H         4 CUB7        0.0000 
     50 DU         29.4961   13.5855   13.8839 H         4 CUB7        0.0000 
     51 O          33.1098    6.8580   13.4579 O.2       1 ALA2        0.0000 
     52 O          32.2200    8.0598   13.3396 O.2       1 ALA2        0.0000 
     53 CA         31.3302    9.2615   13.2212 C.3       3 GLY6        0.0000 
     54 CA         30.4404   10.4633   13.1029 C.3       3 GLY6        0.0000 
     55 CA         30.4950    8.5429   12.2034 C.3       3 GLY6        0.0000 
     56 O          32.9638   10.8797   17.3701 O.2       1 ALA2        0.0000 
     57 DU         32.0740   12.0814   17.2517 H         4 CUB7        0.0000 
     58 DU         31.1842   13.2832   17.1333 H         4 CUB7        0.0000 
     59 DU         30.2944   14.4850   17.0150 H         4 CUB7        0.0000 
     60 CA         33.0184    8.9592   16.4706 C.3       3 GLY6        0.0000 
     61 CA         32.1286   10.1610   16.3523 C.3       3 GLY6        0.0000 
     62 DU         31.2388   11.3628   16.2339 H         4 CUB7        0.0000 
     63 DU         30.3490   12.5646   16.1156 H         4 CUB7        0.0000 
     64 DU         29.4592   13.7663   15.9972 H         4 CUB7        0.0000 
     65 DU         28.5694   14.9681   15.8788 H         4 CUB7        0.0000 
     66 N          33.0729    7.0388   15.5712 N.2       1 ALA2        0.0000 
     67 CA         32.1831    8.2406   15.4529 C.3       3 GLY6        0.0000 
     68 CA         31.2933    9.4423   15.3345 C.3       3 GLY6        0.0000 
     69 DU         30.4035   10.6441   15.2161 H         4 CUB7        0.0000 
     70 DU         29.5137   11.8459   15.0978 H         4 CUB7        0.0000 
     71 CA         28.6239   13.0477   14.9794 C.3       3 GLY6        0.0000 
     72 N          32.2377    6.3201   14.5534 N.2       1 ALA2        0.0000 
     73 CA         31.3479    7.5219   14.4351 C.3       3 GLY6        0.0000 
     74 CA         30.4581    8.7237   14.3167 C.3       3 GLY6        0.0000 
     75 CA         31.2565    9.6232   17.4478 C.3       3 GLY6        0.0000 
     76 CA         30.3667   10.8249   17.3294 C.3       3 GLY6        0.0000 
     77 CA         29.4769   12.0267   17.2110 C.3       3 GLY6        0.0000 
     78 CA         29.5314   10.1063   16.3116 C.3       3 GLY6        0.0000 
     79 CA         28.6416   11.3081   16.1933 C.3       3 GLY6        0.0000 
@<TRIPOS>BOND
@<TRIPOS>SUBSTRUCTURE
     1 ALA2        1 GROUP   
     2 LYS4       12 GROUP   
     3 GLY6        4 GROUP   
     4 CUB7       22 GROUP   
@<TRIPOS>SET

