#    Name: 2bxo_OPB_1_INTS_M
#    Modification time : Mon Mar 24 21:55:29 2014

@<TRIPOS>MOLECULE
2bxo_OPB_1_INTS_M
   59     0     9     0     0
SMALL
NO_CHARGES


@<TRIPOS>ATOM
      1 CA         34.3180   13.5310    7.2385 C.3       3 GLC5        0.0000 
      2 CA         33.7090   15.3870    7.1920 C.3       9 GLL5        0.0000 
      3 CA         34.9270   11.6750    7.2850 C.3       6 GLP5        0.0000 
      4 CA         30.2305   18.5370    7.3865 C.3       3 GLC5        0.0000 
      5 CA         32.3170   17.8670    7.2220 C.3       9 GLL5        0.0000 
      6 CA         28.1440   19.2070    7.5510 C.3       6 GLP5        0.0000 
      7 CA         38.0720   17.6435   11.5440 C.3       3 GLC5        0.0000 
      8 CA         37.1920   16.5420   10.3340 C.3       9 GLL5        0.0000 
      9 CA         38.9520   18.7450   12.7540 C.3       6 GLP5        0.0000 
     10 CA         36.5415   18.6115   10.1750 C.3       3 GLC5        0.0000 
     11 CA         35.8910   20.6810   10.0160 C.3       6 GLP5        0.0000 
     12 CA         39.8210   14.4635   10.7860 C.3       3 GLC5        0.0000 
     13 CA         38.2740   15.7230    9.8730 C.3       9 GLL5        0.0000 
     14 CA         41.3680   13.2040   11.6990 C.3       6 GLP5        0.0000 
     15 CA         38.7060   15.3205    7.7450 C.3       3 GLC5        0.0000 
     16 CA         39.1380   14.9180    5.6170 C.3       6 GLP5        0.0000 
     17 CA         38.9770   16.5775   11.4610 C.3       3 GLC5        0.0000 
     18 CA         39.6800   17.4320   13.0490 C.3       6 GLP5        0.0000 
     19 CA         39.9710   13.8615    9.8595 C.3       3 GLC5        0.0000 
     20 CA         38.0180   14.4570    9.4360 C.3       9 GLL5        0.0000 
     21 CA         41.9240   13.2660   10.2830 C.3       6 GLP5        0.0000 
     22 CA         30.2055    7.7050    9.4495 C.3       3 GLC5        0.0000 
     23 CA         29.8320    9.2570   10.9480 C.3       9 GLL5        0.0000 
     24 CA         30.5790    6.1530    7.9510 C.3       6 GLP5        0.0000 
     25 CA         28.4995    9.8495    9.7015 C.3       3 GLC5        0.0000 
     26 CA         27.1670   10.4420    8.4550 C.3       6 GLP5        0.0000 
     27 CA         32.8910   15.1555   11.7855 C.3       3 GLC5        0.0000 
     28 CA         32.4750   13.3650   10.9890 C.3       9 GLL5        0.0000 
     29 CA         33.3070   16.9460   12.5820 C.3       6 GLP5        0.0000 
     30 N          30.2230   16.5055    9.9185 N.am      2 SEC2        0.0000 
     31 N          30.8660   15.0360   10.2020 N.am      8 SEL2        0.0000 
     32 N          29.5800   17.9750    9.6350 N.am      5 SEP2        0.0000 
     33 N          34.2255   11.0445   10.6865 N.am      2 SEC2        0.0000 
     34 N          34.6380   12.2960   11.1800 N.am      8 SEL2        0.0000 
     35 N          33.8130    9.7930   10.1930 N.am      5 SEP2        0.0000 
     36 O          40.7795   15.8890    9.7340 O.2       1 ALC1        0.0000 
     37 O          39.5380   16.2300    9.8890 O.2       7 ALL1        0.0000 
     38 O          42.0210   15.5480    9.5790 O.2       4 ALP1        0.0000 
     39 CA         35.2705   17.6190    5.6967 C.3       3 GLC5        0.0000 
     40 CA         33.6430   16.2190    6.0170 C.3       9 GLL5        0.0000 
     41 CA         37.2410   18.4120    5.3540 C.3       6 GLP5        0.0000 
     42 CA         32.7497   17.2870   10.0628 C.3       3 GLC5        0.0000 
     43 CA         33.0630   15.8380    8.3590 C.3       9 GLL5        0.0000 
     44 CA         32.7870   18.1100   11.7550 C.3       6 GLP5        0.0000 
     45 CA         34.0006   18.8159    7.8070 C.3       3 GLC5        0.0000 
     46 CA         32.9570   17.4330    6.0620 C.3       9 GLL5        0.0000 
     47 CA         35.3530   20.1760    8.6820 C.3       6 GLP5        0.0000 
     48 CA         37.8460   13.9380    7.6860 C.3       3 GLC5        0.0000 
     49 CA         36.7260   13.9370    9.4220 C.3       9 GLL5        0.0000 
     50 CA         38.3200   13.6790    5.9430 C.3       6 GLP5        0.0000 
     51 CA         35.5493   13.0085    8.4703 C.3       3 GLC5        0.0000 
     52 CA         34.5235   16.1585   11.3425 C.3       3 GLC5        0.0000 
     53 CA         35.6170   14.7470    9.8890 C.3       9 GLL5        0.0000 
     54 CA         29.2918    8.4875   12.2740 C.3       3 GLC5        0.0000 
     55 CA         30.1230   10.4450   11.8780 C.3       9 GLL5        0.0000 
     56 CA         28.6060    7.1240   13.1350 C.3       6 GLP5        0.0000 
     57 CA         31.5225   16.3736    5.9653 C.3       3 GLC5        0.0000 
     58 CA         32.3620   17.0900    8.3820 C.3       9 GLL5        0.0000 
     59 CA         30.2170   15.6990    4.8630 C.3       6 GLP5        0.0000 
@<TRIPOS>BOND
@<TRIPOS>SUBSTRUCTURE
     1 ALC1       36 GROUP        1 X    ALC  0     ROOT ALC X 1
     2 SEC2       30 GROUP        1 X    SEC  0     **** SEC X 2
     3 GLC5        1 GROUP        1 X    GLC  0     **** GLC X 6
     4 ALP1       38 GROUP        1 Y    ALP  0     ROOT ALP Y 8
     5 SEP2       32 GROUP        1 Y    SEP  0     **** SEP Y 9
     6 GLP5        3 GROUP        1 Y    GLP  0     **** GLP Y 13
     7 ALL1       37 GROUP        1 Z    ALL  0     ROOT ALL Z 15
     8 SEL2       31 GROUP        1 Z    SEL  0     **** SEL Z 16
     9 GLL5        2 GROUP        1 Z    GLL  0     **** GLL Z 20
@<TRIPOS>SET

