#    Name: 2bxo_OPB_1_ligand
#    Modification time : Mon Mar 24 21:55:30 2014

@<TRIPOS>MOLECULE
2bxo_OPB_1_ligand
   44    46     1     0     0
SMALL
NO_CHARGES


@<TRIPOS>ATOM
      1 C16        33.6430   16.2190    6.0170 C.ar      1 OPB2001     0.0000 
      2 C17        33.7090   15.3870    7.1920 C.ar      1 OPB2001     0.0000 
      3 C12        33.0630   15.8380    8.3590 C.ar      1 OPB2001     0.0000 
      4 C13        32.3620   17.0900    8.3820 C.ar      1 OPB2001     0.0000 
      5 C14        32.3170   17.8670    7.2220 C.ar      1 OPB2001     0.0000 
      6 C15        32.9570   17.4330    6.0620 C.ar      1 OPB2001     0.0000 
      7 C8         37.1920   16.5420   10.3340 C.ar      1 OPB2001     0.0000 
      8 C9         38.2740   15.7230    9.8730 C.ar      1 OPB2001     0.0000 
      9 C10        38.0180   14.4570    9.4360 C.ar      1 OPB2001     0.0000 
     10 C11        36.7260   13.9370    9.4220 C.ar      1 OPB2001     0.0000 
     11 C6         35.6170   14.7470    9.8890 C.ar      1 OPB2001     0.0000 
     12 C7         35.8630   15.9950   10.3170 C.ar      1 OPB2001     0.0000 
     13 C21        29.8320    9.2570   10.9480 C.3       1 OPB2001     0.0000 
     14 C20        30.1230   10.4450   11.8780 C.3       1 OPB2001     0.0000 
     15 C19        30.9000   11.4650   10.9720 C.3       1 OPB2001     0.0000 
     16 C18        31.6180   12.4730   11.8760 C.3       1 OPB2001     0.0000 
     17 N2         33.1010   15.0690    9.5980 N.am      1 OPB2001     0.0000 
     18 C3         31.9790   14.5750   10.2370 C.2       1 OPB2001     0.0000 
     19 C4         32.4750   13.3650   10.9890 C.3       1 OPB2001     0.0000 
     20 C5         33.8910   13.1890   10.7350 C.2       1 OPB2001     0.0000 
     21 N1         34.2840   14.2070    9.8780 N.am      1 OPB2001     0.0000 
     22 O3         30.8660   15.0360   10.2020 O.2       1 OPB2001     0.0000 
     23 O5         34.6380   12.2960   11.1800 O.2       1 OPB2001     0.0000 
     24 O9         39.5380   16.2300    9.8890 O.3       1 OPB2001     0.0000 
     25 H          34.1032   15.9030    5.1650 H         1 OPB2001     0.0000 
     26 H          34.2042   14.5153    7.1636 H         1 OPB2001     0.0000 
     27 H          31.9104   17.3918    9.2385 H         1 OPB2001     0.0000 
     28 H          31.8101   18.7614    7.2250 H         1 OPB2001     0.0000 
     29 H          32.9226   18.0269    5.2114 H         1 OPB2001     0.0000 
     30 H          37.3564   17.4752   10.6612 H         1 OPB2001     0.0000 
     31 H          38.8006   13.8530    9.1014 H         1 OPB2001     0.0000 
     32 H          36.5340   12.9950    9.0902 H         1 OPB2001     0.0000 
     33 H          35.0974   16.6165   10.6542 H         1 OPB2001     0.0000 
     34 H          30.7537   10.1427   12.6699 H         1 OPB2001     0.0000 
     35 H          29.2189   10.8902   12.1952 H         1 OPB2001     0.0000 
     36 H          30.1910   11.9732   10.3450 H         1 OPB2001     0.0000 
     37 H          31.6170   10.9220   10.3845 H         1 OPB2001     0.0000 
     38 H          32.2443   11.9436   12.5729 H         1 OPB2001     0.0000 
     39 H          30.8878   13.0697   12.3946 H         1 OPB2001     0.0000 
     40 H          32.1791   12.5581    9.8256 H         1 OPB2001     0.0000 
     41 H          30.6729    8.8491   10.5924 H         1 OPB2001     0.0000 
     42 H          29.3304    8.5311   11.4186 H         1 OPB2001     0.0000 
     43 H          29.2817    9.5293   10.1587 H         1 OPB2001     0.0000 
     44 H          40.1264   15.4664    9.6232 H         1 OPB2001     0.0000 
@<TRIPOS>BOND
     1    2    1 ar   
     2    6    1 ar   
     3   25    1 1    
     4    3    2 ar   
     5   26    2 1    
     6    4    3 ar   
     7   17    3 1    
     8    5    4 ar   
     9   27    4 1    
    10    6    5 ar   
    11   28    5 1    
    12   29    6 1    
    13    8    7 ar   
    14   12    7 ar   
    15   30    7 1    
    16    9    8 ar   
    17   24    8 1    
    18   10    9 ar   
    19   31    9 1    
    20   11   10 ar   
    21   32   10 1    
    22   12   11 ar   
    23   21   11 1    
    24   33   12 1    
    25   14   13 1    
    26   41   13 1    
    27   42   13 1    
    28   43   13 1    
    29   15   14 1    
    30   34   14 1    
    31   35   14 1    
    32   16   15 1    
    33   36   15 1    
    34   37   15 1    
    35   19   16 1    
    36   38   16 1    
    37   39   16 1    
    38   18   17 am   
    39   21   17 1    
    40   19   18 1    
    41   22   18 2    
    42   20   19 1    
    43   40   19 1    
    44   21   20 am   
    45   23   20 2    
    46   44   24 1    
@<TRIPOS>SUBSTRUCTURE
     1 OPB2001     1 GROUP   
@<TRIPOS>SET

