#    Name: 3k5g_BJC_3_INTS_M
#    Modification time : Mon Mar 24 18:25:41 2014

@<TRIPOS>MOLECULE
3k5g_BJC_3_INTS_M
   91     0    12     0     0
SMALL
NO_CHARGES


@<TRIPOS>ATOM
      1 CA          2.5080  -42.0085   47.6355 C.3       4 GLC5        0.0000 
      2 CA          3.8900  -40.3100   47.4470 C.3      12 GLL5        0.0000 
      3 CA          1.1260  -43.7070   47.8240 C.3       8 GLP5        0.0000 
      4 CA          7.3450  -38.6540   45.4165 C.3       4 GLC5        0.0000 
      5 CA          5.1590  -38.7930   45.8980 C.3      12 GLL5        0.0000 
      6 CA          9.5310  -38.5150   44.9350 C.3       8 GLP5        0.0000 
      7 CA          5.8120  -36.7485   45.3245 C.3       4 GLC5        0.0000 
      8 CA          6.4650  -34.7040   44.7510 C.3       8 GLP5        0.0000 
      9 N           7.2395  -36.7875   45.7735 N.am      2 SEC2        0.0000 
     10 N           6.3350  -37.0610   46.8210 N.am     10 SEL2        0.0000 
     11 N           8.1440  -36.5140   44.7260 N.am      6 SEP2        0.0000 
     12 N           5.8530  -36.3390   45.8520 N.am      2 SEC2        0.0000 
     13 N           5.3710  -35.6170   44.8830 N.am      6 SEP2        0.0000 
     14 CA          9.6925  -38.7820   52.1100 C.3       4 GLC5        0.0000 
     15 CA         10.5890  -38.4610   50.1780 C.3      12 GLL5        0.0000 
     16 CA          8.7960  -39.1030   54.0420 C.3       8 GLP5        0.0000 
     17 CA         11.7685  -37.7515   51.2810 C.3       4 GLC5        0.0000 
     18 CA         10.0920  -36.9860   50.1000 C.3      12 GLL5        0.0000 
     19 CA         13.4450  -38.5170   52.4620 C.3       8 GLP5        0.0000 
     20 CA         11.9460  -36.1985   49.1730 C.3       4 GLC5        0.0000 
     21 CA         13.8000  -35.4110   48.2460 C.3       8 GLP5        0.0000 
     22 N          10.7085  -40.9645   51.8930 N.am      2 SEC2        0.0000 
     23 N          10.7330  -41.3050   50.2490 N.am     10 SEL2        0.0000 
     24 N          10.6840  -40.6240   53.5370 N.am      6 SEP2        0.0000 
     25 O           9.0435  -41.2340   46.9490 O.2       1 ALC1        0.0000 
     26 O           9.8490  -41.6070   48.1610 O.2       9 ALL1        0.0000 
     27 O           8.2380  -40.8610   45.7370 O.2       5 ALP1        0.0000 
     28 O          10.9550  -44.6465   45.3420 O.2       1 ALC1        0.0000 
     29 O          11.5620  -44.7310   46.9460 O.2       9 ALL1        0.0000 
     30 O          10.3480  -44.5620   43.7380 O.2       5 ALP1        0.0000 
     31 O          10.7700  -45.4020   46.1110 O.2       1 ALC1        0.0000 
     32 O           9.9780  -46.0730   45.2760 O.2       5 ALP1        0.0000 
     33 OD1        13.7010  -42.2110   45.9410 O.co2     3 ASC3        0.0000 
     34 OD1        13.8260  -43.1460   46.9110 O.co2    11 ASL3        0.0000 
     35 OD1        13.5760  -41.2760   44.9710 O.co2     7 ASP3        0.0000 
     36 CA         16.6200  -44.0370   47.0080 C.3       4 GLC5        0.0000 
     37 CA         15.1300  -42.8540   47.5630 C.3      12 GLL5        0.0000 
     38 CA         18.1100  -45.2200   46.4530 C.3       8 GLP5        0.0000 
     39 CA         16.2515  -42.1980   46.0255 C.3       4 GLC5        0.0000 
     40 CA         17.3730  -41.5420   44.4880 C.3       8 GLP5        0.0000 
     41 CA         14.3290  -42.4005   52.1590 C.3       4 GLC5        0.0000 
     42 CA         15.6260  -43.8560   51.2730 C.3      12 GLL5        0.0000 
     43 CA         13.0320  -40.9450   53.0450 C.3       8 GLP5        0.0000 
     44 CA         14.4065  -41.5015   51.0045 C.3       4 GLC5        0.0000 
     45 CA         15.4840  -43.0710   50.0990 C.3      12 GLL5        0.0000 
     46 CA         13.3290  -39.9320   51.9100 C.3       8 GLP5        0.0000 
     47 CA         13.1255  -48.0205   48.0725 C.3       4 GLC5        0.0000 
     48 CA         13.8490  -47.9250   49.8530 C.3      12 GLL5        0.0000 
     49 CA         12.4020  -48.1160   46.2920 C.3       8 GLP5        0.0000 
     50 CA         12.6540  -48.7455   50.8405 C.3       4 GLC5        0.0000 
     51 CA         11.4590  -49.5660   51.8280 C.3       8 GLP5        0.0000 
     52 CA         12.2725  -46.9905   49.9215 C.3       4 GLC5        0.0000 
     53 CA         10.6960  -46.0560   49.9900 C.3       8 GLP5        0.0000 
     54 CA         14.2285  -48.0995   47.4460 C.3       4 GLC5        0.0000 
     55 CA         16.0550  -48.0830   48.6000 C.3      12 GLL5        0.0000 
     56 CA         16.8810  -48.3125   46.9270 C.3       4 GLC5        0.0000 
     57 CA         17.7070  -48.5420   45.2540 C.3       8 GLP5        0.0000 
     58 CA         17.0825  -46.6515   47.5265 C.3       4 GLC5        0.0000 
     59 CA          8.6830  -42.8495   45.5995 C.3       4 GLC5        0.0000 
     60 CA          8.7980  -43.7480   47.5710 C.3      12 GLL5        0.0000 
     61 CA          8.5680  -41.9510   43.6280 C.3       8 GLP5        0.0000 
     62 CA          9.1105  -43.7565   50.8160 C.3       4 GLC5        0.0000 
     63 CA          7.5420  -43.2110   49.7950 C.3      12 GLL5        0.0000 
     64 CA         10.6790  -44.3020   51.8370 C.3       8 GLP5        0.0000 
     65 CA          7.2445  -38.7180   52.5155 C.3       4 GLC5        0.0000 
     66 CA          5.6930  -38.3330   50.9890 C.3      12 GLL5        0.0000 
     67 CA          2.4695  -40.1230   48.6382 C.3       4 GLC5        0.0000 
     68 CA          4.7740  -39.7920   48.6160 C.3      12 GLL5        0.0000 
     69 CA          0.6070  -40.1950   49.2450 C.3       8 GLP5        0.0000 
     70 CA          3.8735  -41.9705   45.8405 C.3       4 GLC5        0.0000 
     71 CA          3.4350  -43.6570   44.8800 C.3       8 GLP5        0.0000 
     72 CA          3.9383  -39.9263   44.3838 C.3       4 GLC5        0.0000 
     73 CA          4.7340  -40.2580   46.1550 C.3      12 GLL5        0.0000 
     74 CA          2.9300  -40.3270   42.7410 C.3       8 GLP5        0.0000 
     75 CA          2.9053  -38.9117   45.8488 C.3       4 GLC5        0.0000 
     76 CA          1.0750  -38.2850   45.3480 C.3       8 GLP5        0.0000 
     77 CA         11.7647  -39.4248   50.7925 C.3       4 GLC5        0.0000 
     78 CA          9.8120  -39.3740   49.1720 C.3      12 GLL5        0.0000 
     79 CA          9.4458  -37.3915   52.3300 C.3       4 GLC5        0.0000 
     80 CA          9.5650  -37.8390   54.3990 C.3       8 GLP5        0.0000 
     81 CA         10.7086  -37.4634   47.9387 C.3       4 GLC5        0.0000 
     82 CA         11.2710  -36.9750   45.9900 C.3       8 GLP5        0.0000 
     83 CA         13.7587  -44.5688   51.9703 C.3       4 GLC5        0.0000 
     84 CA         15.5730  -45.2710   51.1920 C.3      12 GLL5        0.0000 
     85 CA         11.9180  -44.5740   52.7080 C.3       8 GLP5        0.0000 
     86 CA         10.2256  -44.7608   48.7806 C.3       4 GLC5        0.0000 
     87 CA         10.1090  -43.0460   48.0500 C.3      12 GLL5        0.0000 
     88 CA          4.5478  -43.6500   46.5028 C.3       4 GLC5        0.0000 
     89 CA          6.2640  -43.7220   47.7650 C.3      12 GLL5        0.0000 
     90 CA          7.1265  -45.4353   47.2116 C.3       4 GLC5        0.0000 
     91 CA          7.0420  -47.1850   46.5460 C.3       8 GLP5        0.0000 
@<TRIPOS>BOND
@<TRIPOS>SUBSTRUCTURE
     1 ALC1       25 GROUP        1 X    ALC  0     ROOT ALC X 1
     2 SEC2        9 GROUP        1 X    SEC  0     **** SEC X 2
     3 ASC3       33 GROUP        1 X    ASC  0     **** ASC X 3
     4 GLC5        1 GROUP        1 X    GLC  0     **** GLC X 6
     5 ALP1       27 GROUP        1 Y    ALP  0     ROOT ALP Y 8
     6 SEP2       11 GROUP        1 Y    SEP  0     **** SEP Y 9
     7 ASP3       35 GROUP        1 Y    ASP  0     **** ASP Y 10
     8 GLP5        3 GROUP        1 Y    GLP  0     **** GLP Y 13
     9 ALL1       26 GROUP        1 Z    ALL  0     ROOT ALL Z 15
    10 SEL2       10 GROUP        1 Z    SEL  0     **** SEL Z 16
    11 ASL3       34 GROUP        1 Z    ASL  0     **** ASL Z 17
    12 GLL5        2 GROUP        1 Z    GLL  0     **** GLL Z 20
@<TRIPOS>SET

