#    Name: 3k5g_BJC_3_ligand
#    Modification time : Mon Mar 24 18:25:41 2014

@<TRIPOS>MOLECULE
3k5g_BJC_3_ligand
   91    94     1     0     0
SMALL
NO_CHARGES


@<TRIPOS>ATOM
      1 N1          5.5500  -38.5280   48.4300 N.am      1 BJC387      0.0000 
      2 C2          4.7740  -39.7920   48.6160 C.3       1 BJC387      0.0000 
      3 C5          3.8900  -40.3100   47.4470 C.3       1 BJC387      0.0000 
      4 C8          4.7340  -40.2580   46.1550 C.3       1 BJC387      0.0000 
      5 C11         5.1590  -38.7930   45.8980 C.3       1 BJC387      0.0000 
      6 C14         5.7200  -38.0780   47.1190 C.2       1 BJC387      0.0000 
      7 O15         6.3350  -37.0610   46.8210 O.2       1 BJC387      0.0000 
      8 C16         6.1420  -37.7430   49.5950 C.3       1 BJC387      0.0000 
      9 C17         7.7180  -37.8050   49.4480 C.3       1 BJC387      0.0000 
     10 C19         8.2760  -39.2650   49.4040 C.3       1 BJC387      0.0000 
     11 C22         9.8120  -39.3740   49.1720 C.3       1 BJC387      0.0000 
     12 C24        10.5890  -38.4610   50.1780 C.3       1 BJC387      0.0000 
     13 C27        10.0920  -36.9860   50.1000 C.3       1 BJC387      0.0000 
     14 C30         8.5610  -36.9020   50.4220 C.3       1 BJC387      0.0000 
     15 C33        10.1790  -40.8440   49.2530 C.2       1 BJC387      0.0000 
     16 O34        10.7330  -41.3050   50.2490 O.2       1 BJC387      0.0000 
     17 N35         9.8490  -41.6070   48.1610 N.am      1 BJC387      0.0000 
     18 C37        10.1090  -43.0460   48.0500 C.3       1 BJC387      0.0000 
     19 C39        11.3160  -43.3200   47.0930 C.3       1 BJC387      0.0000 
     20 O41        11.5620  -44.7310   46.9460 O.3       1 BJC387      0.0000 
     21 C43        12.6260  -42.7030   47.6610 C.3       1 BJC387      0.0000 
     22 N46        13.8260  -43.1460   46.9110 N.4       1 BJC387      0.0000 
     23 C48        15.1300  -42.8540   47.5630 C.3       1 BJC387      0.0000 
     24 C51        15.2870  -43.6990   48.8430 C.ar      1 BJC387      0.0000 
     25 C52        15.2360  -45.1110   48.7720 C.ar      1 BJC387      0.0000 
     26 C54        15.3770  -45.9160   49.9350 C.ar      1 BJC387      0.0000 
     27 C55        15.5730  -45.2710   51.1920 C.ar      1 BJC387      0.0000 
     28 C57        15.6260  -43.8560   51.2730 C.ar      1 BJC387      0.0000 
     29 C59        15.4840  -43.0710   50.0990 C.ar      1 BJC387      0.0000 
     30 C61        15.3200  -47.4560   49.8180 C.3       1 BJC387      0.0000 
     31 C63        13.8490  -47.9250   49.8530 C.3       1 BJC387      0.0000 
     32 C67        16.0550  -48.0830   48.6000 C.3       1 BJC387      0.0000 
     33 C71         8.7980  -43.7480   47.5710 C.3       1 BJC387      0.0000 
     34 C74         7.5180  -43.5500   48.4080 C.ar      1 BJC387      0.0000 
     35 C75         7.5420  -43.2110   49.7950 C.ar      1 BJC387      0.0000 
     36 C77         6.3350  -43.0510   50.5140 C.ar      1 BJC387      0.0000 
     37 C79         5.0880  -43.2290   49.8640 C.ar      1 BJC387      0.0000 
     38 C81         5.0570  -43.5640   48.4860 C.ar      1 BJC387      0.0000 
     39 C83         6.2640  -43.7220   47.7650 C.ar      1 BJC387      0.0000 
     40 C85         5.6930  -38.3330   50.9890 C.3       1 BJC387      0.0000 
     41 C89         5.6130  -36.2580   49.6800 C.3       1 BJC387      0.0000 
     42 H           4.1066  -39.6923   49.5173 H         1 BJC387      0.0000 
     43 H           5.4777  -40.6258   48.8940 H         1 BJC387      0.0000 
     44 H           3.0356  -39.6714   47.3431 H         1 BJC387      0.0000 
     45 H           3.6019  -41.3228   47.6466 H         1 BJC387      0.0000 
     46 H           4.1410  -40.6058   45.3272 H         1 BJC387      0.0000 
     47 H           5.6132  -40.8660   46.2785 H         1 BJC387      0.0000 
     48 H           4.2832  -38.2387   45.5213 H         1 BJC387      0.0000 
     49 H           5.9131  -38.7866   45.0932 H         1 BJC387      0.0000 
     50 H           7.9363  -37.3905   48.4005 H         1 BJC387      0.0000 
     51 H           7.7586  -39.8114   48.6020 H         1 BJC387      0.0000 
     52 H           8.0266  -39.7617   50.3529 H         1 BJC387      0.0000 
     53 H          10.0036  -39.0167   48.1646 H         1 BJC387      0.0000 
     54 H          11.6440  -38.4925   49.9355 H         1 BJC387      0.0000 
     55 H          10.4321  -38.8349   51.1822 H         1 BJC387      0.0000 
     56 H          10.2598  -36.6074   49.1023 H         1 BJC387      0.0000 
     57 H          10.6332  -36.3907   50.8209 H         1 BJC387      0.0000 
     58 H           8.3957  -37.2373   51.4376 H         1 BJC387      0.0000 
     59 H           8.2343  -35.8758   50.3150 H         1 BJC387      0.0000 
     60 H           9.3785  -41.1668   47.3316 H         1 BJC387      0.0000 
     61 H          10.3563  -43.4520   49.0247 H         1 BJC387      0.0000 
     62 H          11.1199  -42.8551   46.1499 H         1 BJC387      0.0000 
     63 H          12.7014  -42.9924   48.7165 H         1 BJC387      0.0000 
     64 H          12.5262  -41.6112   47.6204 H         1 BJC387      0.0000 
     65 H          15.1928  -41.8016   47.8375 H         1 BJC387      0.0000 
     66 H          15.9545  -43.0922   46.8920 H         1 BJC387      0.0000 
     67 H          15.0940  -45.5675   47.8609 H         1 BJC387      0.0000 
     68 H          15.6754  -45.8347   52.0369 H         1 BJC387      0.0000 
     69 H          15.7661  -43.4020   52.1747 H         1 BJC387      0.0000 
     70 H          15.5238  -42.0539   50.1596 H         1 BJC387      0.0000 
     71 H          15.7903  -47.8742   50.7357 H         1 BJC387      0.0000 
     72 H           9.0057  -44.8421   47.4913 H         1 BJC387      0.0000 
     73 H           8.5946  -43.4149   46.5249 H         1 BJC387      0.0000 
     74 H           8.4397  -43.0846   50.2650 H         1 BJC387      0.0000 
     75 H           6.3602  -42.8063   51.5055 H         1 BJC387      0.0000 
     76 H           4.2206  -43.1173   50.3820 H         1 BJC387      0.0000 
     77 H           4.1604  -43.6911   48.0146 H         1 BJC387      0.0000 
     78 H           6.2351  -43.9626   46.7703 H         1 BJC387      0.0000 
     79 H          13.7744  -48.9194   49.7781 H         1 BJC387      0.0000 
     80 H          13.3949  -47.6602   50.7037 H         1 BJC387      0.0000 
     81 H          13.3165  -47.5338   49.1024 H         1 BJC387      0.0000 
     82 H          17.0306  -47.8636   48.6018 H         1 BJC387      0.0000 
     83 H          15.9788  -49.0801   48.5933 H         1 BJC387      0.0000 
     84 H          15.6823  -47.7547   47.7321 H         1 BJC387      0.0000 
     85 H           5.9826  -39.2836   51.1006 H         1 BJC387      0.0000 
     86 H           6.0806  -37.8170   51.7529 H         1 BJC387      0.0000 
     87 H           4.6990  -38.3147   51.0972 H         1 BJC387      0.0000 
     88 H           6.0180  -35.7629   50.4487 H         1 BJC387      0.0000 
     89 H           5.8270  -35.7396   48.8521 H         1 BJC387      0.0000 
     90 H           4.6207  -36.2235   49.7992 H         1 BJC387      0.0000 
     91 H          10.8707  -45.0478   46.2966 H         1 BJC387      0.0000 
@<TRIPOS>BOND
     1    2    1 1    
     2    6    1 am   
     3    8    1 1    
     4    3    2 1    
     5   42    2 1    
     6   43    2 1    
     7    4    3 1    
     8   44    3 1    
     9   45    3 1    
    10    5    4 1    
    11   46    4 1    
    12   47    4 1    
    13    6    5 1    
    14   48    5 1    
    15   49    5 1    
    16    7    6 2    
    17    9    8 1    
    18   40    8 1    
    19   41    8 1    
    20   10    9 1    
    21   14    9 1    
    22   50    9 1    
    23   11   10 1    
    24   51   10 1    
    25   52   10 1    
    26   12   11 1    
    27   15   11 1    
    28   53   11 1    
    29   13   12 1    
    30   54   12 1    
    31   55   12 1    
    32   14   13 1    
    33   56   13 1    
    34   57   13 1    
    35   58   14 1    
    36   59   14 1    
    37   16   15 2    
    38   17   15 am   
    39   18   17 1    
    40   60   17 1    
    41   19   18 1    
    42   33   18 1    
    43   61   18 1    
    44   20   19 1    
    45   21   19 1    
    46   62   19 1    
    47   91   20 1    
    48   22   21 1    
    49   63   21 1    
    50   64   21 1    
    51   23   22 1    
    52   24   23 1    
    53   65   23 1    
    54   66   23 1    
    55   25   24 ar   
    56   29   24 ar   
    57   26   25 ar   
    58   67   25 1    
    59   27   26 ar   
    60   30   26 1    
    61   28   27 ar   
    62   68   27 1    
    63   29   28 ar   
    64   69   28 1    
    65   70   29 1    
    66   31   30 1    
    67   32   30 1    
    68   71   30 1    
    69   79   31 1    
    70   80   31 1    
    71   81   31 1    
    72   82   32 1    
    73   83   32 1    
    74   84   32 1    
    75   34   33 1    
    76   72   33 1    
    77   73   33 1    
    78   35   34 ar   
    79   39   34 ar   
    80   36   35 ar   
    81   74   35 1    
    82   37   36 ar   
    83   75   36 1    
    84   38   37 ar   
    85   76   37 1    
    86   39   38 ar   
    87   77   38 1    
    88   78   39 1    
    89   85   40 1    
    90   86   40 1    
    91   87   40 1    
    92   88   41 1    
    93   89   41 1    
    94   90   41 1    
@<TRIPOS>SUBSTRUCTURE
     1 BJC387      1 GROUP   
@<TRIPOS>SET

