#    Name: 2uw0_GVK_1_INTS_M
#    Modification time : Tue Mar 25 00:23:19 2014

@<TRIPOS>MOLECULE
2uw0_GVK_1_INTS_M
   81     0    12     0     0
SMALL
NO_CHARGES


@<TRIPOS>ATOM
      1 CA         14.0610   15.5645   -0.3095 C.3       4 GLC5        0.0000 
      2 CA         13.5680   13.7150   -0.4550 C.3      12 GLL5        0.0000 
      3 CA         14.5540   17.4140   -0.1640 C.3       8 GLP5        0.0000 
      4 CA         12.8260   15.1070    1.0565 C.3       4 GLC5        0.0000 
      5 CA         12.0840   16.4990    2.5680 C.3       8 GLP5        0.0000 
      6 CA         12.9135   14.8590   -1.9010 C.3       4 GLC5        0.0000 
      7 CA         12.2590   16.0030   -3.3470 C.3       8 GLP5        0.0000 
      8 CA         12.3070   14.6715    2.2225 C.3       4 GLC5        0.0000 
      9 CA         12.5300   12.8440    1.8770 C.3      12 GLL5        0.0000 
     10 CA         12.8885    5.1700    4.2855 C.3       4 GLC5        0.0000 
     11 CA         11.8190    6.9810    3.7840 C.3      12 GLL5        0.0000 
     12 CA         13.9580    3.3590    4.7870 C.3       8 GLP5        0.0000 
     13 CA         11.0905    5.1670    2.8995 C.3       4 GLC5        0.0000 
     14 CA         10.3620    3.3530    2.0150 C.3       8 GLP5        0.0000 
     15 CA          9.9665    6.6485    4.1495 C.3       4 GLC5        0.0000 
     16 CA          8.1140    6.3160    4.5150 C.3       8 GLP5        0.0000 
     17 OD1        11.9250    7.1110    6.4170 O.co2     3 ASC3        0.0000 
     18 OD1        12.6260    7.2940    4.9950 O.co2    11 ASL3        0.0000 
     19 OD1        11.2240    6.9280    7.8390 O.co2     7 ASP3        0.0000 
     20 CA         13.5745    7.8465    7.1080 C.3       4 GLC5        0.0000 
     21 CA         12.1440    8.5600    5.6160 C.3      12 GLL5        0.0000 
     22 CA         15.0050    7.1330    8.6000 C.3       8 GLP5        0.0000 
     23 CA         11.9385   11.2965    5.8780 C.3       4 GLC5        0.0000 
     24 CA         12.2900    9.7050    4.6340 C.3      12 GLL5        0.0000 
     25 CA         11.5870   12.8880    7.1220 C.3       8 GLP5        0.0000 
     26 CA         10.4740   11.4535    5.8435 C.3       4 GLC5        0.0000 
     27 CA          9.3610   10.0190    4.5650 C.3      12 GLL5        0.0000 
     28 CA          8.8115   11.8165    3.7735 C.3       4 GLC5        0.0000 
     29 CA          8.2620   13.6140    2.9820 C.3       8 GLP5        0.0000 
     30 CA          7.4695   11.5040    6.0360 C.3       4 GLC5        0.0000 
     31 CA          7.9810   10.0460    4.6440 C.3      12 GLL5        0.0000 
     32 CA          6.9580   12.9620    7.4280 C.3       8 GLP5        0.0000 
     33 CA          4.2180   11.2245    5.8180 C.3       4 GLC5        0.0000 
     34 CA          3.8540    9.5290    5.0330 C.3      12 GLL5        0.0000 
     35 CA          4.5820   12.9200    6.6030 C.3       8 GLP5        0.0000 
     36 CA          3.3700   11.1050    3.7665 C.3       4 GLC5        0.0000 
     37 CA          2.8860   12.6810    2.5000 C.3       8 GLP5        0.0000 
     38 CA          2.4245    7.8880    5.0285 C.3       4 GLC5        0.0000 
     39 CA          0.9950    6.2470    5.0240 C.3       8 GLP5        0.0000 
     40 CA          4.6435    7.6385    4.6210 C.3       4 GLC5        0.0000 
     41 CA          5.4330    5.7480    4.2090 C.3       8 GLP5        0.0000 
     42 N           1.5595    9.0225    4.4930 N.am      2 SEC2        0.0000 
     43 N           2.9320    9.4850    4.0690 N.am     10 SEL2        0.0000 
     44 N           0.1870    8.5600    4.9170 N.am      6 SEP2        0.0000 
     45 CA          1.4250   10.0640    3.3990 C.3       4 GLC5        0.0000 
     46 CA          3.4880    9.4840    2.8510 C.3      12 GLL5        0.0000 
     47 CA         -0.6380   10.6440    3.9470 C.3       8 GLP5        0.0000 
     48 O           1.4770    9.6075    1.5175 O.2       1 ALC1        0.0000 
     49 O           2.8640    9.4480    1.6410 O.2       9 ALL1        0.0000 
     50 O           0.0900    9.7670    1.3940 O.2       5 ALP1        0.0000 
     51 CA          5.0780    7.7910    1.5475 C.3       4 GLC5        0.0000 
     52 CA          4.8460    9.5270    2.5790 C.3      12 GLL5        0.0000 
     53 CA          5.3100    6.0550    0.5160 C.3       8 GLP5        0.0000 
     54 CA         10.8052   12.8442    1.4792 C.3       4 GLC5        0.0000 
     55 CA         12.9930   12.4950    0.6220 C.3      12 GLL5        0.0000 
     56 CA          8.8490   13.0190    1.7090 C.3       8 GLP5        0.0000 
     57 CA         13.3815   13.2405    3.6418 C.3       4 GLC5        0.0000 
     58 CA         14.4660   14.1220    4.9780 C.3       8 GLP5        0.0000 
     59 CA         14.7566   13.0992    1.4746 C.3       4 GLC5        0.0000 
     60 CA         16.6080   13.2240    1.9690 C.3       8 GLP5        0.0000 
     61 CA         10.4507   12.1135    2.1233 C.3       4 GLC5        0.0000 
     62 CA         12.0640   11.8740    2.7340 C.3      12 GLL5        0.0000 
     63 CA         11.9391   12.3540   -1.4884 C.3       4 GLC5        0.0000 
     64 CA         12.9900   11.1710    0.2270 C.3      12 GLL5        0.0000 
     65 CA         10.7430   12.5700   -3.1320 C.3       8 GLP5        0.0000 
     66 CA          8.8978    8.0440    4.2562 C.3       4 GLC5        0.0000 
     67 CA         10.0020    9.5250    3.4300 C.3      12 GLL5        0.0000 
     68 CA          7.1692   11.5888    3.5827 C.3       4 GLC5        0.0000 
     69 CA          6.7480   13.3590    3.0510 C.3       8 GLP5        0.0000 
     70 CA          7.8522    8.0672    4.3148 C.3       4 GLC5        0.0000 
     71 CA          7.2000    9.5910    3.5850 C.3      12 GLL5        0.0000 
     72 CA          8.7870   11.1028    2.1964 C.3       4 GLC5        0.0000 
     73 CA          7.8400    9.0810    2.4620 C.3      12 GLL5        0.0000 
     74 CA          8.3215    7.6930    3.4682 C.3       4 GLC5        0.0000 
     75 CA          9.2180    9.0590    2.3810 C.3      12 GLL5        0.0000 
     76 CA          7.6005    7.6880    1.1767 C.3       4 GLC5        0.0000 
     77 CA          6.6720    6.3060   -0.0680 C.3       8 GLP5        0.0000 
     78 CA          6.0135   11.4572    3.0900 C.3       4 GLC5        0.0000 
     79 CA          3.6347   11.1004    2.7450 C.3       4 GLC5        0.0000 
     80 CA          5.7120    9.5840    3.6790 C.3      12 GLL5        0.0000 
     81 CA          4.9082    7.6339    3.5995 C.3       4 GLC5        0.0000 
@<TRIPOS>BOND
@<TRIPOS>SUBSTRUCTURE
     1 ALC1       48 GROUP        1 X    ALC  0     ROOT ALC X 1
     2 SEC2       42 GROUP        1 X    SEC  0     **** SEC X 2
     3 ASC3       17 GROUP        1 X    ASC  0     **** ASC X 3
     4 GLC5        1 GROUP        1 X    GLC  0     **** GLC X 6
     5 ALP1       50 GROUP        1 Y    ALP  0     ROOT ALP Y 8
     6 SEP2       44 GROUP        1 Y    SEP  0     **** SEP Y 9
     7 ASP3       19 GROUP        1 Y    ASP  0     **** ASP Y 10
     8 GLP5        3 GROUP        1 Y    GLP  0     **** GLP Y 13
     9 ALL1       49 GROUP        1 Z    ALL  0     ROOT ALL Z 15
    10 SEL2       43 GROUP        1 Z    SEL  0     **** SEL Z 16
    11 ASL3       18 GROUP        1 Z    ASL  0     **** ASL Z 17
    12 GLL5        2 GROUP        1 Z    GLL  0     **** GLL Z 20
@<TRIPOS>SET

