#    Name: 2uw0_GVK_1_ligand
#    Modification time : Tue Mar 25 00:23:19 2014

@<TRIPOS>MOLECULE
2uw0_GVK_1_ligand
   47    51     1     0     0
SMALL
NO_CHARGES


@<TRIPOS>ATOM
      1 CL1        13.5680   13.7150   -0.4550 Cl        1 GVK1351     0.0000 
      2 C2         12.9930   12.4950    0.6220 C.ar      1 GVK1351     0.0000 
      3 C3         12.5300   12.8440    1.8770 C.ar      1 GVK1351     0.0000 
      4 C4         12.0640   11.8740    2.7340 C.ar      1 GVK1351     0.0000 
      5 C5         12.0410   10.5420    2.3410 C.ar      1 GVK1351     0.0000 
      6 C6         12.5180   10.2000    1.0790 C.ar      1 GVK1351     0.0000 
      7 C7         12.9900   11.1710    0.2270 C.ar      1 GVK1351     0.0000 
      8 C8         11.5430    9.4670    3.3110 C.3       1 GVK1351     0.0000 
      9 C9         11.9940    8.0940    2.7760 C.3       1 GVK1351     0.0000 
     10 C10        11.8190    6.9810    3.7840 C.3       1 GVK1351     0.0000 
     11 N11        12.6260    7.2940    4.9950 N.4       1 GVK1351     0.0000 
     12 C14        12.1440    8.5600    5.6160 C.3       1 GVK1351     0.0000 
     13 C15        12.2900    9.7050    4.6340 C.3       1 GVK1351     0.0000 
     14 C16        10.0020    9.5250    3.4300 C.ar      1 GVK1351     0.0000 
     15 C17         9.3610   10.0190    4.5650 C.ar      1 GVK1351     0.0000 
     16 C18         7.9810   10.0460    4.6440 C.ar      1 GVK1351     0.0000 
     17 C19         7.2000    9.5910    3.5850 C.ar      1 GVK1351     0.0000 
     18 C20         7.8400    9.0810    2.4620 C.ar      1 GVK1351     0.0000 
     19 C21         9.2180    9.0590    2.3810 C.ar      1 GVK1351     0.0000 
     20 C22         5.7120    9.5840    3.6790 C.ar      1 GVK1351     0.0000 
     21 N23         5.1860    9.5540    4.9170 N.ar      1 GVK1351     0.0000 
     22 C24         3.8540    9.5290    5.0330 C.ar      1 GVK1351     0.0000 
     23 N25         2.9320    9.4850    4.0690 N.ar      1 GVK1351     0.0000 
     24 C26         3.4880    9.4840    2.8510 C.ar      1 GVK1351     0.0000 
     25 N27         2.8640    9.4480    1.6410 N.pl3     1 GVK1351     0.0000 
     26 C29         3.8150    9.4770    0.6790 C.2       1 GVK1351     0.0000 
     27 N30         5.0510    9.5250    1.1890 N.2       1 GVK1351     0.0000 
     28 C31         4.8460    9.5270    2.5790 C.ar      1 GVK1351     0.0000 
     29 H          12.5352   13.8345    2.1686 H         1 GVK1351     0.0000 
     30 H          11.7278   12.1318    3.6768 H         1 GVK1351     0.0000 
     31 H          12.5144    9.2087    0.7873 H         1 GVK1351     0.0000 
     32 H          13.3427   10.9134   -0.7084 H         1 GVK1351     0.0000 
     33 H          13.0506    8.1644    2.4840 H         1 GVK1351     0.0000 
     34 H          11.4151    7.8661    1.8707 H         1 GVK1351     0.0000 
     35 H          12.1522    6.0444    3.3440 H         1 GVK1351     0.0000 
     36 H          10.7672    6.8981    4.0462 H         1 GVK1351     0.0000 
     37 H          12.7256    8.7826    6.5112 H         1 GVK1351     0.0000 
     38 H          11.0946    8.4633    5.8964 H         1 GVK1351     0.0000 
     39 H          11.9085   10.6295    5.0901 H         1 GVK1351     0.0000 
     40 H          13.3548    9.8630    4.4114 H         1 GVK1351     0.0000 
     41 H           9.9297   10.3688    5.3557 H         1 GVK1351     0.0000 
     42 H           7.5201   10.4070    5.4964 H         1 GVK1351     0.0000 
     43 H           7.2721    8.7133    1.6772 H         1 GVK1351     0.0000 
     44 H           9.6780    8.6910    1.5285 H         1 GVK1351     0.0000 
     45 H           3.4645    9.5473    6.0687 H         1 GVK1351     0.0000 
     46 H           1.9152    9.4089    1.5007 H         1 GVK1351     0.0000 
     47 H           3.6108    9.4639   -0.2917 H         1 GVK1351     0.0000 
@<TRIPOS>BOND
     1    2    1 1    
     2    3    2 ar   
     3    7    2 ar   
     4    4    3 ar   
     5   29    3 1    
     6    5    4 ar   
     7   30    4 1    
     8    6    5 ar   
     9    8    5 1    
    10    7    6 ar   
    11   31    6 1    
    12   32    7 1    
    13    9    8 1    
    14   13    8 1    
    15   14    8 1    
    16   10    9 1    
    17   33    9 1    
    18   34    9 1    
    19   11   10 1    
    20   35   10 1    
    21   36   10 1    
    22   12   11 1    
    23   13   12 1    
    24   37   12 1    
    25   38   12 1    
    26   39   13 1    
    27   40   13 1    
    28   15   14 ar   
    29   19   14 ar   
    30   16   15 ar   
    31   41   15 1    
    32   17   16 ar   
    33   42   16 1    
    34   18   17 ar   
    35   20   17 1    
    36   19   18 ar   
    37   43   18 1    
    38   44   19 1    
    39   21   20 ar   
    40   28   20 ar   
    41   22   21 ar   
    42   23   22 ar   
    43   45   22 1    
    44   24   23 ar   
    45   25   24 1    
    46   28   24 ar   
    47   26   25 1    
    48   46   25 1    
    49   27   26 2    
    50   47   26 1    
    51   28   27 1    
@<TRIPOS>SUBSTRUCTURE
     1 GVK1351     1 GROUP   
@<TRIPOS>SET

