#    Name: 1mx0_ANP_3_INTS_M
#    Modification time : Mon Apr  7 14:49:07 2014

@<TRIPOS>MOLECULE
1mx0_ANP_3_INTS_M
   79     0    15     0     0
SMALL
NO_CHARGES


@<TRIPOS>ATOM
      1 N         151.0625   45.8240   33.3530 N.am      2 SEC2        0.0000 
      2 N         150.0010   45.1020   33.5320 N.am     12 SEL2        0.0000 
      3 N         152.1240   46.5460   33.1740 N.am      7 SEP2        0.0000 
      4 N         149.9980   46.2335   34.2110 N.am      2 SEC2        0.0000 
      5 N         149.9950   47.3650   34.8900 N.am      7 SEP2        0.0000 
      6 NZ        147.4845   43.3510   34.4305 N.4       3 LYC4        0.0000 
      7 NZ        148.9170   43.8790   35.3630 N.4      13 LYL4        0.0000 
      8 NZ        146.0520   42.8230   33.4980 N.4       8 LYP4        0.0000 
      9 Zn        149.2080   43.5950   36.2540 Zn        4 ZIC7        0.0000 
     10 Zn        148.9170   43.8790   35.3630 Zn       14 ZIL7        0.0000 
     11 Zn        149.4990   43.3110   37.1450 Zn        9 ZIP7        0.0000 
     12 NZ        147.2625   43.0105   33.2765 N.4       3 LYC4        0.0000 
     13 NZ        148.4730   43.1980   33.0550 N.4      13 LYL4        0.0000 
     14 N         148.8900   41.9915   32.6165 N.am      2 SEC2        0.0000 
     15 N         148.4730   43.1980   33.0550 N.am     12 SEL2        0.0000 
     16 N         149.3070   40.7850   32.1780 N.am      7 SEP2        0.0000 
     17 N         149.4055   43.0535   31.8575 N.am      2 SEC2        0.0000 
     18 N         150.3380   42.9090   30.6600 N.am      7 SEP2        0.0000 
     19 N         147.2625   43.0105   33.2765 N.am      2 SEC2        0.0000 
     20 N         146.0520   42.8230   33.4980 N.am      7 SEP2        0.0000 
     21 NZ        150.9075   40.6500   36.9625 N.4       3 LYC4        0.0000 
     22 NZ        150.9940   41.9610   36.3800 N.4      13 LYL4        0.0000 
     23 NZ        150.8210   39.3390   37.5450 N.4       8 LYP4        0.0000 
     24 Zn        150.2465   42.6360   36.7625 Zn        4 ZIC7        0.0000 
     25 Zn        150.9940   41.9610   36.3800 Zn       14 ZIL7        0.0000 
     26 N         150.9075   40.6500   36.9625 N.am      2 SEC2        0.0000 
     27 N         150.9940   41.9610   36.3800 N.am     12 SEL2        0.0000 
     28 N         150.8210   39.3390   37.5450 N.am      7 SEP2        0.0000 
     29 N         153.7940   41.3335   34.0305 N.am      2 SEC2        0.0000 
     30 N         152.8990   41.6520   34.9210 N.am     12 SEL2        0.0000 
     31 N         154.6890   41.0150   33.1400 N.am      7 SEP2        0.0000 
     32 Zn        150.2235   43.9490   37.3935 Zn        4 ZIC7        0.0000 
     33 Zn        150.9480   44.5870   37.6420 Zn       14 ZIL7        0.0000 
     34 N         150.5590   44.2530   38.9675 N.am      2 SEC2        0.0000 
     35 N         150.9480   44.5870   37.6420 N.am     12 SEL2        0.0000 
     36 N         150.1700   43.9190   40.2930 N.am      7 SEP2        0.0000 
     37 N         150.5985   46.1905   37.7995 N.am      2 SEC2        0.0000 
     38 N         150.2490   47.7940   37.9570 N.am      7 SEP2        0.0000 
     39 NZ        154.0890   46.3345   36.4490 N.4       3 LYC4        0.0000 
     40 NZ        152.8090   45.9360   36.8530 N.4      13 LYL4        0.0000 
     41 NZ        155.3690   46.7330   36.0450 N.4       8 LYP4        0.0000 
     42 N         151.5290   46.8650   37.4050 N.am      2 SEC2        0.0000 
     43 N         152.8090   45.9360   36.8530 N.am     12 SEL2        0.0000 
     44 N         154.0890   46.3345   36.4490 N.am      2 SEC2        0.0000 
     45 N         155.3690   46.7330   36.0450 N.am      7 SEP2        0.0000 
     46 CA        156.8915   43.4340   39.0275 C.3       5 GLC5        0.0000 
     47 CA        155.2830   42.5060   38.0340 C.3      15 GLL5        0.0000 
     48 CA        158.5000   44.3620   40.0210 C.3      10 GLP5        0.0000 
     49 CA        156.0540   42.2355   35.9600 C.3       5 GLC5        0.0000 
     50 CA        156.8250   41.9650   33.8860 C.3      10 GLP5        0.0000 
     51 N         155.6690   40.1940   35.6685 N.am      2 SEC2        0.0000 
     52 N         154.5640   40.6890   36.5870 N.am     12 SEL2        0.0000 
     53 N         156.7740   39.6990   34.7500 N.am      7 SEP2        0.0000 
     54 O         155.9980   38.5760   37.7040 O.2       1 ALC1        0.0000 
     55 O         155.9870   39.6240   38.6740 O.2      11 ALL1        0.0000 
     56 O         156.0090   37.5280   36.7340 O.2       6 ALP1        0.0000 
     57 CA        156.0350   41.6540   42.0460 C.3       5 GLC5        0.0000 
     58 CA        155.2620   41.3510   40.1010 C.3      15 GLL5        0.0000 
     59 CA        156.8080   41.9570   43.9910 C.3      10 GLP5        0.0000 
     60 CA        156.8810   42.8565   40.0610 C.3       5 GLC5        0.0000 
     61 CA        152.2840   38.3655   43.9420 C.3       5 GLC5        0.0000 
     62 CA        152.6280   40.3750   44.2210 C.3      15 GLL5        0.0000 
     63 CA        151.9400   36.3560   43.6630 C.3      10 GLP5        0.0000 
     64 CA        153.2275   40.6065   46.1460 C.3       5 GLC5        0.0000 
     65 CA        153.8270   40.8380   48.0710 C.3      10 GLP5        0.0000 
     66 O         151.0435   40.1205   46.2450 O.2       1 ALC1        0.0000 
     67 O         151.6500   40.8330   45.0890 O.2      11 ALL1        0.0000 
     68 O         150.4370   39.4080   47.4010 O.2       6 ALP1        0.0000 
     69 CA        153.0445   37.5415   43.6150 C.3       5 GLC5        0.0000 
     70 CA        154.1490   38.7270   43.5670 C.3      15 GLL5        0.0000 
     71 CA        155.7635   39.6635   43.8700 C.3       5 GLC5        0.0000 
     72 CA        157.3780   40.6000   44.1730 C.3      10 GLP5        0.0000 
     73 CA        153.2360   39.6532   37.6472 C.3       5 GLC5        0.0000 
     74 CA        154.8330   40.3710   39.0180 C.3      15 GLL5        0.0000 
     75 CA        151.8570   38.4840   36.8550 C.3      10 GLP5        0.0000 
     76 CA        151.2267   41.2840   42.5078 C.3       5 GLC5        0.0000 
     77 CA        153.0430   41.1770   43.0460 C.3      15 GLL5        0.0000 
     78 CA        149.6180   41.7920   41.3820 C.3      10 GLP5        0.0000 
     79 CA        155.1294   41.3225   43.4486 C.3       5 GLC5        0.0000 
@<TRIPOS>BOND
@<TRIPOS>SUBSTRUCTURE
     1 ALC1       54 GROUP        1 X    ALC  0     ROOT ALC X 1
     2 SEC2        1 GROUP        1 X    SEC  0     **** SEC X 2
     3 LYC4        6 GROUP        1 X    LYC  0     **** LYC X 4
     4 ZIC7        9 GROUP        1 X    ZIC  0     **** ZIC X 5
     5 GLC5       46 GROUP        1 X    GLC  0     **** GLC X 6
     6 ALP1       56 GROUP        1 Y    ALP  0     ROOT ALP Y 8
     7 SEP2        3 GROUP        1 Y    SEP  0     **** SEP Y 9
     8 LYP4        8 GROUP        1 Y    LYP  0     **** LYP Y 11
     9 ZIP7       11 GROUP        1 Y    ZIP  0     **** ZIP Y 12
    10 GLP5       48 GROUP        1 Y    GLP  0     **** GLP Y 13
    11 ALL1       55 GROUP        1 Z    ALL  0     ROOT ALL Z 15
    12 SEL2        2 GROUP        1 Z    SEL  0     **** SEL Z 16
    13 LYL4        7 GROUP        1 Z    LYL  0     **** LYL Z 18
    14 ZIL7       10 GROUP        1 Z    ZIL  0     **** ZIL Z 19
    15 GLL5       47 GROUP        1 Z    GLL  0     **** GLL Z 20
@<TRIPOS>SET

