#    Name: 1mx0_ANP_3_ligand
#    Modification time : Mon Apr  7 14:49:08 2014

@<TRIPOS>MOLECULE
1mx0_ANP_3_ligand
   43    45     1     0     0
SMALL
NO_CHARGES


@<TRIPOS>ATOM
      1 PG        149.5000   43.7780   33.9920 P.3       1 ANP920      0.0000 
      2 O1G       150.0010   45.1020   33.5320 O.co2     1 ANP920      0.0000 
      3 O2G       148.9170   43.8790   35.3630 O.co2     1 ANP920      0.0000 
      4 O3G       148.4730   43.1980   33.0550 O.co2     1 ANP920      0.0000 
      5 PB        151.7740   42.5610   35.2620 P.3       1 ANP920      0.0000 
      6 O1B       150.9940   41.9610   36.3800 O.co2     1 ANP920      0.0000 
      7 O2B       152.8990   41.6520   34.9210 O.co2     1 ANP920      0.0000 
      8 N3B       150.7960   42.7290   33.9580 N.4       1 ANP920      0.0000 
      9 PA        152.3000   44.5460   36.9770 P.3       1 ANP920      0.0000 
     10 O1A       150.9480   44.5870   37.6420 O.co2     1 ANP920      0.0000 
     11 O2A       152.8090   45.9360   36.8530 O.co2     1 ANP920      0.0000 
     12 O3A       152.2840   43.9200   35.5940 O.3       1 ANP920      0.0000 
     13 O5'       153.2480   43.7320   37.8220 O.3       1 ANP920      0.0000 
     14 C5'       154.6330   43.7620   37.5170 C.3       1 ANP920      0.0000 
     15 C4'       155.2830   42.5060   38.0340 C.3       1 ANP920      0.0000 
     16 O4'       155.4870   42.5840   39.4430 O.3       1 ANP920      0.0000 
     17 C3'       154.3970   41.2740   37.8610 C.3       1 ANP920      0.0000 
     18 O3'       154.5640   40.6890   36.5870 O.3       1 ANP920      0.0000 
     19 C2'       154.8330   40.3710   39.0180 C.3       1 ANP920      0.0000 
     20 O2'       155.9870   39.6240   38.6740 O.3       1 ANP920      0.0000 
     21 C1'       155.2620   41.3510   40.1010 C.3       1 ANP920      0.0000 
     22 N9        154.2630   41.4860   41.1980 N.pl3     1 ANP920      0.0000 
     23 C8        153.4570   42.5480   41.4130 C.2       1 ANP920      0.0000 
     24 N7        152.7140   42.3560   42.5260 N.2       1 ANP920      0.0000 
     25 C5        153.0430   41.1770   43.0460 C.ar      1 ANP920      0.0000 
     26 C6        152.6280   40.3750   44.2210 C.ar      1 ANP920      0.0000 
     27 N6        151.6500   40.8330   45.0890 N.pl3     1 ANP920      0.0000 
     28 N1        153.2020   39.1860   44.3990 N.ar      1 ANP920      0.0000 
     29 C2        154.1490   38.7270   43.5670 C.ar      1 ANP920      0.0000 
     30 N3        154.5850   39.4090   42.4970 N.ar      1 ANP920      0.0000 
     31 C4        154.0660   40.6000   42.1790 C.ar      1 ANP920      0.0000 
     32 H         155.1325   44.6221   37.9811 H         1 ANP920      0.0000 
     33 H         154.8094   43.8186   36.4352 H         1 ANP920      0.0000 
     34 H         156.2057   42.3236   37.5267 H         1 ANP920      0.0000 
     35 H         153.3858   41.5872   38.0646 H         1 ANP920      0.0000 
     36 H         154.0311   39.8134   39.3593 H         1 ANP920      0.0000 
     37 H         156.2027   40.9759   40.5126 H         1 ANP920      0.0000 
     38 H         153.4160   43.3425   40.8454 H         1 ANP920      0.0000 
     39 H         151.4082   40.2209   45.8419 H         1 ANP920      0.0000 
     40 H         151.2706   41.7360   44.8874 H         1 ANP920      0.0000 
     41 H         154.5778   37.7699   43.7665 H         1 ANP920      0.0000 
     42 H         154.2571   41.3867   35.9397 H         1 ANP920      0.0000 
     43 H         155.6557   38.9001   38.0689 H         1 ANP920      0.0000 
@<TRIPOS>BOND
     1    2    1 ar   
     2    3    1 ar   
     3    4    1 ar   
     4    8    1 1    
     5    6    5 ar   
     6    7    5 ar   
     7    8    5 1    
     8   12    5 1    
     9   10    9 ar   
    10   11    9 ar   
    11   12    9 1    
    12   13    9 1    
    13   14   13 1    
    14   15   14 1    
    15   32   14 1    
    16   33   14 1    
    17   16   15 1    
    18   17   15 1    
    19   34   15 1    
    20   21   16 1    
    21   18   17 1    
    22   19   17 1    
    23   35   17 1    
    24   42   18 1    
    25   20   19 1    
    26   21   19 1    
    27   36   19 1    
    28   43   20 1    
    29   22   21 1    
    30   37   21 1    
    31   23   22 1    
    32   31   22 1    
    33   24   23 2    
    34   38   23 1    
    35   25   24 1    
    36   26   25 ar   
    37   31   25 ar   
    38   27   26 1    
    39   28   26 ar   
    40   39   27 1    
    41   40   27 1    
    42   29   28 ar   
    43   30   29 ar   
    44   41   29 1    
    45   31   30 ar   
@<TRIPOS>SUBSTRUCTURE
     1 ANP920      1 GROUP   
@<TRIPOS>SET

