#    Name: 3du8_553_2_INTS_M
#    Modification time : Tue Mar 25 00:20:51 2014

@<TRIPOS>MOLECULE
3du8_553_2_INTS_M
   48     0     9     0     0
SMALL
NO_CHARGES


@<TRIPOS>ATOM
      1 N           6.6240   12.0725  -31.8980 N.am      2 SEC2        0.0000 
      2 N           6.2170   11.0010  -32.7120 N.am      8 SEL2        0.0000 
      3 N           7.0310   13.1440  -31.0840 N.am      5 SEP2        0.0000 
      4 CA          4.1945    8.7410  -29.2175 C.3       3 GLC5        0.0000 
      5 CA          5.0710    8.1610  -30.7490 C.3       9 GLL5        0.0000 
      6 CA          3.3180    9.3210  -27.6860 C.3       6 GLP5        0.0000 
      7 CA          3.2255    9.1660  -30.8275 C.3       3 GLC5        0.0000 
      8 CA          1.3800   10.1710  -30.9060 C.3       6 GLP5        0.0000 
      9 CA          6.5340    7.1460  -34.2030 C.3       3 GLC5        0.0000 
     10 CA          5.9410    6.5020  -32.4140 C.3       9 GLL5        0.0000 
     11 CA          7.1270    7.7900  -35.9920 C.3       6 GLP5        0.0000 
     12 CA          3.4665   11.6030  -35.3805 C.3       3 GLC5        0.0000 
     13 CA          4.0000    9.8190  -34.4350 C.3       9 GLL5        0.0000 
     14 CA          2.9330   13.3870  -36.3260 C.3       6 GLP5        0.0000 
     15 CA          2.6705   11.3430  -36.7165 C.3       3 GLC5        0.0000 
     16 CA          2.4080    9.2990  -37.1070 C.3       9 GLL5        0.0000 
     17 CA          0.0800    9.0295  -39.4110 C.3       3 GLC5        0.0000 
     18 CA          1.6130    8.9730  -38.2080 C.3       9 GLL5        0.0000 
     19 CA         -1.4530    9.0860  -40.6140 C.3       6 GLP5        0.0000 
     20 CA          2.0770    8.0860  -40.1675 C.3       3 GLC5        0.0000 
     21 CA          2.5410    7.1990  -42.1270 C.3       6 GLP5        0.0000 
     22 CA         -0.9795    7.1730  -35.7785 C.3       3 GLC5        0.0000 
     23 CA          0.7570    7.0900  -37.0340 C.3       9 GLL5        0.0000 
     24 CA         -2.7160    7.2560  -34.5230 C.3       6 GLP5        0.0000 
     25 CA         -0.1450    8.9825  -36.8170 C.3       3 GLC5        0.0000 
     26 CA         -1.0470   10.8750  -36.6000 C.3       6 GLP5        0.0000 
     27 CA          2.6845    7.1540  -37.8760 C.3       3 GLC5        0.0000 
     28 CA          4.6120    7.2180  -38.7180 C.3       6 GLP5        0.0000 
     29 N           0.3830    7.4805  -39.4840 N.am      2 SEC2        0.0000 
     30 N           0.8090    7.8760  -38.1430 N.am      8 SEL2        0.0000 
     31 N          -0.0430    7.0850  -40.8250 N.am      5 SEP2        0.0000 
     32 O          -0.0150    5.3850  -38.1775 O.2       1 ALC1        0.0000 
     33 O          -0.0440    6.0080  -36.9490 O.2       7 ALL1        0.0000 
     34 O           0.0140    4.7620  -39.4060 O.2       4 ALP1        0.0000 
     35 CA          7.2620    3.4730  -31.5430 C.3       3 GLC5        0.0000 
     36 CA          6.7900    5.8440  -31.3160 C.3       9 GLL5        0.0000 
     37 CA          8.0720    1.6240  -32.0730 C.3       6 GLP5        0.0000 
     38 CA          2.7914    9.7114  -32.3501 C.3       3 GLC5        0.0000 
     39 CA          4.1880    7.9920  -33.0180 C.3       9 GLL5        0.0000 
     40 CA          1.2790    9.3353  -34.1022 C.3       3 GLC5        0.0000 
     41 CA          3.1880    8.7440  -34.7860 C.3       9 GLL5        0.0000 
     42 CA         -0.1930   10.0540  -32.8320 C.3       6 GLP5        0.0000 
     43 CA          3.6815    7.9173  -37.0453 C.3       3 GLC5        0.0000 
     44 CA          3.3432    9.7745  -39.0907 C.3       3 GLC5        0.0000 
     45 CA          4.6760   10.4130  -40.5240 C.3       6 GLP5        0.0000 
     46 CA          3.3112    8.1770  -38.1878 C.3       3 GLC5        0.0000 
     47 CA          0.4700    9.9042  -36.9852 C.3       3 GLC5        0.0000 
     48 CA          5.5634    8.3865  -34.9370 C.3       3 GLC5        0.0000 
@<TRIPOS>BOND
@<TRIPOS>SUBSTRUCTURE
     1 ALC1       32 GROUP        1 X    ALC  0     ROOT ALC X 1
     2 SEC2        1 GROUP        1 X    SEC  0     **** SEC X 2
     3 GLC5        4 GROUP        1 X    GLC  0     **** GLC X 6
     4 ALP1       34 GROUP        1 Y    ALP  0     ROOT ALP Y 8
     5 SEP2        3 GROUP        1 Y    SEP  0     **** SEP Y 9
     6 GLP5        6 GROUP        1 Y    GLP  0     **** GLP Y 13
     7 ALL1       33 GROUP        1 Z    ALL  0     ROOT ALL Z 15
     8 SEL2        2 GROUP        1 Z    SEL  0     **** SEL Z 16
     9 GLL5        5 GROUP        1 Z    GLL  0     **** GLL Z 20
@<TRIPOS>SET

