#    Name: 3du8_553_2_ligand
#    Modification time : Tue Mar 25 00:20:51 2014

@<TRIPOS>MOLECULE
3du8_553_2_ligand
   34    36     1     0     0
SMALL
NO_CHARGES


@<TRIPOS>ATOM
      1 O19         6.2170   11.0010  -32.7120 O.2       1 553553      0.0000 
      2 C15         5.6180    9.9790  -32.3650 C.2       1 553553      0.0000 
      3 N14         5.8700    9.2990  -31.2240 N.am      1 553553      0.0000 
      4 C13         5.0710    8.1610  -30.7490 C.3       1 553553      0.0000 
      5 C12         4.6880    7.1920  -31.8790 C.3       1 553553      0.0000 
      6 C16         5.9410    6.5020  -32.4140 C.3       1 553553      0.0000 
      7 C17         6.7900    5.8440  -31.3160 C.3       1 553553      0.0000 
      8 F18         6.1140    4.8000  -30.7100 F         1 553553      0.0000 
      9 C11         4.1880    7.9920  -33.0180 C.2       1 553553      0.0000 
     10 N8          3.3160    7.6660  -33.9880 N.pl3     1 553553      0.0000 
     11 C10         4.6230    9.3770  -33.2890 C.2       1 553553      0.0000 
     12 C9          4.0000    9.8190  -34.4350 C.2       1 553553      0.0000 
     13 C7          3.1880    8.7440  -34.7860 C.2       1 553553      0.0000 
     14 C5          2.3140    8.4890  -35.9590 C.ar      1 553553      0.0000 
     15 C6          2.4080    9.2990  -37.1070 C.ar      1 553553      0.0000 
     16 C1          1.6130    8.9730  -38.2080 C.ar      1 553553      0.0000 
     17 N4          1.5250    7.3860  -35.9630 N.ar      1 553553      0.0000 
     18 C3          0.7570    7.0900  -37.0340 C.ar      1 553553      0.0000 
     19 N2          0.8090    7.8760  -38.1430 N.ar      1 553553      0.0000 
     20 N20        -0.0440    6.0080  -36.9490 N.pl3     1 553553      0.0000 
     21 H           6.6782    9.5648  -30.6045 H         1 553553      0.0000 
     22 H           4.1401    8.5123  -30.2739 H         1 553553      0.0000 
     23 H           5.6253    7.5897  -29.9861 H         1 553553      0.0000 
     24 H           3.9943    6.4971  -31.5616 H         1 553553      0.0000 
     25 H           6.5591    7.2391  -32.9453 H         1 553553      0.0000 
     26 H           5.6460    5.7332  -33.1417 H         1 553553      0.0000 
     27 H           7.0656    6.6473  -30.6035 H         1 553553      0.0000 
     28 H           7.7355    5.5211  -31.7964 H         1 553553      0.0000 
     29 H           2.8682    6.8245  -34.0936 H         1 553553      0.0000 
     30 H           4.0911   10.6226  -34.8682 H         1 553553      0.0000 
     31 H           3.0342   10.0921  -37.1283 H         1 553553      0.0000 
     32 H           1.6458    9.5624  -39.0473 H         1 553553      0.0000 
     33 H          -0.4003    5.7948  -36.0394 H         1 553553      0.0000 
     34 H          -0.2101    5.5153  -37.8032 H         1 553553      0.0000 
@<TRIPOS>BOND
     1    2    1 2    
     2    3    2 am   
     3   11    2 1    
     4    4    3 1    
     5   21    3 1    
     6    5    4 1    
     7   22    4 1    
     8   23    4 1    
     9    6    5 1    
    10    9    5 1    
    11   24    5 1    
    12    7    6 1    
    13   25    6 1    
    14   26    6 1    
    15    8    7 1    
    16   27    7 1    
    17   28    7 1    
    18   10    9 1    
    19   11    9 2    
    20   13   10 1    
    21   29   10 1    
    22   12   11 1    
    23   13   12 2    
    24   30   12 1    
    25   14   13 1    
    26   15   14 ar   
    27   17   14 ar   
    28   16   15 ar   
    29   31   15 1    
    30   19   16 ar   
    31   32   16 1    
    32   18   17 ar   
    33   19   18 ar   
    34   20   18 1    
    35   33   20 1    
    36   34   20 1    
@<TRIPOS>SUBSTRUCTURE
     1 553553      1 GROUP   
@<TRIPOS>SET

