#    Name: 3cmc_NAD_4_INTS_M
#    Modification time : Mon Mar 24 21:56:06 2014

@<TRIPOS>MOLECULE
3cmc_NAD_4_INTS_M
   92     0     9     0     0
SMALL
NO_CHARGES


@<TRIPOS>ATOM
      1 N          20.8900  -11.0815   18.8065 N.am      2 SEC2        0.0000 
      2 N          20.5810   -9.4830   19.1730 N.am      8 SEL2        0.0000 
      3 N          21.1990  -12.6800   18.4400 N.am      5 SEP2        0.0000 
      4 N          21.0045   -8.4580   18.2160 N.am      2 SEC2        0.0000 
      5 N          21.4280   -7.4330   17.2590 N.am      5 SEP2        0.0000 
      6 CA         16.0195  -12.5130   22.0430 C.3       3 GLC5        0.0000 
      7 CA         16.6700  -10.9230   21.0880 C.3       9 GLL5        0.0000 
      8 CA         15.3690  -14.1030   22.9980 C.3       6 GLP5        0.0000 
      9 CA         16.8175   -8.9970   18.5910 C.3       3 GLC5        0.0000 
     10 CA         16.0820  -10.2420   19.8470 C.3       9 GLL5        0.0000 
     11 CA         17.5530   -7.7520   17.3350 C.3       6 GLP5        0.0000 
     12 CA         17.4440  -11.6720   19.2635 C.3       3 GLC5        0.0000 
     13 CA         18.8060  -13.1020   18.6800 C.3       6 GLP5        0.0000 
     14 O          14.8695  -12.0920   19.2295 O.2       1 ALC1        0.0000 
     15 O          15.8010  -11.1850   18.7950 O.2       7 ALL1        0.0000 
     16 O          13.9380  -12.9990   19.6640 O.2       4 ALP1        0.0000 
     17 O          14.1150  -11.4185   18.7980 O.2       1 ALC1        0.0000 
     18 O          12.4290  -11.6520   18.8010 O.2       4 ALP1        0.0000 
     19 O          13.0630  -10.5670   19.1870 O.2       1 ALC1        0.0000 
     20 O          13.6970   -9.4820   19.5730 O.2       7 ALL1        0.0000 
     21 CA         14.9055  -12.3180   22.2765 C.3       3 GLC5        0.0000 
     22 CA         14.4420  -10.5330   21.5550 C.3       9 GLL5        0.0000 
     23 CA         11.4565   -8.6920   22.9880 C.3       3 GLC5        0.0000 
     24 CA         12.3690   -9.5990   24.4040 C.3       9 GLL5        0.0000 
     25 CA         10.5440   -7.7850   21.5720 C.3       6 GLP5        0.0000 
     26 CA         13.5975   -8.3430   25.7415 C.3       3 GLC5        0.0000 
     27 CA         14.8260   -7.0870   27.0790 C.3       6 GLP5        0.0000 
     28 CA         10.1260   -9.7665   23.8645 C.3       3 GLC5        0.0000 
     29 CA         11.3520  -10.0350   25.2750 C.3       9 GLL5        0.0000 
     30 CA          8.9000   -9.4980   22.4540 C.3       6 GLP5        0.0000 
     31 CA          9.2110  -10.1335   25.5935 C.3       3 GLC5        0.0000 
     32 CA          7.0700  -10.2320   25.9120 C.3       6 GLP5        0.0000 
     33 O           9.5455   -9.6330   27.0295 O.2       1 ALC1        0.0000 
     34 O          10.7390   -9.2020   26.1500 O.2       7 ALL1        0.0000 
     35 O           8.3520  -10.0640   27.9090 O.2       4 ALP1        0.0000 
     36 CA         11.1425  -12.9265   22.4495 C.3       3 GLC5        0.0000 
     37 CA         11.3580  -12.1950   24.1620 C.3       9 GLL5        0.0000 
     38 CA         10.9270  -13.6580   20.7370 C.3       6 GLP5        0.0000 
     39 CA         10.1290  -10.8465   23.3080 C.3       3 GLC5        0.0000 
     40 CA         12.9205  -12.2195   25.0130 C.3       3 GLC5        0.0000 
     41 CA         14.4830  -12.2440   25.8640 C.3       6 GLP5        0.0000 
     42 CA         14.0715  -12.2875   23.1930 C.3       3 GLC5        0.0000 
     43 CA         12.7740  -10.4720   23.3880 C.3       9 GLL5        0.0000 
     44 CA         11.3695   -9.8360   22.3890 C.3       3 GLC5        0.0000 
     45 CA          9.9650   -9.2000   21.3900 C.3       6 GLP5        0.0000 
     46 N          22.3600  -12.9065   20.7700 N.am      2 SEC2        0.0000 
     47 N          21.8930  -11.6430   21.2820 N.am      8 SEL2        0.0000 
     48 N          22.8270  -14.1700   20.2580 N.am      5 SEP2        0.0000 
     49 CA         23.0705  -12.4190   23.3795 C.3       3 GLC5        0.0000 
     50 CA         21.5220  -11.0690   24.1630 C.3       9 GLL5        0.0000 
     51 CA         24.6190  -13.7690   22.5960 C.3       6 GLP5        0.0000 
     52 N          22.7465  -12.9875   26.3145 N.am      2 SEC2        0.0000 
     53 N          23.2900  -11.8780   25.5830 N.am      8 SEL2        0.0000 
     54 N          22.2030  -14.0970   27.0460 N.am      5 SEP2        0.0000 
     55 O          21.4555  -10.9665   28.2035 O.2       1 ALC1        0.0000 
     56 O          22.1770   -9.9100   27.5960 O.2       7 ALL1        0.0000 
     57 O          20.7340  -12.0230   28.8110 O.2       4 ALP1        0.0000 
     58 CA         24.5100  -12.4310   24.3005 C.3       3 GLC5        0.0000 
     59 CA         24.4010  -11.0930   26.0050 C.3       9 GLL5        0.0000 
     60 N          29.5705  -10.4880   20.6010 N.am      2 SEC2        0.0000 
     61 N          28.5420  -10.5750   21.5840 N.am      8 SEL2        0.0000 
     62 N          30.5990  -10.4010   19.6180 N.am      5 SEP2        0.0000 
     63 N          28.9750   -9.6720   22.5460 N.am      2 SEC2        0.0000 
     64 N          29.4080   -8.7690   23.5080 N.am      5 SEP2        0.0000 
     65 CA         28.6495  -14.5475   24.7480 C.3       3 GLC5        0.0000 
     66 CA         27.5690  -12.8240   24.9800 C.3       9 GLL5        0.0000 
     67 CA         29.7300  -16.2710   24.5160 C.3       6 GLP5        0.0000 
     68 CA         25.5380  -13.0795   24.1410 C.3       3 GLC5        0.0000 
     69 CA         26.4570  -12.3900   25.6860 C.3       9 GLL5        0.0000 
     70 CA         18.0553  -11.8662   20.0392 C.3       3 GLC5        0.0000 
     71 CA         17.9390  -10.3380   21.7090 C.3       9 GLL5        0.0000 
     72 CA         17.0448  -10.9637   23.4238 C.3       3 GLC5        0.0000 
     73 CA         16.7850  -11.2970   25.4490 C.3       6 GLP5        0.0000 
     74 CA         13.4001  -11.1943   24.9889 C.3       3 GLC5        0.0000 
     75 CA         20.4713  -12.6817   25.4445 C.3       3 GLC5        0.0000 
     76 CA         19.1420  -14.2610   26.0200 C.3       6 GLP5        0.0000 
     77 CA         20.6599   -9.6829   26.3682 C.3       3 GLC5        0.0000 
     78 CA         22.3970   -9.7610   26.1460 C.3       9 GLL5        0.0000 
     79 CA         19.2210   -8.9340   27.2290 C.3       6 GLP5        0.0000 
     80 CA         23.9564  -10.7269   28.0328 C.3       3 GLC5        0.0000 
     81 CA         24.1400  -11.0540   30.0640 C.3       6 GLP5        0.0000 
     82 CA         27.9270   -9.9417   24.2542 C.3       3 GLC5        0.0000 
     83 CA         25.7970  -10.8710   23.9460 C.3       9 GLL5        0.0000 
     84 CA         29.4990   -8.7910   24.9290 C.3       6 GLP5        0.0000 
     85 CA         25.4870  -12.4307   23.0877 C.3       3 GLC5        0.0000 
     86 CA         26.9130  -11.3140   23.2130 C.3       9 GLL5        0.0000 
     87 CA         28.6028  -10.6575   24.6470 C.3       3 GLC5        0.0000 
     88 CA         27.8440  -12.2240   23.7500 C.3       9 GLL5        0.0000 
     89 CA         26.8077  -13.4670   23.1560 C.3       3 GLC5        0.0000 
     90 CA         25.9090  -14.4100   21.9470 C.3       6 GLP5        0.0000 
     91 CA         29.6328  -12.5890   24.6890 C.3       3 GLC5        0.0000 
     92 CA         31.5590  -12.6540   25.0130 C.3       6 GLP5        0.0000 
@<TRIPOS>BOND
@<TRIPOS>SUBSTRUCTURE
     1 ALC1       14 GROUP        1 X    ALC  0     ROOT ALC X 1
     2 SEC2        1 GROUP        1 X    SEC  0     **** SEC X 2
     3 GLC5        6 GROUP        1 X    GLC  0     **** GLC X 6
     4 ALP1       16 GROUP        1 Y    ALP  0     ROOT ALP Y 8
     5 SEP2        3 GROUP        1 Y    SEP  0     **** SEP Y 9
     6 GLP5        8 GROUP        1 Y    GLP  0     **** GLP Y 13
     7 ALL1       15 GROUP        1 Z    ALL  0     ROOT ALL Z 15
     8 SEL2        2 GROUP        1 Z    SEL  0     **** SEL Z 16
     9 GLL5        7 GROUP        1 Z    GLL  0     **** GLL Z 20
@<TRIPOS>SET

