#    Name: 3cmc_NAD_4_ligand
#    Modification time : Mon Mar 24 21:56:06 2014

@<TRIPOS>MOLECULE
3cmc_NAD_4_ligand
   70    74     1     0     0
SMALL
NO_CHARGES


@<TRIPOS>ATOM
      1 PA         19.9510   -9.1840   20.4750 P.3       1 NAD408      0.0000 
      2 O1A        19.3560   -7.8580   20.5670 O.co2     1 NAD408      0.0000 
      3 O2A        20.5810   -9.4830   19.1730 O.co2     1 NAD408      0.0000 
      4 O5B        18.8490  -10.3140   20.6410 O.3       1 NAD408      0.0000 
      5 C5B        17.9390  -10.3380   21.7090 C.3       1 NAD408      0.0000 
      6 C4B        16.6700  -10.9230   21.0880 C.3       1 NAD408      0.0000 
      7 O4B        15.6550  -10.9760   22.0830 O.3       1 NAD408      0.0000 
      8 C3B        16.0820  -10.2420   19.8470 C.3       1 NAD408      0.0000 
      9 O3B        15.8010  -11.1850   18.7950 O.3       1 NAD408      0.0000 
     10 C2B        14.8080   -9.6160   20.4130 C.3       1 NAD408      0.0000 
     11 O2B        13.6970   -9.4820   19.5730 O.3       1 NAD408      0.0000 
     12 C1B        14.4420  -10.5330   21.5550 C.3       1 NAD408      0.0000 
     13 N9A        13.7340   -9.8310   22.6610 N.pl3     1 NAD408      0.0000 
     14 C8A        13.8930   -8.5420   23.1440 C.2       1 NAD408      0.0000 
     15 N7A        13.0500   -8.4070   24.2080 N.2       1 NAD408      0.0000 
     16 C5A        12.3690   -9.5990   24.4040 C.ar      1 NAD408      0.0000 
     17 C6A        11.3520  -10.0350   25.2750 C.ar      1 NAD408      0.0000 
     18 N6A        10.7390   -9.2020   26.1500 N.pl3     1 NAD408      0.0000 
     19 N1A        10.8300  -11.2960   25.0940 N.ar      1 NAD408      0.0000 
     20 C2A        11.3580  -12.1950   24.1620 C.ar      1 NAD408      0.0000 
     21 N3A        12.2500  -11.7270   23.2330 N.ar      1 NAD408      0.0000 
     22 C4A        12.7740  -10.4720   23.3880 C.ar      1 NAD408      0.0000 
     23 O3         21.0420   -9.3050   21.6390 O.3       1 NAD408      0.0000 
     24 PN         22.2730  -10.2860   21.7380 P.3       1 NAD408      0.0000 
     25 O1N        23.5120   -9.6610   21.2480 O.co2     1 NAD408      0.0000 
     26 O2N        21.8930  -11.6430   21.2820 O.co2     1 NAD408      0.0000 
     27 O5D        22.4350  -10.3570   23.3630 O.3       1 NAD408      0.0000 
     28 C5D        21.5220  -11.0690   24.1630 C.3       1 NAD408      0.0000 
     29 C4D        22.0790  -11.1360   25.5750 C.3       1 NAD408      0.0000 
     30 O4D        23.2900  -11.8780   25.5830 O.3       1 NAD408      0.0000 
     31 C3D        22.3970   -9.7610   26.1460 C.3       1 NAD408      0.0000 
     32 O3D        22.1770   -9.9100   27.5960 O.3       1 NAD408      0.0000 
     33 C2D        23.8920   -9.6520   25.8500 C.3       1 NAD408      0.0000 
     34 O2D        24.6350   -8.8520   26.7320 O.3       1 NAD408      0.0000 
     35 C1D        24.4010  -11.0930   26.0050 C.3       1 NAD408      0.0000 
     36 N1N        25.5880  -11.4350   25.1870 N.pl3     1 NAD408      0.0000 
     37 C2N        25.7970  -10.8710   23.9460 C.ar      1 NAD408      0.0000 
     38 C3N        26.9130  -11.3140   23.2130 C.ar      1 NAD408      0.0000 
     39 C7N        27.2220  -10.6990   21.8780 C.2       1 NAD408      0.0000 
     40 O7N        28.5420  -10.5750   21.5840 O.2       1 NAD408      0.0000 
     41 N7N        26.2610  -10.2930   21.0820 N.am      1 NAD408      0.0000 
     42 C4N        27.8440  -12.2240   23.7500 C.ar      1 NAD408      0.0000 
     43 C5N        27.5690  -12.8240   24.9800 C.ar      1 NAD408      0.0000 
     44 C6N        26.4570  -12.3900   25.6860 C.ar      1 NAD408      0.0000 
     45 H          17.7017   -9.3576   22.0813 H         1 NAD408      0.0000 
     46 H          18.2452  -10.9894   22.5077 H         1 NAD408      0.0000 
     47 H          16.9052  -11.9765   20.7950 H         1 NAD408      0.0000 
     48 H          16.7360   -9.4583   19.5645 H         1 NAD408      0.0000 
     49 H          15.0982   -8.6700   20.8858 H         1 NAD408      0.0000 
     50 H          13.8565  -11.3388   21.1909 H         1 NAD408      0.0000 
     51 H          14.4800   -7.8874   22.7926 H         1 NAD408      0.0000 
     52 H          11.0192   -8.2427   26.1143 H         1 NAD408      0.0000 
     53 H          10.0606   -9.6202   26.7541 H         1 NAD408      0.0000 
     54 H          11.0769  -13.1757   24.1840 H         1 NAD408      0.0000 
     55 H          21.3751  -12.0946   23.8132 H         1 NAD408      0.0000 
     56 H          20.5447  -10.5810   24.2126 H         1 NAD408      0.0000 
     57 H          21.3451  -11.6032   26.2185 H         1 NAD408      0.0000 
     58 H          21.8609   -9.0494   25.6950 H         1 NAD408      0.0000 
     59 H          24.0195   -9.3984   24.8187 H         1 NAD408      0.0000 
     60 H          24.5875  -11.2627   27.0504 H         1 NAD408      0.0000 
     61 H          25.1809  -10.1669   23.5668 H         1 NAD408      0.0000 
     62 H          25.3277  -10.4254   21.4158 H         1 NAD408      0.0000 
     63 H          26.5498   -9.8884   20.2143 H         1 NAD408      0.0000 
     64 H          28.7009  -12.4368   23.2456 H         1 NAD408      0.0000 
     65 H          28.1690  -13.5575   25.3441 H         1 NAD408      0.0000 
     66 H          26.2689  -12.8002   26.6305 H         1 NAD408      0.0000 
     67 H          15.0989  -11.7900   19.1706 H         1 NAD408      0.0000 
     68 H          13.3990  -10.4182   19.3869 H         1 NAD408      0.0000 
     69 H          21.8184  -10.8366   27.7093 H         1 NAD408      0.0000 
     70 H          24.1511   -8.9113   27.6051 H         1 NAD408      0.0000 
@<TRIPOS>BOND
     1    2    1 ar   
     2    3    1 ar   
     3    4    1 1    
     4   23    1 1    
     5    5    4 1    
     6    6    5 1    
     7   45    5 1    
     8   46    5 1    
     9    7    6 1    
    10    8    6 1    
    11   47    6 1    
    12   12    7 1    
    13    9    8 1    
    14   10    8 1    
    15   48    8 1    
    16   67    9 1    
    17   11   10 1    
    18   12   10 1    
    19   49   10 1    
    20   68   11 1    
    21   13   12 1    
    22   50   12 1    
    23   14   13 1    
    24   22   13 1    
    25   15   14 2    
    26   51   14 1    
    27   16   15 1    
    28   17   16 ar   
    29   22   16 ar   
    30   18   17 1    
    31   19   17 ar   
    32   52   18 1    
    33   53   18 1    
    34   20   19 ar   
    35   21   20 ar   
    36   54   20 1    
    37   22   21 ar   
    38   24   23 1    
    39   25   24 ar   
    40   26   24 ar   
    41   27   24 1    
    42   28   27 1    
    43   29   28 1    
    44   55   28 1    
    45   56   28 1    
    46   30   29 1    
    47   31   29 1    
    48   57   29 1    
    49   35   30 1    
    50   32   31 1    
    51   33   31 1    
    52   58   31 1    
    53   69   32 1    
    54   34   33 1    
    55   35   33 1    
    56   59   33 1    
    57   70   34 1    
    58   36   35 1    
    59   60   35 1    
    60   37   36 ar   
    61   44   36 ar   
    62   38   37 ar   
    63   61   37 1    
    64   39   38 1    
    65   42   38 ar   
    66   40   39 2    
    67   41   39 am   
    68   62   41 1    
    69   63   41 1    
    70   43   42 ar   
    71   64   42 1    
    72   44   43 ar   
    73   65   43 1    
    74   66   44 1    
@<TRIPOS>SUBSTRUCTURE
     1 NAD408      1 GROUP   
@<TRIPOS>SET

