#    Name: 1suw_NAP_4_INTS_M
#    Modification time : Tue Mar 25 02:47:44 2014

@<TRIPOS>MOLECULE
1suw_NAP_4_INTS_M
   94     0    12     0     0
SMALL
NO_CHARGES


@<TRIPOS>ATOM
      1 CA         92.8430   48.8465   94.8295 C.3       4 GLC5        0.0000 
      2 CA         94.1760   50.2320   93.9770 C.3      12 GLL5        0.0000 
      3 CA         91.5100   47.4610   95.6820 C.3       8 GLP5        0.0000 
      4 N          91.0155   50.2185   93.5450 N.am      2 SEC2        0.0000 
      5 N          92.1390   51.3050   94.2740 N.am     10 SEL2        0.0000 
      6 N          89.8920   49.1320   92.8160 N.am      6 SEP2        0.0000 
      7 N          91.7405   50.6620   92.7745 N.am      2 SEC2        0.0000 
      8 N          91.3420   50.0190   91.2750 N.am      6 SEP2        0.0000 
      9 CA         94.5545   53.3225   97.2735 C.3       4 GLC5        0.0000 
     10 CA         94.1260   52.0900   95.4810 C.3      12 GLL5        0.0000 
     11 CA         94.9830   54.5550   99.0660 C.3       8 GLP5        0.0000 
     12 CA         93.1515   49.0280   96.5955 C.3       4 GLC5        0.0000 
     13 CA         94.0510   50.7810   96.3380 C.3      12 GLL5        0.0000 
     14 CA         92.2520   47.2750   96.8530 C.3       8 GLP5        0.0000 
     15 N          98.4535   50.7655   98.5210 N.am      2 SEC2        0.0000 
     16 N          97.0310   50.9910   98.4690 N.am     10 SEL2        0.0000 
     17 N          99.8760   50.5400   98.5730 N.am      6 SEP2        0.0000 
     18 CA         95.4280   48.2750  101.8880 C.3       4 GLC5        0.0000 
     19 CA         96.2100   49.8820  100.5730 C.3      12 GLL5        0.0000 
     20 CA         94.6460   46.6680  103.2030 C.3       8 GLP5        0.0000 
     21 O          98.7475   50.1455  101.0760 O.2       1 ALC1        0.0000 
     22 O          97.3070   49.9350  101.3600 O.2       9 ALL1        0.0000 
     23 O         100.1880   50.3560  100.7920 O.2       5 ALP1        0.0000 
     24 N          95.2655   48.5615  102.2140 N.am      2 SEC2        0.0000 
     25 N          95.0740   49.2810  101.1360 N.am     10 SEL2        0.0000 
     26 N          95.4570   47.8420  103.2920 N.am      6 SEP2        0.0000 
     27 CA         92.7165   49.9240  101.7190 C.3       4 GLC5        0.0000 
     28 CA         93.8670   49.1660  100.4070 C.3      12 GLL5        0.0000 
     29 CA         91.5660   50.6820  103.0310 C.3       8 GLP5        0.0000 
     30 CA         94.2565   47.9170  101.8050 C.3       4 GLC5        0.0000 
     31 CA         92.2455   47.8215  100.8250 C.3       4 GLC5        0.0000 
     32 CA         90.6240   46.4770  101.2430 C.3       8 GLP5        0.0000 
     33 NZ         99.1620   53.8285   90.3505 N.4       3 LYC4        0.0000 
     34 NZ         99.5820   52.3210   90.8900 N.4      11 LYL4        0.0000 
     35 NZ         98.9540   56.1750   90.8210 N.4       7 LYP4        0.0000 
     36 N          99.1620   53.8285   90.3505 N.am      2 SEC2        0.0000 
     37 N          99.5820   52.3210   90.8900 N.am     10 SEL2        0.0000 
     38 N          98.7420   55.3360   89.8110 N.am      6 SEP2        0.0000 
     39 N         100.6670   52.9980   91.4650 N.am      2 SEC2        0.0000 
     40 N         101.7520   53.6750   92.0400 N.am      6 SEP2        0.0000 
     41 CA         99.6835   51.4100   95.6085 C.3       4 GLC5        0.0000 
     42 CA         99.5740   49.5900   94.5500 C.3      12 GLL5        0.0000 
     43 CA         99.7930   53.2300   96.6670 C.3       8 GLP5        0.0000 
     44 CA        101.1600   48.9100   97.2960 C.3       4 GLC5        0.0000 
     45 CA        100.5550   48.5970   95.2150 C.3      12 GLL5        0.0000 
     46 CA        101.7650   49.2230   99.3770 C.3       8 GLP5        0.0000 
     47 CA        102.3425   49.6170   95.3270 C.3       4 GLC5        0.0000 
     48 CA        104.1300   50.6370   95.4390 C.3       8 GLP5        0.0000 
     49 N         100.4965   49.8545   97.4845 N.am      2 SEC2        0.0000 
     50 N         101.1170   49.1690   96.3960 N.am     10 SEL2        0.0000 
     51 O         101.4240   47.8065   97.0140 O.2       1 ALC1        0.0000 
     52 O         101.1170   49.1690   96.3960 O.2       9 ALL1        0.0000 
     53 O         101.7310   46.4440   97.6320 O.2       5 ALP1        0.0000 
     54 O         102.1240   48.1280   96.2340 O.2       1 ALC1        0.0000 
     55 O         103.1310   47.0870   96.0720 O.2       5 ALP1        0.0000 
     56 N          98.7805   45.8795   97.1105 N.am      2 SEC2        0.0000 
     57 N          99.5170   47.1080   96.8830 N.am     10 SEL2        0.0000 
     58 N          98.0440   44.6510   97.3380 N.am      6 SEP2        0.0000 
     59 O         100.6240   46.7760   97.2575 O.2       1 ALC1        0.0000 
     60 O          99.5170   47.1080   96.8830 O.2       9 ALL1        0.0000 
     61 CA         95.4675   45.6065   92.5795 C.3       4 GLC5        0.0000 
     62 CA         97.2020   45.5660   93.8020 C.3      12 GLL5        0.0000 
     63 CA         93.7330   45.6470   91.3570 C.3       8 GLP5        0.0000 
     64 O          94.6310   42.7570   94.8870 O.2       1 ALC1        0.0000 
     65 O          95.2870   43.5100   94.0310 O.2       9 ALL1        0.0000 
     66 O          93.9750   42.0040   95.7430 O.2       5 ALP1        0.0000 
     67 CA        100.1765   45.3055   89.8510 C.3       4 GLC5        0.0000 
     68 CA         98.7080   45.8870   91.3740 C.3      12 GLL5        0.0000 
     69 CA        101.6450   44.7240   88.3280 C.3       8 GLP5        0.0000 
     70 N          90.0860   55.0505   97.0265 N.am      2 SEC2        0.0000 
     71 N          91.1040   54.1440   97.1380 N.am     10 SEL2        0.0000 
     72 N          89.0680   55.9570   96.9150 N.am      6 SEP2        0.0000 
     73 N          93.3075   55.7860   97.2140 N.am      2 SEC2        0.0000 
     74 N          92.6910   55.0230   96.3540 N.am     10 SEL2        0.0000 
     75 N          93.9240   56.5490   98.0740 N.am      6 SEP2        0.0000 
     76 N          94.2570   55.4645   96.3235 N.am      2 SEC2        0.0000 
     77 N          95.8230   55.9060   96.2930 N.am      6 SEP2        0.0000 
     78 CA         94.2963   48.8227   92.6420 C.3       4 GLC5        0.0000 
     79 CA         93.6750   47.3960   91.5740 C.3       8 GLP5        0.0000 
     80 CA         95.2305   52.4220   98.9948 C.3       4 GLC5        0.0000 
     81 CA         94.8670   50.2180   98.5820 C.3      12 GLL5        0.0000 
     82 CA         96.4408   48.0365   99.4230 C.3       4 GLC5        0.0000 
     83 CA         96.0890   50.3600   99.2650 C.3      12 GLL5        0.0000 
     84 CA         96.7320   45.9520   98.9270 C.3       8 GLP5        0.0000 
     85 CA        101.6261   49.6262   93.1995 C.3       4 GLC5        0.0000 
     86 CA        103.0720   50.0210   91.8480 C.3       8 GLP5        0.0000 
     87 CA         99.4292   45.5673   95.5228 C.3       4 GLC5        0.0000 
     88 CA         99.7370   47.3360   95.5080 C.3      12 GLL5        0.0000 
     89 CA         99.7710   43.7120   95.8750 C.3       8 GLP5        0.0000 
     90 CA         97.7452   44.3158   94.8935 C.3       4 GLC5        0.0000 
     91 CA         98.3950   43.4910   96.5210 C.3       8 GLP5        0.0000 
     92 CA         96.4620   45.4054   90.8465 C.3       4 GLC5        0.0000 
     93 CA         96.9890   44.7150   92.7300 C.3      12 GLL5        0.0000 
     94 CA         94.8880   45.4770   89.9560 C.3       8 GLP5        0.0000 
@<TRIPOS>BOND
@<TRIPOS>SUBSTRUCTURE
     1 ALC1       21 GROUP        1 X    ALC  0     ROOT ALC X 1
     2 SEC2        4 GROUP        1 X    SEC  0     **** SEC X 2
     3 LYC4       33 GROUP        1 X    LYC  0     **** LYC X 4
     4 GLC5        1 GROUP        1 X    GLC  0     **** GLC X 6
     5 ALP1       23 GROUP        1 Y    ALP  0     ROOT ALP Y 8
     6 SEP2        6 GROUP        1 Y    SEP  0     **** SEP Y 9
     7 LYP4       35 GROUP        1 Y    LYP  0     **** LYP Y 11
     8 GLP5        3 GROUP        1 Y    GLP  0     **** GLP Y 13
     9 ALL1       22 GROUP        1 Z    ALL  0     ROOT ALL Z 15
    10 SEL2        5 GROUP        1 Z    SEL  0     **** SEL Z 16
    11 LYL4       34 GROUP        1 Z    LYL  0     **** LYL Z 18
    12 GLL5        2 GROUP        1 Z    GLL  0     **** GLL Z 20
@<TRIPOS>SET

