#    Name: 1suw_NAP_4_ligand
#    Modification time : Tue Mar 25 02:47:44 2014

@<TRIPOS>MOLECULE
1suw_NAP_4_ligand
   72    76     1     0     0
SMALL
NO_CHARGES


@<TRIPOS>ATOM
      1 PA         96.0480   52.2050   91.6830 P.3       1 NAP3078     0.0000 
      2 O1A        95.5870   52.5080   90.3860 O.co2     1 NAP3078     0.0000 
      3 O2A        97.1760   52.5940   92.5900 O.co2     1 NAP3078     0.0000 
      4 O5B        95.5600   50.7120   92.0720 O.3       1 NAP3078     0.0000 
      5 C5B        95.6590   50.2670   93.4430 C.3       1 NAP3078     0.0000 
      6 C4B        94.1760   50.2320   93.9770 C.3       1 NAP3078     0.0000 
      7 O4B        94.4150   49.7880   95.3710 O.3       1 NAP3078     0.0000 
      8 C3B        93.5370   51.6120   94.1770 C.3       1 NAP3078     0.0000 
      9 O3B        92.1390   51.3050   94.2740 O.3       1 NAP3078     0.0000 
     10 C2B        94.1260   52.0900   95.4810 C.3       1 NAP3078     0.0000 
     11 O2B        93.5450   53.2420   96.1210 O.3       1 NAP3078     0.0000 
     12 C1B        94.0510   50.7810   96.3380 C.3       1 NAP3078     0.0000 
     13 N9A        95.0680   50.7550   97.3620 N.pl3     1 NAP3078     0.0000 
     14 C8A        96.3730   51.2030   97.3510 C.2       1 NAP3078     0.0000 
     15 N7A        97.0310   50.9910   98.4690 N.2       1 NAP3078     0.0000 
     16 C5A        96.0890   50.3600   99.2650 C.ar      1 NAP3078     0.0000 
     17 C6A        96.2100   49.8820  100.5730 C.ar      1 NAP3078     0.0000 
     18 N6A        97.3070   49.9350  101.3600 N.pl3     1 NAP3078     0.0000 
     19 N1A        95.0740   49.2810  101.1360 N.ar      1 NAP3078     0.0000 
     20 C2A        93.8670   49.1660  100.4070 C.ar      1 NAP3078     0.0000 
     21 N3A        93.7270   49.6270   99.1070 N.ar      1 NAP3078     0.0000 
     22 C4A        94.8670   50.2180   98.5820 C.ar      1 NAP3078     0.0000 
     23 O3         97.2130   51.4170   90.8760 O.3       1 NAP3078     0.0000 
     24 PN         98.7900   51.0870   91.0720 P.3       1 NAP3078     0.0000 
     25 O1N        99.5820   52.3210   90.8900 O.co2     1 NAP3078     0.0000 
     26 O2N        99.0770   49.9590   90.1540 O.co2     1 NAP3078     0.0000 
     27 O5D        98.8530   50.7120   92.6050 O.3       1 NAP3078     0.0000 
     28 C5D       100.0370   50.1420   93.2240 C.3       1 NAP3078     0.0000 
     29 C4D        99.5740   49.5900   94.5500 C.3       1 NAP3078     0.0000 
     30 O4D        98.3420   48.8660   94.3390 O.3       1 NAP3078     0.0000 
     31 C3D       100.5550   48.5970   95.2150 C.3       1 NAP3078     0.0000 
     32 O3D       101.1170   49.1690   96.3960 O.3       1 NAP3078     0.0000 
     33 C2D        99.7370   47.3360   95.5080 C.3       1 NAP3078     0.0000 
     34 O2D        99.5170   47.1080   96.8830 O.3       1 NAP3078     0.0000 
     35 C1D        98.4380   47.5090   94.8330 C.3       1 NAP3078     0.0000 
     36 N1N        98.1740   46.5890   93.6800 N.pl3     1 NAP3078     0.0000 
     37 C2N        97.2020   45.5660   93.8020 C.ar      1 NAP3078     0.0000 
     38 C3N        96.9890   44.7150   92.7300 C.ar      1 NAP3078     0.0000 
     39 C7N        95.9430   43.6170   92.9100 C.2       1 NAP3078     0.0000 
     40 O7N        95.7740   42.8620   91.9800 O.2       1 NAP3078     0.0000 
     41 N7N        95.2870   43.5100   94.0310 N.am      1 NAP3078     0.0000 
     42 C4N        97.7390   44.8460   91.4700 C.ar      1 NAP3078     0.0000 
     43 C5N        98.7080   45.8870   91.3740 C.ar      1 NAP3078     0.0000 
     44 C6N        98.9530   46.7810   92.4730 C.ar      1 NAP3078     0.0000 
     45 P2B        92.0090   53.7350   95.9920 P.3       1 NAP3078     0.0000 
     46 O1X        91.1040   54.1440   97.1380 O.co2     1 NAP3078     0.0000 
     47 O2X        91.7440   54.2310   94.6030 O.co2     1 NAP3078     0.0000 
     48 O3X        92.6910   55.0230   96.3540 O.co2     1 NAP3078     0.0000 
     49 H          96.2015   50.9546   94.0602 H         1 NAP3078     0.0000 
     50 H          96.0486   49.2722   93.5252 H         1 NAP3078     0.0000 
     51 H          93.6093   49.5810   93.4726 H         1 NAP3078     0.0000 
     52 H          93.7954   52.2122   93.3877 H         1 NAP3078     0.0000 
     53 H          95.2136   52.2182   95.2993 H         1 NAP3078     0.0000 
     54 H          93.0874   50.6578   96.6778 H         1 NAP3078     0.0000 
     55 H          96.7585   51.6514   96.5368 H         1 NAP3078     0.0000 
     56 H          93.0525   48.7121  100.8792 H         1 NAP3078     0.0000 
     57 H         100.7878   50.8952   93.4005 H         1 NAP3078     0.0000 
     58 H         100.4404   49.3374   92.6307 H         1 NAP3078     0.0000 
     59 H          99.4006   50.4004   95.2415 H         1 NAP3078     0.0000 
     60 H         101.2974   48.3477   94.4791 H         1 NAP3078     0.0000 
     61 H         100.2496   46.5019   95.0360 H         1 NAP3078     0.0000 
     62 H          97.6301   47.3653   95.5703 H         1 NAP3078     0.0000 
     63 H          96.6770   45.4697   94.6676 H         1 NAP3078     0.0000 
     64 H          95.5299   44.1643   94.7471 H         1 NAP3078     0.0000 
     65 H          94.6011   42.7834   94.0718 H         1 NAP3078     0.0000 
     66 H          97.5593   44.2168   90.7213 H         1 NAP3078     0.0000 
     67 H          99.2421   46.0046   90.5088 H         1 NAP3078     0.0000 
     68 H          99.6298   47.5050   92.4126 H         1 NAP3078     0.0000 
     69 H          91.6715   52.1093   93.9074 H         1 NAP3078     0.0000 
     70 H          98.0662   50.1128  100.7339 H         1 NAP3078     0.0000 
     71 H         101.9144   48.6024   96.6036 H         1 NAP3078     0.0000 
     72 H         100.4005   47.2806   97.3185 H         1 NAP3078     0.0000 
@<TRIPOS>BOND
     1    2    1 ar   
     2    3    1 ar   
     3    4    1 1    
     4   23    1 1    
     5    5    4 1    
     6    6    5 1    
     7   49    5 1    
     8   50    5 1    
     9    7    6 1    
    10    8    6 1    
    11   51    6 1    
    12   12    7 1    
    13    9    8 1    
    14   10    8 1    
    15   52    8 1    
    16   69    9 1    
    17   11   10 1    
    18   12   10 1    
    19   53   10 1    
    20   45   11 1    
    21   13   12 1    
    22   54   12 1    
    23   14   13 1    
    24   22   13 1    
    25   15   14 2    
    26   55   14 1    
    27   16   15 1    
    28   17   16 ar   
    29   22   16 ar   
    30   18   17 1    
    31   19   17 ar   
    32   70   18 1    
    33   20   19 ar   
    34   21   20 ar   
    35   56   20 1    
    36   22   21 ar   
    37   24   23 1    
    38   25   24 ar   
    39   26   24 ar   
    40   27   24 1    
    41   28   27 1    
    42   29   28 1    
    43   57   28 1    
    44   58   28 1    
    45   30   29 1    
    46   31   29 1    
    47   59   29 1    
    48   35   30 1    
    49   32   31 1    
    50   33   31 1    
    51   60   31 1    
    52   71   32 1    
    53   34   33 1    
    54   35   33 1    
    55   61   33 1    
    56   72   34 1    
    57   36   35 1    
    58   62   35 1    
    59   37   36 ar   
    60   44   36 ar   
    61   38   37 ar   
    62   63   37 1    
    63   39   38 1    
    64   42   38 ar   
    65   40   39 2    
    66   41   39 am   
    67   64   41 1    
    68   65   41 1    
    69   43   42 ar   
    70   66   42 1    
    71   44   43 ar   
    72   67   43 1    
    73   68   44 1    
    74   46   45 ar   
    75   47   45 ar   
    76   48   45 ar   
@<TRIPOS>SUBSTRUCTURE
     1 NAP3078     1 GROUP   
@<TRIPOS>SET

