#    Name: 2P4S_1_CAVITY_N1_6.mol2
#    Modification time : Tue Mar 11 04:30:37 2014

@<TRIPOS>MOLECULE
2P4S_1_CAVITY_N1_6.mol2
   46     0     5     0     0
SMALL
NO_CHARGES


@<TRIPOS>ATOM
      1 CA         38.8892    6.2369  104.1721 C.3       4 GLY6        0.0000 
      2 CA         39.4701    5.2583  102.3818 C.3       4 GLY6        0.0000 
      3 CA         36.8639    6.1852  103.5432 C.3       4 GLY6        0.0000 
      4 O          34.8386    6.1335  102.9142 O.2       2 ALA2        0.0000 
      5 CA         40.7402    4.9582  105.4716 C.3       4 GLY6        0.0000 
      6 O          39.4371    5.4216  106.0523 O.2       2 ALA2        0.0000 
      7 OG         38.1340    5.8850  106.6329 O.2       1 SER1        0.0000 
      8 CA         40.0180    4.4431  104.2620 C.3       4 GLY6        0.0000 
      9 OG         38.7149    4.9065  104.8427 O.2       1 SER1        0.0000 
     10 OG         37.4118    5.3699  105.4234 O.2       1 SER1        0.0000 
     11 CA         40.5989    3.4645  102.4718 C.3       4 GLY6        0.0000 
     12 DU         39.2958    3.9280  103.0524 H         5 CUB7        0.0000 
     13 CA         37.9927    4.3914  103.6331 C.3       4 GLY6        0.0000 
     14 OG         36.6896    4.8548  104.2138 O.2       1 SER1        0.0000 
     15 OG         35.3865    5.3183  104.7944 O.2       1 SER1        0.0000 
     16 O          39.8767    2.9494  101.2622 O.2       2 ALA2        0.0000 
     17 N          38.5736    3.4128  101.8429 N.2       2 ALA2        0.0000 
     18 N          35.9674    4.3397  103.0042 N.2       2 ALA2        0.0000 
     19 N          34.6643    4.8032  103.5849 N.2       2 ALA2        0.0000 
     20 CZ         40.5659    3.6278  106.1422 C.ar      3 PHE5        0.0000 
     21 CZ         39.2628    4.0912  106.7229 C.ar      3 PHE5        0.0000 
     22 CZ         37.9597    4.5547  107.3036 C.ar      3 PHE5        0.0000 
     23 CZ         39.8437    3.1127  104.9326 C.ar      3 PHE5        0.0000 
     24 DU         38.5406    3.5761  105.5133 H         5 CUB7        0.0000 
     25 OG         37.2375    4.0396  106.0940 O.2       1 SER1        0.0000 
     26 OG         35.9344    4.5030  106.6746 O.2       1 SER1        0.0000 
     27 CZ         40.4246    2.1341  103.1424 C.ar      3 PHE5        0.0000 
     28 CZ         39.1215    2.5976  103.7231 C.ar      3 PHE5        0.0000 
     29 DU         37.8184    3.0610  104.3037 H         5 CUB7        0.0000 
     30 DU         36.5153    3.5245  104.8844 H         5 CUB7        0.0000 
     31 O          35.2122    3.9879  105.4651 O.2       2 ALA2        0.0000 
     32 N          39.7024    1.6190  101.9328 N.2       2 ALA2        0.0000 
     33 N          38.3993    2.0825  102.5135 N.2       2 ALA2        0.0000 
     34 N          37.0962    2.5459  103.0941 N.2       2 ALA2        0.0000 
     35 O          35.7931    3.0094  103.6748 O.2       2 ALA2        0.0000 
     36 O          34.4900    3.4728  104.2555 O.2       2 ALA2        0.0000 
     37 CZ         39.0885    2.7609  107.3935 C.ar      3 PHE5        0.0000 
     38 CZ         39.6694    1.7823  105.6033 C.ar      3 PHE5        0.0000 
     39 CA         38.3663    2.2458  106.1839 C.3       4 GLY6        0.0000 
     40 CA         37.0632    2.7092  106.7646 C.3       4 GLY6        0.0000 
     41 CA         38.9472    1.2672  104.3937 C.3       4 GLY6        0.0000 
     42 CA         37.6441    1.7306  104.9743 C.3       4 GLY6        0.0000 
     43 CA         36.3410    2.1941  105.5550 C.3       4 GLY6        0.0000 
     44 N          39.5281    0.2887  102.6034 N.2       2 ALA2        0.0000 
     45 CA         38.2250    0.7521  103.1841 C.3       4 GLY6        0.0000 
     46 CA         36.9219    1.2155  103.7648 C.3       4 GLY6        0.0000 
@<TRIPOS>BOND
@<TRIPOS>SUBSTRUCTURE
     1 SER1        7 GROUP   
     2 ALA2        4 GROUP   
     3 PHE5       20 GROUP   
     4 GLY6        1 GROUP   
     5 CUB7       12 GROUP   
@<TRIPOS>SET

