#    Name: 2p4s_DIH_1_INTS_M
#    Modification time : Mon Mar 24 18:19:37 2014

@<TRIPOS>MOLECULE
2p4s_DIH_1_INTS_M
   58     0     9     0     0
SMALL
NO_CHARGES


@<TRIPOS>ATOM
      1 O          40.7090    6.1505  107.0455 O.2       1 ALC1        0.0000 
      2 O          40.8270    5.0450  106.3490 O.2       7 ALL1        0.0000 
      3 O          40.5910    7.2560  107.7420 O.2       4 ALP1        0.0000 
      4 CA         41.4135    3.1660  106.3785 C.3       3 GLC5        0.0000 
      5 CA         39.8860    4.0540  106.8070 C.3       9 GLL5        0.0000 
      6 CA         42.9410    2.2780  105.9500 C.3       6 GLP5        0.0000 
      7 CA         40.7225    5.8335  107.7300 C.3       3 GLC5        0.0000 
      8 CA         41.5590    7.6130  108.6530 C.3       6 GLP5        0.0000 
      9 CA         39.9995    3.1715  108.3635 C.3       3 GLC5        0.0000 
     10 CA         40.1130    2.2890  109.9200 C.3       6 GLP5        0.0000 
     11 CA         38.6505    4.3840  108.3795 C.3       3 GLC5        0.0000 
     12 CA         38.5160    4.5440  106.4060 C.3       9 GLL5        0.0000 
     13 CA         38.7850    4.2240  110.3530 C.3       6 GLP5        0.0000 
     14 CA         37.6915    6.7180  104.8175 C.3       3 GLC5        0.0000 
     15 CA         38.4480    4.8610  104.8950 C.3       9 GLL5        0.0000 
     16 CA         36.9350    8.5750  104.7400 C.3       6 GLP5        0.0000 
     17 CA         38.0030    5.9615  102.9970 C.3       3 GLC5        0.0000 
     18 CA         37.5580    7.0620  101.0990 C.3       6 GLP5        0.0000 
     19 CA         39.7660    6.1900  104.0345 C.3       3 GLC5        0.0000 
     20 CA         41.0840    7.5190  103.1740 C.3       6 GLP5        0.0000 
     21 CA         36.3280    2.4965  107.9915 C.3       3 GLC5        0.0000 
     22 CA         37.4800    3.4770  106.6860 C.3       9 GLL5        0.0000 
     23 CA         35.1760    1.5160  109.2970 C.3       6 GLP5        0.0000 
     24 CA         38.1805    3.1730  108.3655 C.3       3 GLC5        0.0000 
     25 CA         38.8810    2.8690  110.0450 C.3       6 GLP5        0.0000 
     26 N          35.9125    4.0105  108.3390 N.am      2 SEC2        0.0000 
     27 N          36.2630    4.1260  107.0600 N.am      8 SEL2        0.0000 
     28 N          35.5620    3.8950  109.6180 N.am      5 SEP2        0.0000 
     29 CA         41.4380    4.4795  102.7005 C.3       3 GLC5        0.0000 
     30 CA         39.6920    3.7860  101.8280 C.3       9 GLL5        0.0000 
     31 CA         43.1840    5.1730  103.5730 C.3       6 GLP5        0.0000 
     32 O          41.7955    3.4880  100.7640 O.2       1 ALC1        0.0000 
     33 O          40.6970    2.9590  101.4280 O.2       7 ALL1        0.0000 
     34 O          42.8940    4.0170  100.1000 O.2       4 ALP1        0.0000 
     35 CA         40.7605    1.5190   99.8115 C.3       3 GLC5        0.0000 
     36 CA         40.3910    1.6770  101.7580 C.3       9 GLL5        0.0000 
     37 CA         41.1300    1.3610   97.8650 C.3       6 GLP5        0.0000 
     38 N          43.2240    1.2080  100.5130 N.am      2 SEC2        0.0000 
     39 N          42.1990    0.2510  100.9440 N.am      8 SEL2        0.0000 
     40 N          44.2490    2.1650  100.0820 N.am      5 SEP2        0.0000 
     41 O          40.9315   -1.9640  101.9120 O.2       1 ALC1        0.0000 
     42 O          40.3700   -0.7130  102.0030 O.2       7 ALL1        0.0000 
     43 O          41.4930   -3.2150  101.8210 O.2       4 ALP1        0.0000 
     44 O          40.1120   -2.2670  102.6140 O.2       1 ALC1        0.0000 
     45 O          39.8540   -3.8210  103.2250 O.2       4 ALP1        0.0000 
     46 CA         37.2557    1.3902  106.4130 C.3       3 GLC5        0.0000 
     47 CA         37.2610    2.8240  105.3340 C.3       9 GLL5        0.0000 
     48 CA         37.1410   -0.3700  106.8160 C.3       6 GLP5        0.0000 
     49 CA         38.2099    5.2936  101.6879 C.3       3 GLC5        0.0000 
     50 CA         37.3790    3.5290  103.0030 C.3       9 GLL5        0.0000 
     51 CA         38.4084    3.4041  100.4464 C.3       3 GLC5        0.0000 
     52 CA         37.9550    3.2830   98.6160 C.3       6 GLP5        0.0000 
     53 CA         38.8588    2.4822  100.3438 C.3       3 GLC5        0.0000 
     54 CA         39.1340    1.6860  102.3850 C.3       9 GLL5        0.0000 
     55 CA         40.9732    1.6473  103.5493 C.3       3 GLC5        0.0000 
     56 CA         42.1840    1.6130  105.0270 C.3       6 GLP5        0.0000 
     57 CA         37.1209    1.2381  101.8156 C.3       3 GLC5        0.0000 
     58 CA         35.6590    0.0010  101.0760 C.3       6 GLP5        0.0000 
@<TRIPOS>BOND
@<TRIPOS>SUBSTRUCTURE
     1 ALC1        1 GROUP        1 X    ALC  0     ROOT ALC X 1
     2 SEC2       26 GROUP        1 X    SEC  0     **** SEC X 2
     3 GLC5        4 GROUP        1 X    GLC  0     **** GLC X 6
     4 ALP1        3 GROUP        1 Y    ALP  0     ROOT ALP Y 8
     5 SEP2       28 GROUP        1 Y    SEP  0     **** SEP Y 9
     6 GLP5        6 GROUP        1 Y    GLP  0     **** GLP Y 13
     7 ALL1        2 GROUP        1 Z    ALL  0     ROOT ALL Z 15
     8 SEL2       27 GROUP        1 Z    SEL  0     **** SEL Z 16
     9 GLL5        5 GROUP        1 Z    GLL  0     **** GLL Z 20
@<TRIPOS>SET

