#    Name: 2p4s_DIH_1_ligand
#    Modification time : Mon Mar 24 18:19:37 2014

@<TRIPOS>MOLECULE
2p4s_DIH_1_ligand
   38    40     1     0     0
SMALL
NO_CHARGES


@<TRIPOS>ATOM
      1 O5'        40.8270    5.0450  106.3490 O.3       1 DIH401      0.0000 
      2 C5'        39.8860    4.0540  106.8070 C.3       1 DIH401      0.0000 
      3 C4'        38.5160    4.5440  106.4060 C.3       1 DIH401      0.0000 
      4 C6'        38.4480    4.8610  104.8950 C.3       1 DIH401      0.0000 
      5 C3'        37.4800    3.4770  106.6860 C.3       1 DIH401      0.0000 
      6 O3'        36.2630    4.1260  107.0600 O.3       1 DIH401      0.0000 
      7 C2'        37.2610    2.8240  105.3340 C.3       1 DIH401      0.0000 
      8 N1'        37.3440    3.9900  104.3990 N.4       1 DIH401      0.0000 
      9 C10        37.3790    3.5290  103.0030 C.3       1 DIH401      0.0000 
     10 C9         38.6840    3.0000  102.4480 C.2       1 DIH401      0.0000 
     11 C8         39.6920    3.7860  101.8280 C.2       1 DIH401      0.0000 
     12 N7         40.6970    2.9590  101.4280 N.pl3     1 DIH401      0.0000 
     13 C5         40.3910    1.6770  101.7580 C.3       1 DIH401      0.0000 
     14 C6         41.0470    0.3570  101.5360 C.2       1 DIH401      0.0000 
     15 O6         42.1990    0.2510  100.9440 O.2       1 DIH401      0.0000 
     16 N1         40.3700   -0.7130  102.0030 N.am      1 DIH401      0.0000 
     17 C2         39.1630   -0.6330  102.6410 C.2       1 DIH401      0.0000 
     18 N3         38.5270    0.5340  102.8280 N.2       1 DIH401      0.0000 
     19 C4         39.1340    1.6860  102.3850 C.3       1 DIH401      0.0000 
     20 H          39.9153    3.9468  107.8847 H         1 DIH401      0.0000 
     21 H          40.0623    3.0929  106.3390 H         1 DIH401      0.0000 
     22 H          38.2620    5.4283  106.9489 H         1 DIH401      0.0000 
     23 H          39.3741    4.5946  104.4472 H         1 DIH401      0.0000 
     24 H          38.2077    5.8886  104.7712 H         1 DIH401      0.0000 
     25 H          37.8355    2.7932  107.3629 H         1 DIH401      0.0000 
     26 H          36.2958    2.3885  105.3001 H         1 DIH401      0.0000 
     27 H          38.0423    2.1354  105.1394 H         1 DIH401      0.0000 
     28 H          36.3840    4.5558  104.5631 H         1 DIH401      0.0000 
     29 H          37.0303    4.3637  102.3241 H         1 DIH401      0.0000 
     30 H          36.5928    2.7299  102.8526 H         1 DIH401      0.0000 
     31 H          39.6415    4.7290  101.7260 H         1 DIH401      0.0000 
     32 H          41.5064    3.2430  100.9769 H         1 DIH401      0.0000 
     33 H          40.9979    1.8144  103.0448 H         1 DIH401      0.0000 
     34 H          40.7952   -1.6814  101.8703 H         1 DIH401      0.0000 
     35 H          38.7252   -1.5264  102.9947 H         1 DIH401      0.0000 
     36 H          39.8148    1.8740  103.6477 H         1 DIH401      0.0000 
     37 H          40.8057    6.0221  106.5612 H         1 DIH401      0.0000 
     38 H          36.3847    5.0806  106.7880 H         1 DIH401      0.0000 
@<TRIPOS>BOND
     1    2    1 1    
     2   37    1 1    
     3    3    2 1    
     4   20    2 1    
     5   21    2 1    
     6    4    3 1    
     7    5    3 1    
     8   22    3 1    
     9    8    4 1    
    10   23    4 1    
    11   24    4 1    
    12    6    5 1    
    13    7    5 1    
    14   25    5 1    
    15   38    6 1    
    16    8    7 1    
    17   26    7 1    
    18   27    7 1    
    19    9    8 1    
    20   28    8 1    
    21   10    9 1    
    22   29    9 1    
    23   30    9 1    
    24   11   10 2    
    25   19   10 1    
    26   12   11 1    
    27   31   11 1    
    28   13   12 1    
    29   32   12 1    
    30   14   13 1    
    31   19   13 1    
    32   33   13 1    
    33   15   14 2    
    34   16   14 am   
    35   17   16 1    
    36   34   16 1    
    37   18   17 2    
    38   35   17 1    
    39   19   18 1    
    40   36   19 1    
@<TRIPOS>SUBSTRUCTURE
     1 DIH401      1 GROUP   
@<TRIPOS>SET

