#    Name: 3fxv_643_1_INTS_M
#    Modification time : Tue Mar 25 06:44:06 2014

@<TRIPOS>MOLECULE
3fxv_643_1_INTS_M
  104     0     9     0     0
SMALL
NO_CHARGES


@<TRIPOS>ATOM
      1 CA        -11.4555   57.3270   -2.1010 C.3       3 GLC5        0.0000 
      2 CA        -12.0690   57.2600   -3.9210 C.3       9 GLL5        0.0000 
      3 CA        -10.8420   57.3940   -0.2810 C.3       6 GLP5        0.0000 
      4 CA         -8.9215   53.0825   -2.6255 C.3       3 GLC5        0.0000 
      5 CA        -10.4500   54.0450   -3.6530 C.3       9 GLL5        0.0000 
      6 CA         -7.3930   52.1200   -1.5980 C.3       6 GLP5        0.0000 
      7 CA        -10.2685   53.5590   -2.0425 C.3       3 GLC5        0.0000 
      8 CA        -10.0870   53.0730   -0.4320 C.3       6 GLP5        0.0000 
      9 CA        -12.3640   53.5125   -4.2335 C.3       3 GLC5        0.0000 
     10 CA        -14.2780   52.9800   -4.8140 C.3       6 GLP5        0.0000 
     11 CA        -11.1350   52.0855   -3.5470 C.3       3 GLC5        0.0000 
     12 CA        -11.8200   50.1260   -3.4410 C.3       6 GLP5        0.0000 
     13 CA        -16.1615   55.4575    2.3105 C.3       3 GLC5        0.0000 
     14 CA        -14.2810   54.6930    1.6650 C.3       9 GLL5        0.0000 
     15 CA        -18.0420   56.2220    2.9560 C.3       6 GLP5        0.0000 
     16 CA        -15.2990   58.2240   -0.2765 C.3       3 GLC5        0.0000 
     17 CA        -14.2580   56.3550   -0.9200 C.3       9 GLL5        0.0000 
     18 CA        -16.3400   60.0930    0.3670 C.3       6 GLP5        0.0000 
     19 CA         -9.9165   57.5050   -3.4175 C.3       3 GLC5        0.0000 
     20 CA        -11.1730   56.3210   -4.3100 C.3       9 GLL5        0.0000 
     21 CA         -8.6600   58.6890   -2.5250 C.3       6 GLP5        0.0000 
     22 NZ        -13.7285   60.0315   -5.3090 N.4       2 LYC4        0.0000 
     23 NZ        -13.0770   59.3370   -4.1340 N.4       8 LYL4        0.0000 
     24 NZ        -15.6060   60.3850   -6.1190 N.4       5 LYP4        0.0000 
     25 N         -14.4415   59.4845   -4.5850 N.am      1 SEC2        0.0000 
     26 N         -13.0770   59.3370   -4.1340 N.am      7 SEL2        0.0000 
     27 N         -15.8060   59.6320   -5.0360 N.am      4 SEP2        0.0000 
     28 N         -13.7285   60.0315   -5.3090 N.am      1 SEC2        0.0000 
     29 N         -14.3800   60.7260   -6.4840 N.am      4 SEP2        0.0000 
     30 CA        -16.1215   54.8630    3.6565 C.3       3 GLC5        0.0000 
     31 CA        -14.6610   53.8640    2.6900 C.3       9 GLL5        0.0000 
     32 CA        -17.5820   55.8620    4.6230 C.3       6 GLP5        0.0000 
     33 CA        -12.9290   53.4850    2.6015 C.3       3 GLC5        0.0000 
     34 CA        -14.9040   52.5310    2.4390 C.3       9 GLL5        0.0000 
     35 CA        -10.9540   54.4390    2.7640 C.3       6 GLP5        0.0000 
     36 CA        -18.3860   51.4150   -0.2895 C.3       3 GLC5        0.0000 
     37 CA        -18.3490   50.1140    1.4020 C.3       9 GLL5        0.0000 
     38 CA        -18.4230   52.7160   -1.9810 C.3       6 GLP5        0.0000 
     39 CA        -18.9125   48.3500    1.3260 C.3       3 GLC5        0.0000 
     40 CA        -19.4760   46.5860    1.2500 C.3       6 GLP5        0.0000 
     41 N         -19.1130   50.4250   -0.1390 N.am      1 SEC2        0.0000 
     42 N         -19.1730   51.1120    1.1990 N.am      7 SEL2        0.0000 
     43 N         -19.0530   49.7380   -1.4770 N.am      4 SEP2        0.0000 
     44 CA        -20.7005   53.0380    1.0660 C.3       3 GLC5        0.0000 
     45 CA        -19.5080   51.9460    2.1510 C.3       9 GLL5        0.0000 
     46 CA        -21.8930   54.1300   -0.0190 C.3       6 GLP5        0.0000 
     47 CA        -18.9655   52.3310    0.0850 C.3       3 GLC5        0.0000 
     48 CA        -15.1290   48.1040    3.8255 C.3       3 GLC5        0.0000 
     49 CA        -16.7270   48.5950    2.9310 C.3       9 GLL5        0.0000 
     50 CA        -13.5310   47.6130    4.7200 C.3       6 GLP5        0.0000 
     51 CA        -16.2445   47.0405    2.0385 C.3       3 GLC5        0.0000 
     52 CA        -15.7620   45.4860    1.1460 C.3       6 GLP5        0.0000 
     53 CA        -18.4190   47.8050    2.9230 C.3       3 GLC5        0.0000 
     54 CA        -20.1110   47.0150    2.9150 C.3       6 GLP5        0.0000 
     55 CA        -14.8480   53.9800    9.6175 C.3       3 GLC5        0.0000 
     56 CA        -15.6650   52.1500    8.7210 C.3       9 GLL5        0.0000 
     57 CA        -14.0310   55.8100   10.5140 C.3       6 GLP5        0.0000 
     58 CA        -16.7495   53.5640    9.4310 C.3       3 GLC5        0.0000 
     59 CA        -17.8340   54.9780   10.1410 C.3       6 GLP5        0.0000 
     60 CA        -14.4230   48.5585    9.4650 C.3       3 GLC5        0.0000 
     61 CA        -14.5620   49.9520    8.3870 C.3       9 GLL5        0.0000 
     62 CA        -14.2840   47.1650   10.5430 C.3       6 GLP5        0.0000 
     63 CA        -15.0220   53.8040    5.6485 C.3       3 GLC5        0.0000 
     64 CA        -15.5070   52.2150    4.7210 C.3       9 GLL5        0.0000 
     65 CA        -14.5370   55.3930    6.5760 C.3       6 GLP5        0.0000 
     66 CA        -16.5445   54.0385    4.6720 C.3       3 GLC5        0.0000 
     67 CA        -21.0150   52.2130    4.1900 C.3       3 GLC5        0.0000 
     68 CA        -19.4440   52.8740    4.6820 C.3       9 GLL5        0.0000 
     69 CA        -22.5860   51.5520    3.6980 C.3       6 GLP5        0.0000 
     70 CA        -16.3370   52.5050   -1.6135 C.3       3 GLC5        0.0000 
     71 CA        -14.2510   52.2940   -1.2460 C.3       9 GLL5        0.0000 
     72 CA        -14.2645   52.6370   -3.0300 C.3       3 GLC5        0.0000 
     73 CA        -13.0355   51.2100   -2.3435 C.3       3 GLC5        0.0000 
     74 CA        -12.0670   57.1578   -1.3153 C.3       3 GLC5        0.0000 
     75 CA        -12.7840   56.6970   -2.7670 C.3       9 GLL5        0.0000 
     76 CA        -15.5285   57.6208   -2.3225 C.3       3 GLC5        0.0000 
     77 CA        -13.8000   57.1460   -1.9320 C.3       9 GLL5        0.0000 
     78 CA        -17.0280   58.4910   -3.2190 C.3       6 GLP5        0.0000 
     79 CA        -11.6540   56.2135   -1.1678 C.3       3 GLC5        0.0000 
     80 CA        -12.2310   55.4300   -2.5690 C.3       9 GLL5        0.0000 
     81 CA        -13.3720   54.0065   -3.4343 C.3       3 GLC5        0.0000 
     82 CA        -12.7010   54.6360   -1.5400 C.3       9 GLL5        0.0000 
     83 CA        -14.1695   55.2857    3.8603 C.3       3 GLC5        0.0000 
     84 CA        -13.8680   56.2930    5.5430 C.3       6 GLP5        0.0000 
     85 CA        -12.2035   52.8233   -0.4927 C.3       3 GLC5        0.0000 
     86 CA        -14.3890   52.8530    0.1390 C.3       9 GLL5        0.0000 
     87 CA        -19.0383   48.6710    3.0395 C.3       3 GLC5        0.0000 
     88 CA        -17.8000   49.9020    2.6430 C.3       9 GLL5        0.0000 
     89 CA        -18.4020   54.0995    4.3360 C.3       3 GLC5        0.0000 
     90 CA        -19.0000   51.8000    3.4160 C.3       9 GLL5        0.0000 
     91 CA        -12.4148   56.5575   -0.5503 C.3       3 GLC5        0.0000 
     92 CA        -13.7170   55.0870   -0.7190 C.3       9 GLL5        0.0000 
     93 CA        -11.5892   54.0665   -0.9094 C.3       3 GLC5        0.0000 
     94 CA        -13.1724   56.4099   -5.2095 C.3       3 GLC5        0.0000 
     95 CA        -14.5450   56.1700   -6.5920 C.3       6 GLP5        0.0000 
     96 CA        -12.6335   54.3384    2.0206 C.3       3 GLC5        0.0000 
     97 CA        -14.1550   54.1970    0.3770 C.3       9 GLL5        0.0000 
     98 CA        -13.5745   50.1223    6.7975 C.3       3 GLC5        0.0000 
     99 CA        -15.1060   51.1890    7.6790 C.3       9 GLL5        0.0000 
    100 CA        -12.3150   49.6740    5.5620 C.3       6 GLP5        0.0000 
    101 CA        -13.0295   51.7572    8.2355 C.3       3 GLC5        0.0000 
    102 CA        -11.2250   52.9440    8.4380 C.3       6 GLP5        0.0000 
    103 CA        -14.9612   53.5312    7.3880 C.3       3 GLC5        0.0000 
    104 CA        -14.1055   50.6459    5.4869 C.3       3 GLC5        0.0000 
@<TRIPOS>BOND
@<TRIPOS>SUBSTRUCTURE
     1 SEC2       25 GROUP        1 X    SEC  0     ROOT SEC X 2
     2 LYC4       22 GROUP        1 X    LYC  0     **** LYC X 4
     3 GLC5        1 GROUP        1 X    GLC  0     **** GLC X 6
     4 SEP2       27 GROUP        1 Y    SEP  0     ROOT SEP Y 9
     5 LYP4       24 GROUP        1 Y    LYP  0     **** LYP Y 11
     6 GLP5        3 GROUP        1 Y    GLP  0     **** GLP Y 13
     7 SEL2       26 GROUP        1 Z    SEL  0     ROOT SEL Z 16
     8 LYL4       23 GROUP        1 Z    LYL  0     **** LYL Z 18
     9 GLL5        2 GROUP        1 Z    GLL  0     **** GLL Z 20
@<TRIPOS>SET

