#    Name: 3fxv_643_1_ligand
#    Modification time : Tue Mar 25 06:44:06 2014

@<TRIPOS>MOLECULE
3fxv_643_1_ligand
   62    66     1     0     0
SMALL
NO_CHARGES


@<TRIPOS>ATOM
      1 C4        -13.8000   57.1460   -1.9320 C.ar      1 6431        0.0000 
      2 C5        -12.0690   57.2600   -3.9210 C.2       1 6431        0.0000 
      3 C6        -12.7840   56.6970   -2.7670 C.ar      1 6431        0.0000 
      4 C7        -12.2310   55.4300   -2.5690 C.ar      1 6431        0.0000 
      5 C10       -10.4500   54.0450   -3.6530 C.3       1 6431        0.0000 
      6 C15       -14.2810   54.6930    1.6650 C.ar      1 6431        0.0000 
      7 C17       -14.3890   52.8530    0.1390 C.ar      1 6431        0.0000 
      8 C21       -18.1310   50.7520    3.6850 C.ar      1 6431        0.0000 
      9 C22       -17.8000   49.9020    2.6430 C.ar      1 6431        0.0000 
     10 C26       -19.0000   51.8000    3.4160 C.ar      1 6431        0.0000 
     11 C28       -16.3670   51.2430    5.4760 C.2       1 6431        0.0000 
     12 C1        -14.2580   56.3550   -0.9200 C.ar      1 6431        0.0000 
     13 C2        -13.7170   55.0870   -0.7190 C.ar      1 6431        0.0000 
     14 C3        -12.7010   54.6360   -1.5400 C.ar      1 6431        0.0000 
     15 N8        -11.2650   55.2440   -3.5190 N.pl3     1 6431        0.0000 
     16 C9        -11.1730   56.3210   -4.3100 C.2       1 6431        0.0000 
     17 C11       -12.2520   58.5680   -4.5470 C.2       1 6431        0.0000 
     18 O12       -13.0770   59.3370   -4.1340 O.co2     1 6431        0.0000 
     19 O13       -11.4730   58.9180   -5.5730 O.co2     1 6431        0.0000 
     20 C14       -14.6610   53.8640    2.6900 C.ar      1 6431        0.0000 
     21 C16       -14.1550   54.1970    0.3770 C.ar      1 6431        0.0000 
     22 C18       -14.7710   52.0280    1.1650 C.ar      1 6431        0.0000 
     23 C19       -14.9040   52.5310    2.4390 C.ar      1 6431        0.0000 
     24 O20       -15.2740   51.6930    3.4240 O.3       1 6431        0.0000 
     25 C23       -18.3490   50.1140    1.4020 C.ar      1 6431        0.0000 
     26 N24       -19.1730   51.1120    1.1990 N.ar      1 6431        0.0000 
     27 C25       -19.5080   51.9460    2.1510 C.ar      1 6431        0.0000 
     28 C27       -17.5400   50.5840    5.0280 C.2       1 6431        0.0000 
     29 C29       -16.2030   50.7980    6.7290 C.2       1 6431        0.0000 
     30 O30       -17.2070   49.9600    6.9600 O.3       1 6431        0.0000 
     31 N31       -17.9390   49.8480    6.0170 N.2       1 6431        0.0000 
     32 CL32      -16.7270   48.5950    2.9310 Cl        1 6431        0.0000 
     33 C33       -15.1060   51.1890    7.6790 C.3       1 6431        0.0000 
     34 C34       -15.6650   52.1500    8.7210 C.3       1 6431        0.0000 
     35 C35       -14.5620   49.9520    8.3870 C.3       1 6431        0.0000 
     36 C36       -15.5070   52.2150    4.7210 C.3       1 6431        0.0000 
     37 CL37      -19.4440   52.8740    4.6820 Cl        1 6431        0.0000 
     38 C38       -14.2510   52.2940   -1.2460 C.3       1 6431        0.0000 
     39 H         -14.2031   58.0862   -2.0883 H         1 6431        0.0000 
     40 H         -14.0866   55.6917    1.8475 H         1 6431        0.0000 
     41 H         -15.0102   56.6860   -0.2915 H         1 6431        0.0000 
     42 H         -12.2906   53.7005   -1.3838 H         1 6431        0.0000 
     43 H         -10.5543   56.4229   -5.0589 H         1 6431        0.0000 
     44 H         -14.7654   54.2351    3.6475 H         1 6431        0.0000 
     45 H         -14.9597   51.0277    0.9841 H         1 6431        0.0000 
     46 H         -18.0884   49.4552    0.6284 H         1 6431        0.0000 
     47 H         -20.1685   52.7413    1.9723 H         1 6431        0.0000 
     48 H         -14.3155   51.6687    7.1493 H         1 6431        0.0000 
     49 H         -14.5740   52.3535    5.2765 H         1 6431        0.0000 
     50 H         -16.0262   53.1780    4.6838 H         1 6431        0.0000 
     51 H          -9.8077   54.1159   -4.4162 H         1 6431        0.0000 
     52 H          -9.9094   53.8695   -2.8302 H         1 6431        0.0000 
     53 H         -11.0092   53.2320   -3.8152 H         1 6431        0.0000 
     54 H         -14.9645   52.4385    9.3738 H         1 6431        0.0000 
     55 H         -16.0340   52.9793    8.3013 H         1 6431        0.0000 
     56 H         -16.4052   51.7348    9.2499 H         1 6431        0.0000 
     57 H         -14.1898   49.2870    7.7395 H         1 6431        0.0000 
     58 H         -13.8275   50.1823    9.0253 H         1 6431        0.0000 
     59 H         -15.2714   49.4832    8.9133 H         1 6431        0.0000 
     60 H         -13.3260   52.4167   -1.6056 H         1 6431        0.0000 
     61 H         -14.4481   51.3140   -1.2723 H         1 6431        0.0000 
     62 H         -14.8764   52.7361   -1.8890 H         1 6431        0.0000 
@<TRIPOS>BOND
     1    3    1 ar   
     2   12    1 ar   
     3   39    1 1    
     4    3    2 1    
     5   16    2 2    
     6   17    2 1    
     7    4    3 ar   
     8   14    4 ar   
     9   15    4 1    
    10   15    5 1    
    11   51    5 1    
    12   52    5 1    
    13   53    5 1    
    14   20    6 ar   
    15   21    6 ar   
    16   40    6 1    
    17   21    7 ar   
    18   22    7 ar   
    19   38    7 1    
    20    9    8 ar   
    21   10    8 ar   
    22   28    8 1    
    23   25    9 ar   
    24   32    9 1    
    25   27   10 ar   
    26   37   10 1    
    27   28   11 1    
    28   29   11 2    
    29   36   11 1    
    30   13   12 ar   
    31   41   12 1    
    32   14   13 ar   
    33   21   13 1    
    34   42   14 1    
    35   16   15 1    
    36   43   16 1    
    37   18   17 ar   
    38   19   17 ar   
    39   23   20 ar   
    40   44   20 1    
    41   23   22 ar   
    42   45   22 1    
    43   24   23 1    
    44   36   24 1    
    45   26   25 ar   
    46   46   25 1    
    47   27   26 ar   
    48   47   27 1    
    49   31   28 2    
    50   30   29 1    
    51   33   29 1    
    52   31   30 1    
    53   34   33 1    
    54   35   33 1    
    55   48   33 1    
    56   54   34 1    
    57   55   34 1    
    58   56   34 1    
    59   57   35 1    
    60   58   35 1    
    61   59   35 1    
    62   49   36 1    
    63   50   36 1    
    64   60   38 1    
    65   61   38 1    
    66   62   38 1    
@<TRIPOS>SUBSTRUCTURE
     1 6431        1 GROUP   
@<TRIPOS>SET

