#    Name: 1vsv_NAD_3_INTS_M
#    Modification time : Tue Mar 25 08:16:51 2014

@<TRIPOS>MOLECULE
1vsv_NAD_3_INTS_M
   69     0     9     0     0
SMALL
NO_CHARGES


@<TRIPOS>ATOM
      1 N          33.8655   95.3410   12.0410 N.am      2 SEC2        0.0000 
      2 N          35.1250   94.7030   11.6740 N.am      8 SEL2        0.0000 
      3 N          32.6060   95.9790   12.4080 N.am      5 SEP2        0.0000 
      4 CA         31.1610   90.3330    9.4920 C.3       3 GLC5        0.0000 
      5 CA         33.1300   90.6700   10.0220 C.3       9 GLL5        0.0000 
      6 CA         29.1920   89.9960    8.9620 C.3       6 GLP5        0.0000 
      7 CA         32.5530   90.5235    7.8915 C.3       3 GLC5        0.0000 
      8 CA         31.9760   90.3770    5.7610 C.3       6 GLP5        0.0000 
      9 O          31.4810   89.3830   12.3190 O.2       1 ALC1        0.0000 
     10 O          32.7030   90.2230   12.4060 O.2       7 ALL1        0.0000 
     11 O          30.2590   88.5430   12.2320 O.2       4 ALP1        0.0000 
     12 O          32.1820   87.0325   12.3780 O.2       1 ALC1        0.0000 
     13 O          33.5740   87.5790   11.9640 O.2       7 ALL1        0.0000 
     14 O          30.7900   86.4860   12.7920 O.2       4 ALP1        0.0000 
     15 O          31.9165   88.0610   12.0980 O.2       1 ALC1        0.0000 
     16 CA         30.9790   89.2345    9.3870 C.3       3 GLC5        0.0000 
     17 CA         32.7660   88.4730    9.8120 C.3       9 GLL5        0.0000 
     18 O          30.7785   82.4040    5.5970 O.2       1 ALC1        0.0000 
     19 O          31.2800   83.8300    6.2320 O.2       7 ALL1        0.0000 
     20 O          30.2770   80.9780    4.9620 O.2       4 ALP1        0.0000 
     21 CA         29.2635   88.1065    8.5605 C.3       3 GLC5        0.0000 
     22 CA         29.3350   86.2170    8.1590 C.3       9 GLL5        0.0000 
     23 CA         28.7480   85.9780    9.9425 C.3       3 GLC5        0.0000 
     24 CA         28.1610   85.7390   11.7260 C.3       6 GLP5        0.0000 
     25 CA         29.4535   84.9060    9.2565 C.3       3 GLC5        0.0000 
     26 CA         29.5720   83.5950   10.3540 C.3       6 GLP5        0.0000 
     27 CA         29.7805   87.3945    6.9415 C.3       3 GLC5        0.0000 
     28 CA         30.2260   88.5720    5.7240 C.3       6 GLP5        0.0000 
     29 CA         30.4195   88.3455    8.7125 C.3       3 GLC5        0.0000 
     30 CA         31.6470   86.6950    8.4630 C.3       9 GLL5        0.0000 
     31 N          32.3820   96.9440   10.0590 N.am      2 SEC2        0.0000 
     32 N          33.4280   96.2130    9.6000 N.am      8 SEL2        0.0000 
     33 N          31.3360   97.6750   10.5180 N.am      5 SEP2        0.0000 
     34 N          31.8940   96.4810    4.3765 N.am      2 SEC2        0.0000 
     35 N          33.3120   96.9350    4.9450 N.am      8 SEL2        0.0000 
     36 N          30.4760   96.0270    3.8080 N.am      5 SEP2        0.0000 
     37 CA         33.1675   98.1505    6.0410 C.3       3 GLC5        0.0000 
     38 CA         34.3400   97.5990    4.2230 C.3       9 GLL5        0.0000 
     39 CA         31.9950   98.7020    7.8590 C.3       6 GLP5        0.0000 
     40 CA         34.0650   97.1475    2.2395 C.3       3 GLC5        0.0000 
     41 CA         33.7900   96.6960    0.2560 C.3       6 GLP5        0.0000 
     42 CA         33.4610   98.9970    6.9060 C.3       3 GLC5        0.0000 
     43 CA         34.9270   99.2920    5.9530 C.3       9 GLL5        0.0000 
     44 N          36.2695  103.5545    8.9245 N.am      2 SEC2        0.0000 
     45 N          35.6160  102.1910    8.2220 N.am      8 SEL2        0.0000 
     46 N          36.9230  104.9180    9.6270 N.am      5 SEP2        0.0000 
     47 CA         35.4255  103.0590    4.8720 C.3       3 GLC5        0.0000 
     48 CA         34.4680  101.6580    5.6070 C.3       9 GLL5        0.0000 
     49 CA         36.3830  104.4600    4.1370 C.3       6 GLP5        0.0000 
     50 CA         34.2845  103.1880    4.1825 C.3       3 GLC5        0.0000 
     51 CA         33.9150  101.3720    4.3340 C.3       9 GLL5        0.0000 
     52 CA         34.6540  105.0040    4.0310 C.3       6 GLP5        0.0000 
     53 CA         32.2960  102.8605    4.7275 C.3       3 GLC5        0.0000 
     54 CA         30.6770  104.3490    5.1210 C.3       6 GLP5        0.0000 
     55 CA         32.7104   92.1489   11.4249 C.3       3 GLC5        0.0000 
     56 CA         34.0710   91.7590    9.4970 C.3       9 GLL5        0.0000 
     57 CA         31.8160   93.6900   12.3040 C.3       6 GLP5        0.0000 
     58 CA         30.5755   84.7816    9.1251 C.3       3 GLC5        0.0000 
     59 CA         32.0230   85.6330    7.6200 C.3       9 GLL5        0.0000 
     60 CA         30.9025   87.2701    6.8101 C.3       3 GLC5        0.0000 
     61 CA         30.9990   84.8500    7.0390 C.3       9 GLL5        0.0000 
     62 CA         32.8195   97.0652    6.8805 C.3       3 GLC5        0.0000 
     63 CA         33.6390   95.2920    6.6550 C.3       9 GLL5        0.0000 
     64 CA         34.4325   93.5875    4.0613 C.3       3 GLC5        0.0000 
     65 CA         33.6490   95.5650    5.1490 C.3       9 GLL5        0.0000 
     66 CA         34.5370   91.7080    3.3090 C.3       6 GLP5        0.0000 
     67 CA         33.1094  100.7265    6.6504 C.3       3 GLC5        0.0000 
     68 CA         34.9810  100.6140    6.4280 C.3       9 GLL5        0.0000 
     69 CA         31.8990  100.1990    8.1250 C.3       6 GLP5        0.0000 
@<TRIPOS>BOND
@<TRIPOS>SUBSTRUCTURE
     1 ALC1        9 GROUP        1 X    ALC  0     ROOT ALC X 1
     2 SEC2        1 GROUP        1 X    SEC  0     **** SEC X 2
     3 GLC5        4 GROUP        1 X    GLC  0     **** GLC X 6
     4 ALP1       11 GROUP        1 Y    ALP  0     ROOT ALP Y 8
     5 SEP2        3 GROUP        1 Y    SEP  0     **** SEP Y 9
     6 GLP5        6 GROUP        1 Y    GLP  0     **** GLP Y 13
     7 ALL1       10 GROUP        1 Z    ALL  0     ROOT ALL Z 15
     8 SEL2        2 GROUP        1 Z    SEL  0     **** SEL Z 16
     9 GLL5        5 GROUP        1 Z    GLL  0     **** GLL Z 20
@<TRIPOS>SET

