#    Name: 1vsv_NAD_3_ligand
#    Modification time : Tue Mar 25 08:16:51 2014

@<TRIPOS>MOLECULE
1vsv_NAD_3_ligand
   70    74     1     0     0
SMALL
NO_CHARGES


@<TRIPOS>ATOM
      1 PA         35.3840   93.7970   10.5500 P.3       1 NAD340      0.0000 
      2 O1A        35.1250   94.7030   11.6740 O.co2     1 NAD340      0.0000 
      3 O2A        36.7000   93.0420   10.5850 O.co2     1 NAD340      0.0000 
      4 O5B        34.1380   92.7880   10.4600 O.3       1 NAD340      0.0000 
      5 C5B        34.0710   91.7590    9.4970 C.3       1 NAD340      0.0000 
      6 C4B        33.1300   90.6700   10.0220 C.3       1 NAD340      0.0000 
      7 O4B        33.0810   89.6260    9.0700 O.3       1 NAD340      0.0000 
      8 C3B        33.6090   90.0010   11.3320 C.3       1 NAD340      0.0000 
      9 O3B        32.7030   90.2230   12.4060 O.3       1 NAD340      0.0000 
     10 C2B        33.7690   88.5310   10.9340 C.3       1 NAD340      0.0000 
     11 O2B        33.5740   87.5790   11.9640 O.3       1 NAD340      0.0000 
     12 C1B        32.7660   88.4730    9.8120 C.3       1 NAD340      0.0000 
     13 N9A        32.7850   87.3000    8.8990 N.pl3     1 NAD340      0.0000 
     14 C8A        33.8510   86.6270    8.3390 C.2       1 NAD340      0.0000 
     15 N7A        33.3740   85.6200    7.5680 N.2       1 NAD340      0.0000 
     16 C5A        32.0230   85.6330    7.6200 C.ar      1 NAD340      0.0000 
     17 C6A        30.9990   84.8500    7.0390 C.ar      1 NAD340      0.0000 
     18 N6A        31.2800   83.8300    6.2320 N.pl3     1 NAD340      0.0000 
     19 N1A        29.6600   85.1510    7.3150 N.ar      1 NAD340      0.0000 
     20 C2A        29.3350   86.2170    8.1590 C.ar      1 NAD340      0.0000 
     21 N3A        30.3340   86.9900    8.7340 N.ar      1 NAD340      0.0000 
     22 C4A        31.6470   86.6950    8.4630 C.ar      1 NAD340      0.0000 
     23 O3         35.3410   94.6170    9.1620 O.3       1 NAD340      0.0000 
     24 PN         34.7330   96.0860    8.9120 P.3       1 NAD340      0.0000 
     25 O1N        33.4280   96.2130    9.6000 O.co2     1 NAD340      0.0000 
     26 O2N        35.7780   97.0780    9.2780 O.co2     1 NAD340      0.0000 
     27 O5D        34.5660   96.1310    7.3160 O.3       1 NAD340      0.0000 
     28 C5D        33.6390   95.2920    6.6550 C.3       1 NAD340      0.0000 
     29 C4D        33.6490   95.5650    5.1490 C.3       1 NAD340      0.0000 
     30 O4D        33.3120   96.9350    4.9450 O.3       1 NAD340      0.0000 
     31 C3D        35.0070   95.3690    4.4780 C.3       1 NAD340      0.0000 
     32 O3D        34.8140   94.8200    3.1820 O.3       1 NAD340      0.0000 
     33 C2D        35.6040   96.7530    4.4490 C.3       1 NAD340      0.0000 
     34 O2D        36.6350   96.9050    3.4990 O.3       1 NAD340      0.0000 
     35 C1D        34.3400   97.5990    4.2230 C.3       1 NAD340      0.0000 
     36 N1N        34.3780   99.0250    4.6950 N.pl3     1 NAD340      0.0000 
     37 C2N        34.9270   99.2920    5.9530 C.ar      1 NAD340      0.0000 
     38 C3N        34.9810  100.6140    6.4280 C.ar      1 NAD340      0.0000 
     39 C7N        35.5760  100.8880    7.7860 C.2       1 NAD340      0.0000 
     40 O7N        35.6160  102.1910    8.2220 O.2       1 NAD340      0.0000 
     41 N7N        36.0600   99.9430    8.5730 N.am      1 NAD340      0.0000 
     42 C4N        34.4680  101.6580    5.6070 C.ar      1 NAD340      0.0000 
     43 C5N        33.9150  101.3720    4.3340 C.ar      1 NAD340      0.0000 
     44 C6N        33.8760  100.0420    3.8890 C.ar      1 NAD340      0.0000 
     45 H          35.0425   91.2944    9.3155 H         1 NAD340      0.0000 
     46 H          33.6706   92.1071    8.5425 H         1 NAD340      0.0000 
     47 H          32.1594   91.0825   10.1900 H         1 NAD340      0.0000 
     48 H          34.6014   90.3896   11.5216 H         1 NAD340      0.0000 
     49 H          34.7537   88.4648   10.4577 H         1 NAD340      0.0000 
     50 H          31.7734   88.6010   10.2421 H         1 NAD340      0.0000 
     51 H          34.7755   86.8472    8.4811 H         1 NAD340      0.0000 
     52 H          32.2485   83.6805    6.0327 H         1 NAD340      0.0000 
     53 H          30.4974   83.3050    5.8976 H         1 NAD340      0.0000 
     54 H          28.3444   86.4269    8.3530 H         1 NAD340      0.0000 
     55 H          32.6098   95.4513    7.0113 H         1 NAD340      0.0000 
     56 H          33.8716   94.2257    6.7975 H         1 NAD340      0.0000 
     57 H          32.9305   94.9297    4.6678 H         1 NAD340      0.0000 
     58 H          35.5931   94.7518    5.1186 H         1 NAD340      0.0000 
     59 H          35.9209   96.9641    5.4747 H         1 NAD340      0.0000 
     60 H          34.1036   97.5703    3.1641 H         1 NAD340      0.0000 
     61 H          35.2900   98.5281    6.5299 H         1 NAD340      0.0000 
     62 H          35.9877   99.0060    8.2313 H         1 NAD340      0.0000 
     63 H          36.4546  100.2508    9.4388 H         1 NAD340      0.0000 
     64 H          34.5003  102.6243    5.9424 H         1 NAD340      0.0000 
     65 H          33.5531  102.1247    3.7559 H         1 NAD340      0.0000 
     66 H          33.4767   99.8250    2.9695 H         1 NAD340      0.0000 
     67 H          31.9184   89.6353   12.2083 H         1 NAD340      0.0000 
     68 H          32.5853   87.4330   11.9975 H         1 NAD340      0.0000 
     69 H          35.3463   95.4058    2.5709 H         1 NAD340      0.0000 
     70 H          37.4622   96.5863    3.9618 H         1 NAD340      0.0000 
@<TRIPOS>BOND
     1    2    1 ar   
     2    3    1 ar   
     3    4    1 1    
     4   23    1 1    
     5    5    4 1    
     6    6    5 1    
     7   45    5 1    
     8   46    5 1    
     9    7    6 1    
    10    8    6 1    
    11   47    6 1    
    12   12    7 1    
    13    9    8 1    
    14   10    8 1    
    15   48    8 1    
    16   67    9 1    
    17   11   10 1    
    18   12   10 1    
    19   49   10 1    
    20   68   11 1    
    21   13   12 1    
    22   50   12 1    
    23   14   13 1    
    24   22   13 1    
    25   15   14 2    
    26   51   14 1    
    27   16   15 1    
    28   17   16 ar   
    29   22   16 ar   
    30   18   17 1    
    31   19   17 ar   
    32   52   18 1    
    33   53   18 1    
    34   20   19 ar   
    35   21   20 ar   
    36   54   20 1    
    37   22   21 ar   
    38   24   23 1    
    39   25   24 ar   
    40   26   24 ar   
    41   27   24 1    
    42   28   27 1    
    43   29   28 1    
    44   55   28 1    
    45   56   28 1    
    46   30   29 1    
    47   31   29 1    
    48   57   29 1    
    49   35   30 1    
    50   32   31 1    
    51   33   31 1    
    52   58   31 1    
    53   69   32 1    
    54   34   33 1    
    55   35   33 1    
    56   59   33 1    
    57   70   34 1    
    58   36   35 1    
    59   60   35 1    
    60   37   36 ar   
    61   44   36 ar   
    62   38   37 ar   
    63   61   37 1    
    64   39   38 1    
    65   42   38 ar   
    66   40   39 2    
    67   41   39 am   
    68   62   41 1    
    69   63   41 1    
    70   43   42 ar   
    71   64   42 1    
    72   44   43 ar   
    73   65   43 1    
    74   66   44 1    
@<TRIPOS>SUBSTRUCTURE
     1 NAD340      1 GROUP   
@<TRIPOS>SET

