#    Name: 1b8y_IN7_1_INTS_M
#    Modification time : Mon Mar 24 19:28:18 2014

@<TRIPOS>MOLECULE
1b8y_IN7_1_INTS_M
   71     0    12     0     0
SMALL
NO_CHARGES


@<TRIPOS>ATOM
      1 CA         17.5915    9.6210   21.4860 C.3       4 GLC5        0.0000 
      2 CA         16.4080    8.4840   20.1980 C.3      12 GLL5        0.0000 
      3 CA         18.7750   10.7580   22.7740 C.3       8 GLP5        0.0000 
      4 CA         17.7535    7.1495   22.3260 C.3       4 GLC5        0.0000 
      5 CA         15.9000    7.6090   21.1620 C.3      12 GLL5        0.0000 
      6 CA         19.6070    6.6900   23.4900 C.3       8 GLP5        0.0000 
      7 CA         16.2165    9.2685   22.5235 C.3       4 GLC5        0.0000 
      8 CA         16.5330   10.9280   23.8850 C.3       8 GLP5        0.0000 
      9 CA         14.4150    8.2845   18.7295 C.3       4 GLC5        0.0000 
     10 CA         15.9040    6.8600   18.4390 C.3      12 GLL5        0.0000 
     11 CA         12.9260    9.7090   19.0200 C.3       8 GLP5        0.0000 
     12 CA         14.8490    5.7815   16.8720 C.3       4 GLC5        0.0000 
     13 CA         13.7940    4.7030   15.3050 C.3       8 GLP5        0.0000 
     14 CA         17.6200    6.1205   19.4980 C.3       4 GLC5        0.0000 
     15 CA         15.3990    5.9670   19.4060 C.3      12 GLL5        0.0000 
     16 CA         19.8410    6.2740   19.5900 C.3       8 GLP5        0.0000 
     17 N          12.3220    8.4525   22.0855 N.am      2 SEC2        0.0000 
     18 N          11.8280    7.3580   21.4890 N.am     10 SEL2        0.0000 
     19 N          12.8160    9.5470   22.6820 N.am      6 SEP2        0.0000 
     20 CA         19.5150   12.4175   18.3995 C.3       4 GLC5        0.0000 
     21 CA         18.6300   10.8780   17.5890 C.3      12 GLL5        0.0000 
     22 CA         20.4000   13.9570   19.2100 C.3       8 GLP5        0.0000 
     23 CA         17.3275   11.4655   20.1980 C.3       4 GLC5        0.0000 
     24 CA         17.4540   10.3170   18.3620 C.3      12 GLL5        0.0000 
     25 CA         17.2010   12.6140   22.0340 C.3       8 GLP5        0.0000 
     26 CA         15.8250   11.1610   18.5990 C.3       4 GLC5        0.0000 
     27 CA         14.1960   12.0050   18.8360 C.3       8 GLP5        0.0000 
     28 CA         15.2155    9.7265   17.3970 C.3       4 GLC5        0.0000 
     29 CA         16.8520    8.7250   16.4730 C.3      12 GLL5        0.0000 
     30 CA         13.5790   10.7280   18.3210 C.3       8 GLP5        0.0000 
     31 CA         22.6375   13.3380   12.8790 C.3       4 GLC5        0.0000 
     32 CA         20.6670   13.0040   13.2980 C.3      12 GLL5        0.0000 
     33 CA         24.6080   13.6720   12.4600 C.3       8 GLP5        0.0000 
     34 CA         21.1135   14.0905   15.8880 C.3       4 GLC5        0.0000 
     35 CA         21.2510   12.7380   14.5490 C.3      12 GLL5        0.0000 
     36 CA         20.9760   15.4430   17.2270 C.3       8 GLP5        0.0000 
     37 CA         22.9965   13.6090   14.1480 C.3       4 GLC5        0.0000 
     38 CA         24.7420   14.4800   13.7470 C.3       8 GLP5        0.0000 
     39 CA         21.6165   12.8845   16.8110 C.3       4 GLC5        0.0000 
     40 CA         20.5460   11.9450   15.4800 C.3      12 GLL5        0.0000 
     41 CA         22.6870   13.8240   18.1420 C.3       8 GLP5        0.0000 
     42 CA         17.6300   12.8355   15.4160 C.3       4 GLC5        0.0000 
     43 CA         19.2700   11.4320   15.1510 C.3      12 GLL5        0.0000 
     44 CA         15.9900   14.2390   15.6810 C.3       8 GLP5        0.0000 
     45 N          16.1315    5.2165   24.5115 N.am      2 SEC2        0.0000 
     46 N          15.7680    5.6020   23.2110 N.am     10 SEL2        0.0000 
     47 N          16.4950    4.8310   25.8120 N.am      6 SEP2        0.0000 
     48 O          13.0155    6.0325   23.9105 O.2       1 ALC1        0.0000 
     49 O          13.4270    5.4730   22.6580 O.2       9 ALL1        0.0000 
     50 O          12.6040    6.5920   25.1630 O.2       5 ALP1        0.0000 
     51 Zn         12.2070    6.4315   20.7095 Zn        3 ZIC7        0.0000 
     52 Zn         13.4270    5.4730   22.6580 Zn       11 ZIL7        0.0000 
     53 Zn         10.9870    7.3900   18.7610 Zn        7 ZIP7        0.0000 
     54 Zn         11.2510    6.6030   19.3380 Zn        3 ZIC7        0.0000 
     55 Zn         11.5150    5.8160   19.9150 Zn       11 ZIL7        0.0000 
     56 CA         17.9228    6.8673   18.3425 C.3       4 GLC5        0.0000 
     57 CA         16.4370    8.1110   18.8350 C.3      12 GLL5        0.0000 
     58 CA         19.6750    6.2490   18.0480 C.3       8 GLP5        0.0000 
     59 CA         17.9975    7.1602   20.1350 C.3       4 GLC5        0.0000 
     60 CA         14.5436    8.8311   19.6796 C.3       4 GLC5        0.0000 
     61 CA         18.5523    7.6132   17.0460 C.3       4 GLC5        0.0000 
     62 CA         19.6990    8.8347   14.8003 C.3       4 GLC5        0.0000 
     63 CA         18.0070    9.2300   15.6150 C.3      12 GLL5        0.0000 
     64 CA         21.1030    7.7790   13.7400 C.3       8 GLP5        0.0000 
     65 CA         16.5247    5.1993   17.5077 C.3       4 GLC5        0.0000 
     66 CA         17.3980    3.9850   16.0930 C.3       8 GLP5        0.0000 
     67 CA         19.2195    9.6288   19.1013 C.3       4 GLC5        0.0000 
     68 CA         20.3970    8.6600   20.2270 C.3       8 GLP5        0.0000 
     69 CA         17.0800   12.4923   13.2695 C.3       4 GLC5        0.0000 
     70 CA         18.6770   11.7290   13.9010 C.3      12 GLL5        0.0000 
     71 CA         15.1280   12.8640   13.1060 C.3       8 GLP5        0.0000 
@<TRIPOS>BOND
@<TRIPOS>SUBSTRUCTURE
     1 ALC1       48 GROUP        1 X    ALC  0     ROOT ALC X 1
     2 SEC2       17 GROUP        1 X    SEC  0     **** SEC X 2
     3 ZIC7       51 GROUP        1 X    ZIC  0     **** ZIC X 5
     4 GLC5        1 GROUP        1 X    GLC  0     **** GLC X 6
     5 ALP1       50 GROUP        1 Y    ALP  0     ROOT ALP Y 8
     6 SEP2       19 GROUP        1 Y    SEP  0     **** SEP Y 9
     7 ZIP7       53 GROUP        1 Y    ZIP  0     **** ZIP Y 12
     8 GLP5        3 GROUP        1 Y    GLP  0     **** GLP Y 13
     9 ALL1       49 GROUP        1 Z    ALL  0     ROOT ALL Z 15
    10 SEL2       18 GROUP        1 Z    SEL  0     **** SEL Z 16
    11 ZIL7       52 GROUP        1 Z    ZIL  0     **** ZIL Z 19
    12 GLL5        2 GROUP        1 Z    GLL  0     **** GLL Z 20
@<TRIPOS>SET

