#    Name: 1b8y_IN7_1_ligand
#    Modification time : Mon Mar 24 19:28:18 2014

@<TRIPOS>MOLECULE
1b8y_IN7_1_ligand
   48    50     1     0     0
SMALL
NO_CHARGES


@<TRIPOS>ATOM
      1 C1         16.4370    8.1110   18.8350 C.ar      1 IN7502      0.0000 
      2 C2         16.4080    8.4840   20.1980 C.ar      1 IN7502      0.0000 
      3 C3         15.9000    7.6090   21.1620 C.ar      1 IN7502      0.0000 
      4 C7         18.0070    9.2300   15.6150 C.3       1 IN7502      0.0000 
      5 C6         15.9040    6.8600   18.4390 C.ar      1 IN7502      0.0000 
      6 O2         15.0640    3.8730   21.5820 O.2       1 IN7502      0.0000 
      7 C4         15.4570    6.3390   20.7640 C.ar      1 IN7502      0.0000 
      8 C5         15.3990    5.9670   19.4060 C.ar      1 IN7502      0.0000 
      9 O3         11.8280    7.3580   21.4890 O.co2     1 IN7502      0.0000 
     10 S          15.0200    5.2200   22.0640 S.o2      1 IN7502      0.0000 
     11 C11        18.5830   10.5510   16.1060 C.3       1 IN7502      0.0000 
     12 C13        18.6300   10.8780   17.5890 C.3       1 IN7502      0.0000 
     13 C15        17.4540   10.3170   18.3620 C.3       1 IN7502      0.0000 
     14 N1         16.9670    8.9940   17.9170 N.4       1 IN7502      0.0000 
     15 C18        16.8520    8.7250   16.4730 C.3       1 IN7502      0.0000 
     16 C10        20.6670   13.0040   13.2980 C.ar      1 IN7502      0.0000 
     17 C12        21.2510   12.7380   14.5490 C.ar      1 IN7502      0.0000 
     18 C14        20.5460   11.9450   15.4800 C.ar      1 IN7502      0.0000 
     19 C16        19.2700   11.4320   15.1510 C.ar      1 IN7502      0.0000 
     20 C17        18.6770   11.7290   13.9010 C.ar      1 IN7502      0.0000 
     21 C19        19.3870   12.5120   12.9650 C.ar      1 IN7502      0.0000 
     22 O1         15.7680    5.6020   23.2110 O.2       1 IN7502      0.0000 
     23 N2         13.4270    5.4730   22.6580 N.pl3     1 IN7502      0.0000 
     24 C8         12.2390    5.0450   21.9600 C.3       1 IN7502      0.0000 
     25 C9         11.8140    6.1060   21.0180 C.2       1 IN7502      0.0000 
     26 O4         11.5150    5.8160   19.9150 O.co2     1 IN7502      0.0000 
     27 H          16.7645    9.4063   20.4749 H         1 IN7502      0.0000 
     28 H          15.8511    7.8873   22.1406 H         1 IN7502      0.0000 
     29 H          18.8034    8.4720   15.6047 H         1 IN7502      0.0000 
     30 H          17.6570    9.3527   14.5799 H         1 IN7502      0.0000 
     31 H          15.8867    6.6067   17.4491 H         1 IN7502      0.0000 
     32 H          15.0030    5.0772   19.1303 H         1 IN7502      0.0000 
     33 H          17.3621   11.2102   15.9395 H         1 IN7502      0.0000 
     34 H          18.6563   11.9720   17.7143 H         1 IN7502      0.0000 
     35 H          19.5650   10.4806   18.0143 H         1 IN7502      0.0000 
     36 H          16.6203   11.0588   18.3152 H         1 IN7502      0.0000 
     37 H          17.7373   10.2688   19.4413 H         1 IN7502      0.0000 
     38 H          18.2432    8.4415   17.9784 H         1 IN7502      0.0000 
     39 H          16.7490    7.6276   16.2978 H         1 IN7502      0.0000 
     40 H          15.9094    9.1724   16.0769 H         1 IN7502      0.0000 
     41 H          21.1835   13.5708   12.6072 H         1 IN7502      0.0000 
     42 H          22.1668   13.1099   14.7819 H         1 IN7502      0.0000 
     43 H          20.9570   11.7409   16.3925 H         1 IN7502      0.0000 
     44 H          17.7477   11.3809   13.6802 H         1 IN7502      0.0000 
     45 H          18.9781   12.7200   12.0562 H         1 IN7502      0.0000 
     46 H          13.4394    5.9489   23.5375 H         1 IN7502      0.0000 
     47 H          11.4244    4.8437   22.6673 H         1 IN7502      0.0000 
     48 H          12.4296    4.1208   21.3996 H         1 IN7502      0.0000 
@<TRIPOS>BOND
     1    2    1 ar   
     2    5    1 ar   
     3   14    1 1    
     4    3    2 ar   
     5   27    2 1    
     6    7    3 ar   
     7   28    3 1    
     8   11    4 1    
     9   15    4 1    
    10   29    4 1    
    11   30    4 1    
    12    8    5 ar   
    13   31    5 1    
    14   10    6 2    
    15    8    7 ar   
    16   10    7 1    
    17   32    8 1    
    18   25    9 ar   
    19   22   10 2    
    20   23   10 1    
    21   12   11 1    
    22   19   11 1    
    23   33   11 1    
    24   13   12 1    
    25   34   12 1    
    26   35   12 1    
    27   14   13 1    
    28   36   13 1    
    29   37   13 1    
    30   15   14 1    
    31   38   14 1    
    32   39   15 1    
    33   40   15 1    
    34   17   16 ar   
    35   21   16 ar   
    36   41   16 1    
    37   18   17 ar   
    38   42   17 1    
    39   19   18 ar   
    40   43   18 1    
    41   20   19 ar   
    42   21   20 ar   
    43   44   20 1    
    44   45   21 1    
    45   24   23 1    
    46   46   23 1    
    47   25   24 1    
    48   47   24 1    
    49   48   24 1    
    50   26   25 ar   
@<TRIPOS>SUBSTRUCTURE
     1 IN7502      1 GROUP   
@<TRIPOS>SET

