#    Name: 3tof_076_1_INTS_M
#    Modification time : Mon Mar 24 20:27:39 2014

@<TRIPOS>MOLECULE
3tof_076_1_INTS_M
   83     0     9     0     0
SMALL
NO_CHARGES


@<TRIPOS>ATOM
      1 N          18.0600   34.5455   20.0100 N.am      2 SEC2        0.0000 
      2 N          18.8090   35.0980   18.9620 N.am      8 SEL2        0.0000 
      3 N          17.3110   33.9930   21.0580 N.am      5 SEP2        0.0000 
      4 CA         19.8930   38.8340   14.0185 C.3       3 GLC5        0.0000 
      5 CA         21.4460   38.9530   15.4270 C.3       9 GLL5        0.0000 
      6 CA         18.3400   38.7150   12.6100 C.3       6 GLP5        0.0000 
      7 CA         21.1385   37.4450   13.9595 C.3       3 GLC5        0.0000 
      8 CA         20.8310   35.9370   12.4920 C.3       6 GLP5        0.0000 
      9 O          18.9215   36.1455   15.4125 O.2       1 ALC1        0.0000 
     10 O          18.9300   35.3170   16.6770 O.2       7 ALL1        0.0000 
     11 O          18.9130   36.9740   14.1480 O.2       4 ALP1        0.0000 
     12 CA         18.0585   32.9415   18.1450 C.3       3 GLC5        0.0000 
     13 CA         18.2760   34.0040   16.4070 C.3       9 GLL5        0.0000 
     14 CA         17.8410   31.8790   19.8830 C.3       6 GLP5        0.0000 
     15 CA         16.5410   31.9325   17.3180 C.3       3 GLC5        0.0000 
     16 CA         16.4000   32.6740   15.3790 C.3       9 GLL5        0.0000 
     17 CA         16.6820   31.1910   19.2570 C.3       6 GLP5        0.0000 
     18 CA         14.3040   33.0430   15.5150 C.3       3 GLC5        0.0000 
     19 CA         12.2080   33.4120   15.6510 C.3       6 GLP5        0.0000 
     20 CA         15.6195   31.1445   14.7330 C.3       3 GLC5        0.0000 
     21 CA         14.8390   29.6150   14.0870 C.3       6 GLP5        0.0000 
     22 CA         16.0935   32.9550   13.3035 C.3       3 GLC5        0.0000 
     23 CA         15.7870   33.2360   11.2280 C.3       6 GLP5        0.0000 
     24 CA         16.2845   33.0095   17.9945 C.3       3 GLC5        0.0000 
     25 CA         15.8870   34.8280   16.7320 C.3       9 GLL5        0.0000 
     26 CA         14.3445   35.2440   18.2070 C.3       3 GLC5        0.0000 
     27 CA         12.8020   35.6600   19.6820 C.3       6 GLP5        0.0000 
     28 CA         14.0475   34.1200   16.1915 C.3       3 GLC5        0.0000 
     29 CA         14.5710   35.4640   15.2815 C.3       3 GLC5        0.0000 
     30 CA         13.2550   36.1000   13.8310 C.3       6 GLP5        0.0000 
     31 CA         19.8175   26.8725   15.4030 C.3       3 GLC5        0.0000 
     32 CA         19.5390   28.4420   13.9730 C.3       9 GLL5        0.0000 
     33 CA         20.0960   25.3030   16.8330 C.3       6 GLP5        0.0000 
     34 N          21.3790   28.6405   17.6170 N.am      2 SEC2        0.0000 
     35 N          20.5950   29.4480   16.9590 N.am      8 SEL2        0.0000 
     36 N          22.1630   27.8330   18.2750 N.am      5 SEP2        0.0000 
     37 O          19.3275   28.9950   17.0885 O.2       1 ALC1        0.0000 
     38 O          20.5950   29.4480   16.9590 O.2       7 ALL1        0.0000 
     39 O          18.0600   28.5420   17.2180 O.2       4 ALP1        0.0000 
     40 CA         24.3835   36.3645   13.9320 C.3       3 GLC5        0.0000 
     41 CA         23.6660   35.0090   14.8450 C.3       9 GLL5        0.0000 
     42 CA         25.1010   37.7200   13.0190 C.3       6 GLP5        0.0000 
     43 CA         24.5410   37.1210   15.0465 C.3       3 GLC5        0.0000 
     44 CA         23.4670   35.8810   15.9130 C.3       9 GLL5        0.0000 
     45 CA         25.6150   38.3610   14.1800 C.3       6 GLP5        0.0000 
     46 CA         23.4245   33.2730   18.9425 C.3       3 GLC5        0.0000 
     47 CA         22.6570   34.0270   17.2990 C.3       9 GLL5        0.0000 
     48 CA         24.1920   32.5190   20.5860 C.3       6 GLP5        0.0000 
     49 O          20.2760   32.2010   17.8485 O.2       1 ALC1        0.0000 
     50 O          20.0260   32.2600   16.2980 O.2       7 ALL1        0.0000 
     51 O          20.5260   32.1420   19.3990 O.2       4 ALP1        0.0000 
     52 CA         24.3957   39.2175   15.5335 C.3       3 GLC5        0.0000 
     53 CA         23.0690   39.8410   17.5420 C.3       9 GLL5        0.0000 
     54 CA         23.7885   38.8812   14.7417 C.3       3 GLC5        0.0000 
     55 CA         22.4780   39.8500   15.1800 C.3       9 GLL5        0.0000 
     56 CA         16.3854   25.6743   10.1292 C.3       3 GLC5        0.0000 
     57 CA         18.0150   27.0030    9.5510 C.3       9 GLL5        0.0000 
     58 CA         14.6370   24.7660    9.9020 C.3       6 GLP5        0.0000 
     59 CA         19.4132   29.6445    9.7477 C.3       3 GLC5        0.0000 
     60 CA         17.8980   28.3320    9.9660 C.3       9 GLL5        0.0000 
     61 CA         20.9140   30.7730    8.8590 C.3       6 GLP5        0.0000 
     62 CA         17.8147   30.5430   10.1562 C.3       3 GLC5        0.0000 
     63 CA         17.7170   32.5700    9.6760 C.3       6 GLP5        0.0000 
     64 CA         16.6129   28.6999    9.1914 C.3       3 GLC5        0.0000 
     65 CA         17.9270   28.7000   11.3070 C.3       9 GLL5        0.0000 
     66 CA         15.2840   29.2160    7.8500 C.3       6 GLP5        0.0000 
     67 CA         17.5260   25.9710   13.8789 C.3       3 GLC5        0.0000 
     68 CA         18.2020   28.0340   13.7100 C.3       9 GLL5        0.0000 
     69 CA         16.8430   24.4220   14.8840 C.3       6 GLP5        0.0000 
     70 CA         16.4793   28.8629   13.4139 C.3       3 GLC5        0.0000 
     71 CA         24.5053   34.1830   16.5318 C.3       3 GLC5        0.0000 
     72 CA         22.8350   33.1830   16.2320 C.3       9 GLL5        0.0000 
     73 CA         25.9250   34.9400   17.4510 C.3       6 GLP5        0.0000 
     74 CA         24.3805   33.7660   13.0410 C.3       3 GLC5        0.0000 
     75 CA         25.2600   33.1930   11.1630 C.3       6 GLP5        0.0000 
     76 CA         24.7125   33.0080   15.2020 C.3       3 GLC5        0.0000 
     77 CA         23.3360   33.6690   14.9930 C.3       9 GLL5        0.0000 
     78 CA         25.9240   31.6770   15.4850 C.3       6 GLP5        0.0000 
     79 CA         24.7458   35.1925   16.4150 C.3       3 GLC5        0.0000 
     80 CA         22.1575   35.5235   13.9540 C.3       3 GLC5        0.0000 
     81 CA         24.3675   34.8277   17.3343 C.3       3 GLC5        0.0000 
     82 CA         22.9630   35.4040   17.1360 C.3       9 GLL5        0.0000 
     83 CA         24.2861   32.4603   16.1560 C.3       3 GLC5        0.0000 
@<TRIPOS>BOND
@<TRIPOS>SUBSTRUCTURE
     1 ALC1        9 GROUP        1 X    ALC  0     ROOT ALC X 1
     2 SEC2        1 GROUP        1 X    SEC  0     **** SEC X 2
     3 GLC5        4 GROUP        1 X    GLC  0     **** GLC X 6
     4 ALP1       11 GROUP        1 Y    ALP  0     ROOT ALP Y 8
     5 SEP2        3 GROUP        1 Y    SEP  0     **** SEP Y 9
     6 GLP5        6 GROUP        1 Y    GLP  0     **** GLP Y 13
     7 ALL1       10 GROUP        1 Z    ALL  0     ROOT ALL Z 15
     8 SEL2        2 GROUP        1 Z    SEL  0     **** SEL Z 16
     9 GLL5        5 GROUP        1 Z    GLL  0     **** GLL Z 20
@<TRIPOS>SET

