#    Name: 3tof_076_1_ligand
#    Modification time : Mon Mar 24 20:27:39 2014

@<TRIPOS>MOLECULE
3tof_076_1_ligand
   74    77     1     0     0
SMALL
NO_CHARGES


@<TRIPOS>ATOM
      1 C1         19.1620   35.7270   17.9610 C.2       1 076100      0.0000 
      2 O1         18.8090   35.0980   18.9620 O.2       1 076100      0.0000 
      3 C2         19.9070   37.0270   18.2630 C.3       1 076100      0.0000 
      4 O2         20.1900   37.5990   16.9230 O.3       1 076100      0.0000 
      5 C3         21.2170   38.4900   16.7330 C.ar      1 076100      0.0000 
      6 C4         22.0180   38.9230   17.8040 C.ar      1 076100      0.0000 
      7 C5         23.0690   39.8410   17.5420 C.ar      1 076100      0.0000 
      8 C6         23.2840   40.3070   16.2320 C.ar      1 076100      0.0000 
      9 C7         22.4780   39.8500   15.1800 C.ar      1 076100      0.0000 
     10 C8         21.4460   38.9530   15.4270 C.ar      1 076100      0.0000 
     11 N1         18.9300   35.3170   16.6770 N.am      1 076100      0.0000 
     12 C9         18.2760   34.0040   16.4070 C.3       1 076100      0.0000 
     13 C13        19.3410   33.1680   15.5810 C.2       1 076100      0.0000 
     14 O3         19.5330   33.3340   14.3590 O.2       1 076100      0.0000 
     15 C10        16.8790   34.1330   15.7560 C.3       1 076100      0.0000 
     16 C11        16.4000   32.6740   15.3790 C.3       1 076100      0.0000 
     17 C12        15.8870   34.8280   16.7320 C.3       1 076100      0.0000 
     18 C27        18.2850   26.3370   11.8390 C.ar      1 076100      0.0000 
     19 C28        18.2200   25.9870   10.4850 C.ar      1 076100      0.0000 
     20 C29        18.0150   27.0030    9.5510 C.ar      1 076100      0.0000 
     21 C30        17.8980   28.3320    9.9660 C.ar      1 076100      0.0000 
     22 C31        17.9270   28.7000   11.3070 C.ar      1 076100      0.0000 
     23 C26        18.1470   27.6750   12.2360 C.ar      1 076100      0.0000 
     24 C25        18.2020   28.0340   13.7100 C.3       1 076100      0.0000 
     25 C24        19.5390   28.4420   13.9730 C.3       1 076100      0.0000 
     26 O5         19.8570   29.7100   13.3520 O.3       1 076100      0.0000 
     27 C23        19.6120   29.6900   14.7940 C.3       1 076100      0.0000 
     28 C22        20.8590   29.9050   15.5960 C.3       1 076100      0.0000 
     29 O4         20.5950   29.4480   16.9590 O.3       1 076100      0.0000 
     30 C14        21.1510   31.4230   15.6570 C.3       1 076100      0.0000 
     31 C15        22.4440   31.7370   16.4780 C.3       1 076100      0.0000 
     32 C16        22.8350   33.1830   16.2320 C.ar      1 076100      0.0000 
     33 C17        23.3360   33.6690   14.9930 C.ar      1 076100      0.0000 
     34 C18        23.6660   35.0090   14.8450 C.ar      1 076100      0.0000 
     35 C19        23.4670   35.8810   15.9130 C.ar      1 076100      0.0000 
     36 C20        22.9630   35.4040   17.1360 C.ar      1 076100      0.0000 
     37 C21        22.6570   34.0270   17.2990 C.ar      1 076100      0.0000 
     38 N2         20.0260   32.2600   16.2980 N.am      1 076100      0.0000 
     39 H          20.8120   36.7989   18.7785 H         1 076100      0.0000 
     40 H          19.2705   37.6715   18.8254 H         1 076100      0.0000 
     41 H          21.8540   38.5908   18.7454 H         1 076100      0.0000 
     42 H          23.6646   40.1590   18.3069 H         1 076100      0.0000 
     43 H          24.0327   40.9826   16.0486 H         1 076100      0.0000 
     44 H          22.6557   40.1833   14.2234 H         1 076100      0.0000 
     45 H          20.8481   38.6252   14.6606 H         1 076100      0.0000 
     46 H          19.1860   35.8742   15.8610 H         1 076100      0.0000 
     47 H          18.1731   33.4787   17.3703 H         1 076100      0.0000 
     48 H          16.9649   34.6979   14.8602 H         1 076100      0.0000 
     49 H          18.4351   25.6082   12.5488 H         1 076100      0.0000 
     50 H          18.3194   25.0218   10.1936 H         1 076100      0.0000 
     51 H          17.9494   26.7730    8.5499 H         1 076100      0.0000 
     52 H          17.7847   29.0745    9.2405 H         1 076100      0.0000 
     53 H          17.7973   29.6511   11.5993 H         1 076100      0.0000 
     54 H          17.9225   27.1571   14.2830 H         1 076100      0.0000 
     55 H          17.4889   28.8301   13.8917 H         1 076100      0.0000 
     56 H          20.3148   27.9474   14.1111 H         1 076100      0.0000 
     57 H          18.7472   29.9984   14.9668 H         1 076100      0.0000 
     58 H          21.6729   29.4109   15.1661 H         1 076100      0.0000 
     59 H          21.3193   31.8007   14.6538 H         1 076100      0.0000 
     60 H          23.2272   31.0770   16.1456 H         1 076100      0.0000 
     61 H          22.2311   31.5805   17.5219 H         1 076100      0.0000 
     62 H          23.4489   33.0124   14.2119 H         1 076100      0.0000 
     63 H          24.0512   35.3547   13.9625 H         1 076100      0.0000 
     64 H          23.6881   36.8798   15.8123 H         1 076100      0.0000 
     65 H          22.8136   36.0484   17.9172 H         1 076100      0.0000 
     66 H          22.3141   33.6948   18.1972 H         1 076100      0.0000 
     67 H          19.8630   32.0588   17.2872 H         1 076100      0.0000 
     68 H          17.0273   32.2311   14.7384 H         1 076100      0.0000 
     69 H          16.3381   32.0838   16.1839 H         1 076100      0.0000 
     70 H          15.4972   32.6790   14.9491 H         1 076100      0.0000 
     71 H          15.7782   34.3113   17.5812 H         1 076100      0.0000 
     72 H          16.1955   35.7451   16.9844 H         1 076100      0.0000 
     73 H          14.9768   34.9253   16.3295 H         1 076100      0.0000 
     74 H          19.5993   29.4658   17.0495 H         1 076100      0.0000 
@<TRIPOS>BOND
     1    2    1 2    
     2    3    1 1    
     3   11    1 am   
     4    4    3 1    
     5   39    3 1    
     6   40    3 1    
     7    5    4 1    
     8    6    5 ar   
     9   10    5 ar   
    10    7    6 ar   
    11   41    6 1    
    12    8    7 ar   
    13   42    7 1    
    14    9    8 ar   
    15   43    8 1    
    16   10    9 ar   
    17   44    9 1    
    18   45   10 1    
    19   12   11 1    
    20   46   11 1    
    21   13   12 1    
    22   15   12 1    
    23   47   12 1    
    24   14   13 2    
    25   38   13 am   
    26   16   15 1    
    27   17   15 1    
    28   48   15 1    
    29   68   16 1    
    30   69   16 1    
    31   70   16 1    
    32   71   17 1    
    33   72   17 1    
    34   73   17 1    
    35   19   18 ar   
    36   23   18 ar   
    37   49   18 1    
    38   20   19 ar   
    39   50   19 1    
    40   21   20 ar   
    41   51   20 1    
    42   22   21 ar   
    43   52   21 1    
    44   23   22 ar   
    45   53   22 1    
    46   24   23 1    
    47   25   24 1    
    48   54   24 1    
    49   55   24 1    
    50   26   25 1    
    51   27   25 1    
    52   56   25 1    
    53   27   26 1    
    54   28   27 1    
    55   57   27 1    
    56   29   28 1    
    57   30   28 1    
    58   58   28 1    
    59   74   29 1    
    60   31   30 1    
    61   38   30 1    
    62   59   30 1    
    63   32   31 1    
    64   60   31 1    
    65   61   31 1    
    66   33   32 ar   
    67   37   32 ar   
    68   34   33 ar   
    69   62   33 1    
    70   35   34 ar   
    71   63   34 1    
    72   36   35 ar   
    73   64   35 1    
    74   37   36 ar   
    75   65   36 1    
    76   66   37 1    
    77   67   38 1    
@<TRIPOS>SUBSTRUCTURE
     1 076100      1 GROUP   
@<TRIPOS>SET

