#    Name: 2qxx_TTP_1_INTS_M
#    Modification time : Mon Mar 24 22:57:34 2014

@<TRIPOS>MOLECULE
2qxx_TTP_1_INTS_M
   61     0    15     0     0
SMALL
NO_CHARGES


@<TRIPOS>ATOM
      1 Zn        -12.7500  -21.2285    2.1395 Zn        4 ZIC7        0.0000 
      2 Zn        -12.5410  -21.0000    1.1700 Zn       14 ZIL7        0.0000 
      3 Zn        -12.9590  -21.4570    3.1090 Zn        9 ZIP7        0.0000 
      4 Zn        -13.8325  -21.9720    2.8010 Zn        4 ZIC7        0.0000 
      5 Zn        -14.7060  -22.4870    2.4930 Zn       14 ZIL7        0.0000 
      6 NZ        -13.8960  -25.9465    4.8590 N.4       3 LYC4        0.0000 
      7 NZ        -12.9880  -25.1390    4.3450 N.4      13 LYL4        0.0000 
      8 NZ        -14.8040  -26.7540    5.3730 N.4       8 LYP4        0.0000 
      9 N         -13.8960  -25.9465    4.8590 N.am      2 SEC2        0.0000 
     10 N         -12.9880  -25.1390    4.3450 N.am     12 SEL2        0.0000 
     11 N         -14.8040  -26.7540    5.3730 N.am      7 SEP2        0.0000 
     12 N         -10.4140  -25.5925    1.8105 N.am      2 SEC2        0.0000 
     13 N         -11.3990  -25.5250    2.4810 N.am     12 SEL2        0.0000 
     14 N          -9.4290  -25.6600    1.1400 N.am      7 SEP2        0.0000 
     15 N         -10.8475  -26.6945    3.0300 N.am      2 SEC2        0.0000 
     16 N         -10.2960  -27.8640    3.5790 N.am      7 SEP2        0.0000 
     17 Zn        -12.4750  -22.3390    3.1080 Zn        4 ZIC7        0.0000 
     18 Zn        -11.9910  -23.2210    3.1070 Zn       14 ZIL7        0.0000 
     19 CA         -9.7845  -23.3410    0.8335 C.3       5 GLC5        0.0000 
     20 CA        -10.9100  -22.9980   -0.5090 C.3      15 GLL5        0.0000 
     21 CA         -8.6590  -23.6840    2.1760 C.3      10 GLP5        0.0000 
     22 CA        -11.4240  -25.1040   -0.6045 C.3       5 GLC5        0.0000 
     23 CA        -11.9380  -27.2100   -0.7000 C.3      10 GLP5        0.0000 
     24 CA         -8.1605  -24.2115   -2.0770 C.3       5 GLC5        0.0000 
     25 CA         -9.8220  -23.2030   -1.5390 C.3      15 GLL5        0.0000 
     26 CA         -6.4990  -25.2200   -2.6150 C.3      10 GLP5        0.0000 
     27 CA         -9.1005  -24.0200   -0.0240 C.3       5 GLC5        0.0000 
     28 CA         -8.3790  -24.8370    1.4910 C.3      10 GLP5        0.0000 
     29 CA         -8.3830  -20.2140   -2.8920 C.3       5 GLC5        0.0000 
     30 CA         -9.2560  -21.8870   -2.0510 C.3      15 GLL5        0.0000 
     31 CA         -7.5100  -18.5410   -3.7330 C.3      10 GLP5        0.0000 
     32 N          -7.5490  -20.0950   -1.3045 N.am      2 SEC2        0.0000 
     33 N          -8.2400  -21.3310   -1.1980 N.am     12 SEL2        0.0000 
     34 N          -6.8580  -18.8590   -1.4110 N.am      7 SEP2        0.0000 
     35 O          -8.7490  -20.5950   -0.1950 O.2       1 ALC1        0.0000 
     36 O          -8.2400  -21.3310   -1.1980 O.2      11 ALL1        0.0000 
     37 O          -9.2580  -19.8590    0.8080 O.2       6 ALP1        0.0000 
     38 CA         -7.2300  -21.1930   -4.0220 C.3       5 GLC5        0.0000 
     39 CA         -8.7130  -22.2800   -3.4150 C.3      15 GLL5        0.0000 
     40 CA         -5.7470  -20.1060   -4.6290 C.3      10 GLP5        0.0000 
     41 CA         -8.0790  -24.3095   -3.2365 C.3       5 GLC5        0.0000 
     42 CA         -9.6590  -23.3990   -3.8580 C.3      15 GLL5        0.0000 
     43 N         -10.3170  -25.2975   -7.4720 N.am      2 SEC2        0.0000 
     44 N         -10.4720  -24.8380   -6.1010 N.am     12 SEL2        0.0000 
     45 N         -10.1620  -25.7570   -8.8430 N.am      7 SEP2        0.0000 
     46 N          -9.6965  -26.1720   -5.8860 N.am      2 SEC2        0.0000 
     47 N          -8.9210  -27.5060   -5.6710 N.am      7 SEP2        0.0000 
     48 O         -12.1920  -23.7695   -8.1295 O.2       1 ALC1        0.0000 
     49 O         -11.7550  -23.2190   -6.9450 O.2      11 ALL1        0.0000 
     50 O         -12.6290  -24.3200   -9.3140 O.2       6 ALP1        0.0000 
     51 CA        -13.0575  -17.6280   -5.5975 C.3       5 GLC5        0.0000 
     52 CA        -12.4970  -19.7350   -5.6310 C.3      15 GLL5        0.0000 
     53 CA        -13.6180  -15.5210   -5.5640 C.3      10 GLP5        0.0000 
     54 CA         -7.4543  -23.1433   -2.2835 C.3       5 GLC5        0.0000 
     55 CA         -5.9240  -24.2030   -1.8340 C.3      10 GLP5        0.0000 
     56 CA        -13.6588  -19.9663   -4.5717 C.3       5 GLC5        0.0000 
     57 CA        -11.9340  -21.1280   -5.7220 C.3      15 GLL5        0.0000 
     58 CA        -15.1020  -19.5010   -3.4670 C.3      10 GLP5        0.0000 
     59 CA        -10.0741  -20.2804   -5.7429 C.3       5 GLC5        0.0000 
     60 CA        -11.0710  -21.6360   -4.7630 C.3      15 GLL5        0.0000 
     61 CA         -8.5050  -19.5270   -6.2660 C.3      10 GLP5        0.0000 
@<TRIPOS>BOND
@<TRIPOS>SUBSTRUCTURE
     1 ALC1       35 GROUP        1 X    ALC  0     ROOT ALC X 1
     2 SEC2        9 GROUP        1 X    SEC  0     **** SEC X 2
     3 LYC4        6 GROUP        1 X    LYC  0     **** LYC X 4
     4 ZIC7        1 GROUP        1 X    ZIC  0     **** ZIC X 5
     5 GLC5       19 GROUP        1 X    GLC  0     **** GLC X 6
     6 ALP1       37 GROUP        1 Y    ALP  0     ROOT ALP Y 8
     7 SEP2       11 GROUP        1 Y    SEP  0     **** SEP Y 9
     8 LYP4        8 GROUP        1 Y    LYP  0     **** LYP Y 11
     9 ZIP7        3 GROUP        1 Y    ZIP  0     **** ZIP Y 12
    10 GLP5       21 GROUP        1 Y    GLP  0     **** GLP Y 13
    11 ALL1       36 GROUP        1 Z    ALL  0     ROOT ALL Z 15
    12 SEL2       10 GROUP        1 Z    SEL  0     **** SEL Z 16
    13 LYL4        7 GROUP        1 Z    LYL  0     **** LYL Z 18
    14 ZIL7        2 GROUP        1 Z    ZIL  0     **** ZIL Z 19
    15 GLL5       20 GROUP        1 Z    GLL  0     **** GLL Z 20
@<TRIPOS>SET

