#    Name: 2qxx_TTP_1_ligand
#    Modification time : Mon Mar 24 22:57:34 2014

@<TRIPOS>MOLECULE
2qxx_TTP_1_ligand
   42    43     1     0     0
SMALL
NO_CHARGES


@<TRIPOS>ATOM
      1 PA        -13.0790  -21.6180   -0.1000 P.3       1 TTP201      0.0000 
      2 O1A       -12.5410  -21.0000    1.1700 O.co2     1 TTP201      0.0000 
      3 O2A       -13.9970  -20.6890   -0.8340 O.co2     1 TTP201      0.0000 
      4 O3A       -13.8340  -23.0200    0.1340 O.3       1 TTP201      0.0000 
      5 PB        -14.6210  -23.5480    1.4270 P.3       1 TTP201      0.0000 
      6 O1B       -15.9860  -24.0390    1.0760 O.co2     1 TTP201      0.0000 
      7 O2B       -14.7060  -22.4870    2.4930 O.co2     1 TTP201      0.0000 
      8 O3B       -13.7020  -24.7710    1.9240 O.3       1 TTP201      0.0000 
      9 PG        -12.4960  -24.6430    2.9990 P.3       1 TTP201      0.0000 
     10 O1G       -12.9880  -25.1390    4.3450 O.co2     1 TTP201      0.0000 
     11 O2G       -11.3990  -25.5250    2.4810 O.co2     1 TTP201      0.0000 
     12 O3G       -11.9910  -23.2210    3.1070 O.co2     1 TTP201      0.0000 
     13 O5'       -11.8730  -22.0980   -1.0430 O.3       1 TTP201      0.0000 
     14 C5'       -10.9100  -22.9980   -0.5090 C.3       1 TTP201      0.0000 
     15 C4'        -9.8220  -23.2030   -1.5390 C.3       1 TTP201      0.0000 
     16 O4'       -10.3650  -23.8310   -2.6940 O.3       1 TTP201      0.0000 
     17 C3'        -9.2560  -21.8870   -2.0510 C.3       1 TTP201      0.0000 
     18 O3'        -8.2400  -21.3310   -1.1980 O.3       1 TTP201      0.0000 
     19 C2'        -8.7130  -22.2800   -3.4150 C.3       1 TTP201      0.0000 
     20 C1'        -9.6590  -23.3990   -3.8580 C.3       1 TTP201      0.0000 
     21 N1        -10.5850  -22.8830   -4.8820 N.am      1 TTP201      0.0000 
     22 C2        -10.9310  -23.6770   -5.9990 C.2       1 TTP201      0.0000 
     23 O2        -10.4720  -24.8380   -6.1010 O.2       1 TTP201      0.0000 
     24 N3        -11.7550  -23.2190   -6.9450 N.am      1 TTP201      0.0000 
     25 C4        -12.2770  -21.9860   -6.8760 C.2       1 TTP201      0.0000 
     26 O4        -13.0550  -21.5430   -7.7520 O.2       1 TTP201      0.0000 
     27 C5        -11.9340  -21.1280   -5.7220 C.2       1 TTP201      0.0000 
     28 C5M       -12.4970  -19.7350   -5.6310 C.3       1 TTP201      0.0000 
     29 C6        -11.0710  -21.6360   -4.7630 C.2       1 TTP201      0.0000 
     30 H         -11.3487  -23.9725   -0.2781 H         1 TTP201      0.0000 
     31 H         -10.4482  -22.6059    0.4011 H         1 TTP201      0.0000 
     32 H          -9.0260  -23.7784   -1.1274 H         1 TTP201      0.0000 
     33 H         -10.0824  -21.2214   -2.2157 H         1 TTP201      0.0000 
     34 H          -7.7304  -22.6618   -3.3191 H         1 TTP201      0.0000 
     35 H          -8.7882  -21.4642   -4.0853 H         1 TTP201      0.0000 
     36 H          -9.0562  -24.1891   -4.2622 H         1 TTP201      0.0000 
     37 H         -12.0011  -23.8373   -7.7628 H         1 TTP201      0.0000 
     38 H         -10.8108  -21.0351   -3.9567 H         1 TTP201      0.0000 
     39 H         -12.1858  -19.2618   -4.8068 H         1 TTP201      0.0000 
     40 H         -12.2252  -19.1728   -6.4121 H         1 TTP201      0.0000 
     41 H         -13.4967  -19.7393   -5.6067 H         1 TTP201      0.0000 
     42 H          -8.7410  -20.8484   -0.4796 H         1 TTP201      0.0000 
@<TRIPOS>BOND
     1    2    1 ar   
     2    3    1 ar   
     3    4    1 1    
     4   13    1 1    
     5    5    4 1    
     6    6    5 ar   
     7    7    5 ar   
     8    8    5 1    
     9    9    8 1    
    10   10    9 ar   
    11   11    9 ar   
    12   12    9 ar   
    13   14   13 1    
    14   15   14 1    
    15   30   14 1    
    16   31   14 1    
    17   16   15 1    
    18   17   15 1    
    19   32   15 1    
    20   20   16 1    
    21   18   17 1    
    22   19   17 1    
    23   33   17 1    
    24   42   18 1    
    25   20   19 1    
    26   34   19 1    
    27   35   19 1    
    28   21   20 1    
    29   36   20 1    
    30   22   21 1    
    31   29   21 1    
    32   23   22 2    
    33   24   22 1    
    34   25   24 1    
    35   37   24 1    
    36   26   25 2    
    37   27   25 1    
    38   28   27 1    
    39   29   27 2    
    40   39   28 1    
    41   40   28 1    
    42   41   28 1    
    43   38   29 1    
@<TRIPOS>SUBSTRUCTURE
     1 TTP201      1 GROUP   
@<TRIPOS>SET

