#    Name: 2hbh_XE4_1_INTS_M
#    Modification time : Tue Mar 25 15:50:38 2014

@<TRIPOS>MOLECULE
2hbh_XE4_1_INTS_M
  118     0     9     0     0
SMALL
NO_CHARGES


@<TRIPOS>ATOM
      1 CA          0.6910   38.4185   36.3800 C.3       3 GLC5        0.0000 
      2 CA          0.0030   38.8160   38.4540 C.3       9 GLL5        0.0000 
      3 CA          1.3790   38.0210   34.3060 C.3       6 GLP5        0.0000 
      4 CA          1.2355   41.7225   40.3130 C.3       3 GLC5        0.0000 
      5 CA          0.7280   40.0250   39.1010 C.3       9 GLL5        0.0000 
      6 CA          1.7430   43.4200   41.5250 C.3       6 GLP5        0.0000 
      7 CA         -0.1510   41.6705   38.9710 C.3       3 GLC5        0.0000 
      8 CA         -1.0300   43.3160   38.8410 C.3       6 GLP5        0.0000 
      9 CA          1.3095   38.9040   40.8855 C.3       3 GLC5        0.0000 
     10 CA          1.8910   37.7830   42.6700 C.3       6 GLP5        0.0000 
     11 CA          2.6125   41.5050   40.0455 C.3       3 GLC5        0.0000 
     12 CA          2.2080   40.1430   38.6570 C.3       9 GLL5        0.0000 
     13 CA          3.0170   42.8670   41.4340 C.3       6 GLP5        0.0000 
     14 CA          4.7475   39.1815   39.7445 C.3       3 GLC5        0.0000 
     15 CA          3.0080   38.8450   38.9260 C.3       9 GLL5        0.0000 
     16 CA          6.4870   39.5180   40.5630 C.3       6 GLP5        0.0000 
     17 CA          2.4495   38.3140   40.7980 C.3       3 GLC5        0.0000 
     18 CA          1.8315   37.8155   36.3310 C.3       3 GLC5        0.0000 
     19 CA          2.2840   37.6100   38.3560 C.3       9 GLL5        0.0000 
     20 CA         -0.8520   33.7640   40.6480 C.3       3 GLC5        0.0000 
     21 CA          0.1400   33.8710   38.9720 C.3       9 GLL5        0.0000 
     22 CA         -1.8440   33.6570   42.3240 C.3       6 GLP5        0.0000 
     23 CA          2.1840   36.6090   35.8630 C.3       3 GLC5        0.0000 
     24 CA          2.9520   36.7020   37.5980 C.3       9 GLL5        0.0000 
     25 CA          1.4160   36.5160   34.1280 C.3       6 GLP5        0.0000 
     26 CA          4.7695   37.3810   36.8160 C.3       3 GLC5        0.0000 
     27 CA          6.5870   38.0600   36.0340 C.3       6 GLP5        0.0000 
     28 CA          4.2830   35.6060   38.4050 C.3       3 GLC5        0.0000 
     29 CA          5.6140   34.5100   39.2120 C.3       6 GLP5        0.0000 
     30 N           0.6645   41.2395   41.1165 N.am      2 SEC2        0.0000 
     31 N           0.6830   39.8830   40.5250 N.am      8 SEL2        0.0000 
     32 N           0.6460   42.5960   41.7080 N.am      5 SEP2        0.0000 
     33 O          -0.5995   39.5095   40.9310 O.2       1 ALC1        0.0000 
     34 O           0.6830   39.8830   40.5250 O.2       7 ALL1        0.0000 
     35 O          -1.8820   39.1360   41.3370 O.2       4 ALP1        0.0000 
     36 N           5.1630   40.1660   38.4210 N.am      2 SEC2        0.0000 
     37 N           4.3110   38.9580   38.3250 N.am      8 SEL2        0.0000 
     38 N           6.0150   41.3740   38.5170 N.am      5 SEP2        0.0000 
     39 O           4.7590   38.6155   37.0570 O.2       1 ALC1        0.0000 
     40 O           4.3110   38.9580   38.3250 O.2       7 ALL1        0.0000 
     41 O           5.2070   38.2730   35.7890 O.2       4 ALP1        0.0000 
     42 CA         -0.3415   32.4420   40.9695 C.3       3 GLC5        0.0000 
     43 CA          0.8370   32.5350   39.2240 C.3       9 GLL5        0.0000 
     44 CA         -1.5200   32.3490   42.7150 C.3       6 GLP5        0.0000 
     45 CA         -2.0675   33.8315   39.8530 C.3       3 GLC5        0.0000 
     46 CA         -1.2220   33.7180   38.2610 C.3       9 GLL5        0.0000 
     47 CA         -2.9130   33.9450   41.4450 C.3       6 GLP5        0.0000 
     48 CA          2.0250   34.4190   41.0505 C.3       3 GLC5        0.0000 
     49 CA          2.2130   32.4810   39.9640 C.3       9 GLL5        0.0000 
     50 CA          1.8370   36.3570   42.1370 C.3       6 GLP5        0.0000 
     51 CA          4.2095   31.2825   41.1410 C.3       3 GLC5        0.0000 
     52 CA          2.9050   31.1990   39.4160 C.3       9 GLL5        0.0000 
     53 CA          5.5140   31.3660   42.8660 C.3       6 GLP5        0.0000 
     54 CA          0.9625   28.6535   36.9420 C.3       3 GLC5        0.0000 
     55 CA          2.7080   29.9720   37.2040 C.3       9 GLL5        0.0000 
     56 CA         -0.7830   27.3350   36.6800 C.3       6 GLP5        0.0000 
     57 CA          3.4310   27.3500   30.2600 C.3       3 GLC5        0.0000 
     58 CA          4.2220   27.4420   32.0220 C.3       9 GLL5        0.0000 
     59 CA          2.6400   27.2580   28.4980 C.3       6 GLP5        0.0000 
     60 CA          4.5085   25.7010   31.3595 C.3       3 GLC5        0.0000 
     61 CA          4.7950   23.9600   30.6970 C.3       6 GLP5        0.0000 
     62 CA          5.3630   27.5660   30.0880 C.3       3 GLC5        0.0000 
     63 CA          6.5040   27.6900   28.1540 C.3       6 GLP5        0.0000 
     64 N           4.9075   25.8540   34.3540 N.am      2 SEC2        0.0000 
     65 N           5.8450   26.5560   33.5700 N.am      8 SEL2        0.0000 
     66 N           3.9700   25.1520   35.1380 N.am      5 SEP2        0.0000 
     67 O           6.3745   26.7500   35.0395 O.2       1 ALC1        0.0000 
     68 O           5.8450   26.5560   33.5700 O.2       7 ALL1        0.0000 
     69 O           6.9040   26.9440   36.5090 O.2       4 ALP1        0.0000 
     70 CA          6.7415   30.7500   33.2865 C.3       3 GLC5        0.0000 
     71 CA          6.3340   28.6960   32.6020 C.3       9 GLL5        0.0000 
     72 CA          7.1490   32.8040   33.9710 C.3       6 GLP5        0.0000 
     73 CA          7.9190   29.3195   31.4995 C.3       3 GLC5        0.0000 
     74 CA          9.5040   29.9430   30.3970 C.3       6 GLP5        0.0000 
     75 CA          8.0970   29.4210   33.5090 C.3       3 GLC5        0.0000 
     76 CA          9.8600   30.1460   34.4160 C.3       6 GLP5        0.0000 
     77 CA          1.0740   34.3310   35.7655 C.3       3 GLC5        0.0000 
     78 CA          2.0090   32.7680   36.8630 C.3       9 GLL5        0.0000 
     79 CA          0.1390   35.8940   34.6680 C.3       6 GLP5        0.0000 
     80 CA          3.3395   32.6825   35.4635 C.3       3 GLC5        0.0000 
     81 CA          4.6700   32.5970   34.0640 C.3       6 GLP5        0.0000 
     82 CA          0.0693   40.2113   36.8487 C.3       3 GLC5        0.0000 
     83 CA         -0.2270   41.0020   34.9200 C.3       6 GLP5        0.0000 
     84 CA         -1.0197   39.9283   40.1547 C.3       3 GLC5        0.0000 
     85 CA         -2.4050   40.4360   41.5320 C.3       6 GLP5        0.0000 
     86 CA         -1.5042   39.6492   38.2678 C.3       3 GLC5        0.0000 
     87 CA         -3.3740   39.8780   37.7580 C.3       6 GLP5        0.0000 
     88 CA          1.6867   36.9592   40.3190 C.3       3 GLC5        0.0000 
     89 CA          0.7890   37.5130   38.6460 C.3       9 GLL5        0.0000 
     90 CA          0.2960   36.4243   36.7677 C.3       3 GLC5        0.0000 
     91 CA         -0.7645   35.7985   40.6183 C.3       3 GLC5        0.0000 
     92 CA          0.6930   35.0580   39.3200 C.3       9 GLL5        0.0000 
     93 CA         -1.9340   35.8700   42.0320 C.3       6 GLP5        0.0000 
     94 CA          1.0547   35.5780   40.6126 C.3       3 GLC5        0.0000 
     95 CA          0.1170   36.3960   39.0890 C.3       9 GLL5        0.0000 
     96 CA         -1.0785   32.4427   35.1253 C.3       3 GLC5        0.0000 
     97 CA         -0.2310   31.5310   37.1680 C.3       9 GLL5        0.0000 
     98 CA         -1.4570   32.7300   33.1600 C.3       6 GLP5        0.0000 
     99 CA         -1.6555   30.5407   37.1962 C.3       3 GLC5        0.0000 
    100 CA         -1.1690   32.7800   37.0130 C.3       9 GLL5        0.0000 
    101 CA         -2.6110   28.9260   37.3020 C.3       6 GLP5        0.0000 
    102 CA         -0.5282   34.5715   36.1525 C.3       3 GLC5        0.0000 
    103 CA         -3.1248   33.5990   37.3105 C.3       3 GLC5        0.0000 
    104 CA         -5.0540   33.9490   36.9840 C.3       6 GLP5        0.0000 
    105 CA          4.0865   33.1750   39.4510 C.3       3 GLC5        0.0000 
    106 CA          3.1220   27.2302   35.5125 C.3       3 GLC5        0.0000 
    107 CA          3.9660   28.8760   35.2070 C.3       9 GLL5        0.0000 
    108 CA          2.6110   25.2960   35.2830 C.3       6 GLP5        0.0000 
    109 CA          5.3100   27.4808   36.1760 C.3       3 GLC5        0.0000 
    110 CA          6.3660   26.3360   37.6160 C.3       6 GLP5        0.0000 
    111 CA          4.3788   30.6834   34.5338 C.3       3 GLC5        0.0000 
    112 CA          4.5420   28.3750   34.2650 C.3       9 GLL5        0.0000 
    113 CA          7.2502   26.8818   32.7375 C.3       3 GLC5        0.0000 
    114 CA          5.2370   27.7630   33.1220 C.3       9 GLL5        0.0000 
    115 CA          8.7150   25.5340   32.6130 C.3       6 GLP5        0.0000 
    116 CA          3.5834   26.5257   34.0704 C.3       3 GLC5        0.0000 
    117 CA          1.2624   30.4262   40.6601 C.3       3 GLC5        0.0000 
    118 CA          0.5430   29.1420   42.0890 C.3       6 GLP5        0.0000 
@<TRIPOS>BOND
@<TRIPOS>SUBSTRUCTURE
     1 ALC1       33 GROUP        1 X    ALC  0     ROOT ALC X 1
     2 SEC2       30 GROUP        1 X    SEC  0     **** SEC X 2
     3 GLC5        1 GROUP        1 X    GLC  0     **** GLC X 6
     4 ALP1       35 GROUP        1 Y    ALP  0     ROOT ALP Y 8
     5 SEP2       32 GROUP        1 Y    SEP  0     **** SEP Y 9
     6 GLP5        3 GROUP        1 Y    GLP  0     **** GLP Y 13
     7 ALL1       34 GROUP        1 Z    ALL  0     ROOT ALL Z 15
     8 SEL2       31 GROUP        1 Z    SEL  0     **** SEL Z 16
     9 GLL5        2 GROUP        1 Z    GLL  0     **** GLL Z 20
@<TRIPOS>SET

