#    Name: 2hbh_XE4_1_ligand
#    Modification time : Tue Mar 25 15:50:38 2014

@<TRIPOS>MOLECULE
2hbh_XE4_1_ligand
   61    63     1     0     0
SMALL
NO_CHARGES


@<TRIPOS>ATOM
      1 C1          0.0030   38.8160   38.4540 C.3       1 XE4500      0.0000 
      2 C2          0.7280   40.0250   39.1010 C.3       1 XE4500      0.0000 
      3 C3          2.2080   40.1430   38.6570 C.3       1 XE4500      0.0000 
      4 C4          3.0080   38.8450   38.9260 C.3       1 XE4500      0.0000 
      5 C5          2.2840   37.6100   38.3560 C.2       1 XE4500      0.0000 
      6 C6          0.7890   37.5130   38.6460 C.2       1 XE4500      0.0000 
      7 C7          0.1170   36.3960   39.0890 C.2       1 XE4500      0.0000 
      8 C8          0.6930   35.0580   39.3200 C.2       1 XE4500      0.0000 
      9 C9          0.1400   33.8710   38.9720 C.2       1 XE4500      0.0000 
     10 C10         2.9520   36.7020   37.5980 C.2       1 XE4500      0.0000 
     11 O1          0.6830   39.8830   40.5250 O.3       1 XE4500      0.0000 
     12 O2          4.3110   38.9580   38.3250 O.3       1 XE4500      0.0000 
     13 C11         0.8370   32.5350   39.2240 C.3       1 XE4500      0.0000 
     14 C12         1.1460   31.8540   37.8480 C.3       1 XE4500      0.0000 
     15 C13        -0.2310   31.5310   37.1680 C.3       1 XE4500      0.0000 
     16 C14        -1.1690   32.7800   37.0130 C.3       1 XE4500      0.0000 
     17 C15        -1.2220   33.7180   38.2610 C.3       1 XE4500      0.0000 
     18 C16         2.2130   32.4810   39.9640 C.3       1 XE4500      0.0000 
     19 C17         2.9050   31.1990   39.4160 C.3       1 XE4500      0.0000 
     20 C18         1.9720   30.6270   38.3210 C.3       1 XE4500      0.0000 
     21 C19         2.7080   29.9720   37.2040 C.1       1 XE4500      0.0000 
     22 C20         3.3000   29.4530   36.2770 C.1       1 XE4500      0.0000 
     23 C21         3.9660   28.8760   35.2070 C.1       1 XE4500      0.0000 
     24 C22         4.5420   28.3750   34.2650 C.1       1 XE4500      0.0000 
     25 C23         5.2370   27.7630   33.1220 C.3       1 XE4500      0.0000 
     26 C24         4.2220   27.4420   32.0220 C.3       1 XE4500      0.0000 
     27 O3          5.8450   26.5560   33.5700 O.3       1 XE4500      0.0000 
     28 C25         6.3340   28.6960   32.6020 C.3       1 XE4500      0.0000 
     29 C26         2.0090   32.7680   36.8630 C.3       1 XE4500      0.0000 
     30 H          -0.1197   39.0110   37.3892 H         1 XE4500      0.0000 
     31 H          -0.9819   38.7149   38.9087 H         1 XE4500      0.0000 
     32 H           0.2143   40.9253   38.7922 H         1 XE4500      0.0000 
     33 H           2.6752   40.9662   39.1988 H         1 XE4500      0.0000 
     34 H           2.2404   40.3647   37.5897 H         1 XE4500      0.0000 
     35 H           3.0896   38.7226   39.9963 H         1 XE4500      0.0000 
     36 H          -0.9255   36.4673   39.2962 H         1 XE4500      0.0000 
     37 H           1.6408   35.0746   39.8134 H         1 XE4500      0.0000 
     38 H           0.1622   31.8400   39.7287 H         1 XE4500      0.0000 
     39 H          -0.7485   30.7780   37.7672 H         1 XE4500      0.0000 
     40 H          -0.0414   31.1116   36.1770 H         1 XE4500      0.0000 
     41 H          -2.1851   32.4256   36.7955 H         1 XE4500      0.0000 
     42 H          -0.8286   33.3640   36.1479 H         1 XE4500      0.0000 
     43 H          -1.5716   34.7038   37.9386 H         1 XE4500      0.0000 
     44 H          -1.9527   33.3127   38.9680 H         1 XE4500      0.0000 
     45 H           2.0474   32.3776   41.0023 H         1 XE4500      0.0000 
     46 H           2.7838   33.3307   39.7025 H         1 XE4500      0.0000 
     47 H           3.0059   30.4899   40.2052 H         1 XE4500      0.0000 
     48 H           3.8425   31.4636   38.9837 H         1 XE4500      0.0000 
     49 H           1.2877   29.9502   38.8005 H         1 XE4500      0.0000 
     50 H           4.6584   27.0271   31.2236 H         1 XE4500      0.0000 
     51 H           3.5212   26.8026   32.3384 H         1 XE4500      0.0000 
     52 H           3.7476   28.2627   31.7034 H         1 XE4500      0.0000 
     53 H           7.0174   28.8937   33.3048 H         1 XE4500      0.0000 
     54 H           6.8205   28.2995   31.8234 H         1 XE4500      0.0000 
     55 H           5.9624   29.5737   32.2994 H         1 XE4500      0.0000 
     56 H           2.8950   33.0080   37.2598 H         1 XE4500      0.0000 
     57 H           2.1919   32.3079   35.9942 H         1 XE4500      0.0000 
     58 H           1.5422   33.6258   36.6479 H         1 XE4500      0.0000 
     59 H          -0.2898   39.9003   40.7561 H         1 XE4500      0.0000 
     60 H           4.2094   38.5648   37.4112 H         1 XE4500      0.0000 
     61 H           6.0060   27.0306   34.4355 H         1 XE4500      0.0000 
@<TRIPOS>BOND
     1    2    1 1    
     2    6    1 1    
     3   30    1 1    
     4   31    1 1    
     5    3    2 1    
     6   11    2 1    
     7   32    2 1    
     8    4    3 1    
     9   33    3 1    
    10   34    3 1    
    11    5    4 1    
    12   12    4 1    
    13   35    4 1    
    14    6    5 1    
    15   10    5 2    
    16    7    6 2    
    17    8    7 1    
    18   36    7 1    
    19    9    8 2    
    20   37    8 1    
    21   13    9 1    
    22   17    9 1    
    23   59   11 1    
    24   60   12 1    
    25   14   13 1    
    26   18   13 1    
    27   38   13 1    
    28   15   14 1    
    29   20   14 1    
    30   29   14 1    
    31   16   15 1    
    32   39   15 1    
    33   40   15 1    
    34   17   16 1    
    35   41   16 1    
    36   42   16 1    
    37   43   17 1    
    38   44   17 1    
    39   19   18 1    
    40   45   18 1    
    41   46   18 1    
    42   20   19 1    
    43   47   19 1    
    44   48   19 1    
    45   21   20 1    
    46   49   20 1    
    47   22   21 3    
    48   23   22 1    
    49   24   23 3    
    50   25   24 1    
    51   26   25 1    
    52   27   25 1    
    53   28   25 1    
    54   50   26 1    
    55   51   26 1    
    56   52   26 1    
    57   61   27 1    
    58   53   28 1    
    59   54   28 1    
    60   55   28 1    
    61   56   29 1    
    62   57   29 1    
    63   58   29 1    
@<TRIPOS>SUBSTRUCTURE
     1 XE4500      1 GROUP   
@<TRIPOS>SET

