#    Name: 2ji7_ADP_3_INTS_M
#    Modification time : Tue Mar 25 20:50:19 2014

@<TRIPOS>MOLECULE
2ji7_ADP_3_INTS_M
   75     0    12     0     0
SMALL
NO_CHARGES


@<TRIPOS>ATOM
      1 NZ         69.2830  -19.2155  -10.1890 N.4       3 LYC4        0.0000 
      2 NZ         70.7760  -19.8400  -10.4120 N.4      11 LYL4        0.0000 
      3 NZ         67.7900  -18.5910   -9.9660 N.4       7 LYP4        0.0000 
      4 N          69.5640  -23.2595   -9.5430 N.am      2 SEC2        0.0000 
      5 N          70.4740  -22.2240   -9.5670 N.am     10 SEL2        0.0000 
      6 N          68.6540  -24.2950   -9.5190 N.am      6 SEP2        0.0000 
      7 NZ         69.8530  -19.2425  -14.7620 N.4       3 LYC4        0.0000 
      8 NZ         70.4370  -19.9160  -13.5710 N.4      11 LYL4        0.0000 
      9 NZ         68.2980  -17.6950  -15.7200 N.4       7 LYP4        0.0000 
     10 N          71.2710  -21.0145  -14.4625 N.am      2 SEC2        0.0000 
     11 N          70.4370  -19.9160  -13.5710 N.am     10 SEL2        0.0000 
     12 N          72.1050  -22.1130  -15.3540 N.am      6 SEP2        0.0000 
     13 N          69.8530  -19.2425  -14.7620 N.am      2 SEC2        0.0000 
     14 N          69.2690  -18.5690  -15.9530 N.am      6 SEP2        0.0000 
     15 NZ         67.9630  -18.6280  -13.5120 N.4       3 LYC4        0.0000 
     16 NZ         68.0490  -19.7410  -12.5450 N.4      11 LYL4        0.0000 
     17 NZ         67.9195  -19.1660  -11.2555 N.4       3 LYC4        0.0000 
     18 N          67.9630  -18.6280  -13.5120 N.am      2 SEC2        0.0000 
     19 N          68.0490  -19.7410  -12.5450 N.am     10 SEL2        0.0000 
     20 N          67.8770  -17.5150  -14.4790 N.am      6 SEP2        0.0000 
     21 N          67.9195  -19.1660  -11.2555 N.am      2 SEC2        0.0000 
     22 N          67.7900  -18.5910   -9.9660 N.am      6 SEP2        0.0000 
     23 CA         67.9255  -24.6960  -15.1495 C.3       4 GLC5        0.0000 
     24 CA         67.2730  -22.8210  -15.4950 C.3      12 GLL5        0.0000 
     25 CA         68.5780  -26.5710  -14.8040 C.3       8 GLP5        0.0000 
     26 CA         68.6820  -21.0380  -16.8970 C.3       4 GLC5        0.0000 
     27 CA         66.7600  -21.8830  -16.5810 C.3      12 GLL5        0.0000 
     28 CA         70.6040  -20.1930  -17.2130 C.3       8 GLP5        0.0000 
     29 N          67.4515  -20.8885  -18.7155 N.am      2 SEC2        0.0000 
     30 N          67.7230  -21.8660  -17.6400 N.am     10 SEL2        0.0000 
     31 N          67.1800  -19.9110  -19.7910 N.am      6 SEP2        0.0000 
     32 O          67.1615  -22.9350  -18.8100 O.2       1 ALC1        0.0000 
     33 O          67.7230  -21.8660  -17.6400 O.2       9 ALL1        0.0000 
     34 O          66.6000  -24.0040  -19.9800 O.2       5 ALP1        0.0000 
     35 O          67.9940  -23.0575  -18.1005 O.2       1 ALC1        0.0000 
     36 O          68.2650  -24.2490  -18.5610 O.2       5 ALP1        0.0000 
     37 CA         64.0110  -21.0745  -17.7575 C.3       4 GLC5        0.0000 
     38 CA         65.4020  -22.4530  -16.9910 C.3      12 GLL5        0.0000 
     39 CA         62.6200  -19.6960  -18.5240 C.3       8 GLP5        0.0000 
     40 N          65.0695  -20.9920  -18.7685 N.am      2 SEC2        0.0000 
     41 N          65.1440  -22.3730  -18.3970 N.am     10 SEL2        0.0000 
     42 N          64.9950  -19.6110  -19.1400 N.am      6 SEP2        0.0000 
     43 N          66.1620  -21.1420  -19.0940 N.am      2 SEC2        0.0000 
     44 O          65.8720  -23.1885  -19.1885 O.2       1 ALC1        0.0000 
     45 O          65.1440  -22.3730  -18.3970 O.2       9 ALL1        0.0000 
     46 CA         65.5765  -24.5340  -14.4150 C.3       4 GLC5        0.0000 
     47 CA         65.5110  -23.8970  -16.5640 C.3      12 GLL5        0.0000 
     48 CA         65.6420  -25.1710  -12.2660 C.3       8 GLP5        0.0000 
     49 CA         67.0445  -25.2340  -15.6840 C.3       4 GLC5        0.0000 
     50 CA         62.3440  -26.9360  -18.3845 C.3       4 GLC5        0.0000 
     51 CA         62.1770  -27.5330  -16.2750 C.3      12 GLL5        0.0000 
     52 CA         62.5110  -26.3390  -20.4940 C.3       8 GLP5        0.0000 
     53 CA         62.0370  -29.1010  -17.7850 C.3       4 GLC5        0.0000 
     54 CA         61.8970  -30.6690  -19.2950 C.3       8 GLP5        0.0000 
     55 N          63.1075  -29.7680  -17.2620 N.am      2 SEC2        0.0000 
     56 N          62.8840  -28.3170  -17.1260 N.am     10 SEL2        0.0000 
     57 N          63.3310  -31.2190  -17.3980 N.am      6 SEP2        0.0000 
     58 CA         65.6765  -27.4775  -18.9145 C.3       4 GLC5        0.0000 
     59 CA         64.0430  -27.9090  -17.6850 C.3      12 GLL5        0.0000 
     60 CA         67.3100  -27.0460  -20.1440 C.3       8 GLP5        0.0000 
     61 CA         63.2770  -27.1240  -19.0895 C.3       4 GLC5        0.0000 
     62 CA         62.9700  -29.2890  -18.4900 C.3       4 GLC5        0.0000 
     63 CA         64.8960  -28.3480  -16.3540 C.3       4 GLC5        0.0000 
     64 CA         65.7490  -28.7870  -15.0230 C.3       8 GLP5        0.0000 
     65 N          64.7870  -26.6320  -19.0240 N.am      2 SEC2        0.0000 
     66 N          64.5910  -26.7020  -17.4380 N.am     10 SEL2        0.0000 
     67 N          64.9830  -26.5620  -20.6100 N.am      6 SEP2        0.0000 
     68 CA         66.4982  -23.8278  -13.5420 C.3       4 GLC5        0.0000 
     69 CA         65.2805  -20.5985  -16.1740 C.3       4 GLC5        0.0000 
     70 CA         64.4800  -19.0290  -15.5620 C.3       8 GLP5        0.0000 
     71 CA         62.8930  -25.4780  -18.0655 C.3       4 GLC5        0.0000 
     72 CA         63.9860  -25.8270  -16.5940 C.3      12 GLL5        0.0000 
     73 CA         62.4360  -24.9490  -19.8570 C.3       8 GLP5        0.0000 
     74 CA         64.4824  -27.5653  -15.6886 C.3       4 GLC5        0.0000 
     75 CA         62.7140  -26.1870  -15.9540 C.3      12 GLL5        0.0000 
@<TRIPOS>BOND
@<TRIPOS>SUBSTRUCTURE
     1 ALC1       32 GROUP        1 X    ALC  0     ROOT ALC X 1
     2 SEC2        4 GROUP        1 X    SEC  0     **** SEC X 2
     3 LYC4        1 GROUP        1 X    LYC  0     **** LYC X 4
     4 GLC5       23 GROUP        1 X    GLC  0     **** GLC X 6
     5 ALP1       34 GROUP        1 Y    ALP  0     ROOT ALP Y 8
     6 SEP2        6 GROUP        1 Y    SEP  0     **** SEP Y 9
     7 LYP4        3 GROUP        1 Y    LYP  0     **** LYP Y 11
     8 GLP5       25 GROUP        1 Y    GLP  0     **** GLP Y 13
     9 ALL1       33 GROUP        1 Z    ALL  0     ROOT ALL Z 15
    10 SEL2        5 GROUP        1 Z    SEL  0     **** SEL Z 16
    11 LYL4        2 GROUP        1 Z    LYL  0     **** LYL Z 18
    12 GLL5       24 GROUP        1 Z    GLL  0     **** GLL Z 20
@<TRIPOS>SET

