#    Name: 2ji7_ADP_3_ligand
#    Modification time : Tue Mar 25 20:50:19 2014

@<TRIPOS>MOLECULE
2ji7_ADP_3_ligand
   39    41     1     0     0
SMALL
NO_CHARGES


@<TRIPOS>ATOM
      1 PB         70.8250  -21.3100  -10.7210 P.3       1 ADP1568     0.0000 
      2 O1B        72.1020  -21.7740  -11.3990 O.co2     1 ADP1568     0.0000 
      3 O2B        70.7760  -19.8400  -10.4120 O.co2     1 ADP1568     0.0000 
      4 O3B        70.4740  -22.2240   -9.5670 O.co2     1 ADP1568     0.0000 
      5 PA         69.2150  -20.5800  -12.9980 P.3       1 ADP1568     0.0000 
      6 O1A        70.4370  -19.9160  -13.5710 O.co2     1 ADP1568     0.0000 
      7 O2A        68.0490  -19.7410  -12.5450 O.co2     1 ADP1568     0.0000 
      8 O3A        69.6430  -21.5880  -11.8060 O.3       1 ADP1568     0.0000 
      9 O5'        68.7430  -21.5960  -14.1330 O.3       1 ADP1568     0.0000 
     10 C5'        67.4360  -22.1480  -14.1410 C.3       1 ADP1568     0.0000 
     11 C4'        67.2730  -22.8210  -15.4950 C.3       1 ADP1568     0.0000 
     12 O4'        66.3230  -23.8730  -15.3840 O.3       1 ADP1568     0.0000 
     13 C3'        66.7600  -21.8830  -16.5810 C.3       1 ADP1568     0.0000 
     14 O3'        67.7230  -21.8660  -17.6400 O.3       1 ADP1568     0.0000 
     15 C2'        65.4020  -22.4530  -16.9910 C.3       1 ADP1568     0.0000 
     16 O2'        65.1440  -22.3730  -18.3970 O.3       1 ADP1568     0.0000 
     17 C1'        65.5110  -23.8970  -16.5640 C.3       1 ADP1568     0.0000 
     18 N9         64.2700  -24.5980  -16.1790 N.pl3     1 ADP1568     0.0000 
     19 C8         63.3200  -24.1780  -15.3280 C.2       1 ADP1568     0.0000 
     20 N7         62.3480  -25.1290  -15.1910 N.2       1 ADP1568     0.0000 
     21 C5         62.7140  -26.1870  -15.9540 C.ar      1 ADP1568     0.0000 
     22 C6         62.1770  -27.5330  -16.2750 C.ar      1 ADP1568     0.0000 
     23 N6         61.0150  -27.9540  -15.7280 N.pl3     1 ADP1568     0.0000 
     24 N1         62.8840  -28.3170  -17.1260 N.ar      1 ADP1568     0.0000 
     25 C2         64.0430  -27.9090  -17.6850 C.ar      1 ADP1568     0.0000 
     26 N3         64.5910  -26.7020  -17.4380 N.ar      1 ADP1568     0.0000 
     27 C4         63.9860  -25.8270  -16.5940 C.ar      1 ADP1568     0.0000 
     28 H          66.6690  -21.3891  -14.0477 H         1 ADP1568     0.0000 
     29 H          67.3030  -22.9000  -13.3730 H         1 ADP1568     0.0000 
     30 H          68.2294  -23.2119  -15.8108 H         1 ADP1568     0.0000 
     31 H          66.6124  -20.9263  -16.1353 H         1 ADP1568     0.0000 
     32 H          64.6532  -21.9911  -16.3908 H         1 ADP1568     0.0000 
     33 H          66.0367  -24.4528  -17.3271 H         1 ADP1568     0.0000 
     34 H          63.3125  -23.3177  -14.8659 H         1 ADP1568     0.0000 
     35 H          60.5871  -27.3327  -15.0716 H         1 ADP1568     0.0000 
     36 H          60.6863  -28.8495  -16.0282 H         1 ADP1568     0.0000 
     37 H          64.5452  -28.5686  -18.3490 H         1 ADP1568     0.0000 
     38 H          67.5042  -22.6640  -18.2015 H         1 ADP1568     0.0000 
     39 H          65.7392  -23.0630  -18.8089 H         1 ADP1568     0.0000 
@<TRIPOS>BOND
     1    2    1 ar   
     2    3    1 ar   
     3    4    1 ar   
     4    8    1 1    
     5    6    5 ar   
     6    7    5 ar   
     7    8    5 1    
     8    9    5 1    
     9   10    9 1    
    10   11   10 1    
    11   28   10 1    
    12   29   10 1    
    13   12   11 1    
    14   13   11 1    
    15   30   11 1    
    16   17   12 1    
    17   14   13 1    
    18   15   13 1    
    19   31   13 1    
    20   38   14 1    
    21   16   15 1    
    22   17   15 1    
    23   32   15 1    
    24   39   16 1    
    25   18   17 1    
    26   33   17 1    
    27   19   18 1    
    28   27   18 1    
    29   20   19 2    
    30   34   19 1    
    31   21   20 1    
    32   22   21 ar   
    33   27   21 ar   
    34   23   22 1    
    35   24   22 ar   
    36   35   23 1    
    37   36   23 1    
    38   25   24 ar   
    39   26   25 ar   
    40   37   25 1    
    41   27   26 ar   
@<TRIPOS>SUBSTRUCTURE
     1 ADP1568     1 GROUP   
@<TRIPOS>SET

