#    Name: 1nr6_DIF_1_INTS_M
#    Modification time : Mon Mar 24 18:45:27 2014

@<TRIPOS>MOLECULE
1nr6_DIF_1_INTS_M
   36     0     3     0     0
SMALL
NO_CHARGES


@<TRIPOS>ATOM
      1 CA         -7.2040  -16.8290  -27.3370 C.3       1 GLC5        0.0000 
      2 CA         -8.2200  -16.1770  -28.6420 C.3       3 GLL5        0.0000 
      3 CA         -6.1880  -17.4810  -26.0320 C.3       2 GLP5        0.0000 
      4 CA        -14.0805  -14.1160  -28.9590 C.3       1 GLC5        0.0000 
      5 CA        -12.5520  -15.0820  -29.1130 C.3       3 GLL5        0.0000 
      6 CA        -15.6090  -13.1500  -28.8050 C.3       2 GLP5        0.0000 
      7 CA        -12.4630  -15.2975  -27.4835 C.3       1 GLC5        0.0000 
      8 CA        -12.3740  -15.5130  -25.8540 C.3       2 GLP5        0.0000 
      9 CA         -8.1255  -18.3040  -27.8395 C.3       1 GLC5        0.0000 
     10 CA         -9.2140  -17.1220  -28.4270 C.3       3 GLL5        0.0000 
     11 CA         -7.0370  -19.4860  -27.2520 C.3       2 GLP5        0.0000 
     12 CA         -9.4680   -8.2045  -28.2455 C.3       1 GLC5        0.0000 
     13 CA         -8.9400   -9.9120  -28.3740 C.3       3 GLL5        0.0000 
     14 CA         -9.9960   -6.4970  -28.1170 C.3       2 GLP5        0.0000 
     15 CA         -6.9690   -9.9545  -29.2655 C.3       1 GLC5        0.0000 
     16 CA         -4.9980   -9.9970  -30.1570 C.3       2 GLP5        0.0000 
     17 CA         -9.8260  -11.1605  -32.4635 C.3       1 GLC5        0.0000 
     18 CA         -9.5880  -10.7280  -30.6080 C.3       3 GLL5        0.0000 
     19 CA        -10.0640  -11.5930  -34.3190 C.3       2 GLP5        0.0000 
     20 CA         -9.8865  -14.8745  -30.9803 C.3       1 GLC5        0.0000 
     21 CA         -8.5510  -14.8780  -29.0060 C.3       3 GLL5        0.0000 
     22 CA        -10.5410  -15.0620  -32.8770 C.3       2 GLP5        0.0000 
     23 CA        -11.5122  -15.8069  -30.5980 C.3       1 GLC5        0.0000 
     24 CA        -10.9140  -15.4610  -28.9430 C.3       3 GLL5        0.0000 
     25 CA        -11.8800  -15.5950  -32.3930 C.3       2 GLP5        0.0000 
     26 CA        -11.4294  -15.6926  -27.3345 C.3       1 GLC5        0.0000 
     27 CA        -10.5560  -16.7660  -28.5780 C.3       3 GLL5        0.0000 
     28 CA         -7.6159  -17.1464  -29.9402 C.3       1 GLC5        0.0000 
     29 CA         -6.4320  -17.9680  -31.2550 C.3       2 GLP5        0.0000 
     30 CA         -9.4404  -15.7899  -26.7383 C.3       1 GLC5        0.0000 
     31 CA        -10.0810  -15.2550  -24.8510 C.3       2 GLP5        0.0000 
     32 CA         -9.7120  -13.5667  -25.8490 C.3       1 GLC5        0.0000 
     33 CA         -9.5840  -12.3950  -27.2500 C.3       3 GLL5        0.0000 
     34 CA         -9.1598   -8.9857  -26.2582 C.3       1 GLC5        0.0000 
     35 CA         -9.1020  -11.3620  -26.4440 C.3       3 GLL5        0.0000 
     36 CA         -9.3790   -7.2300  -25.7930 C.3       2 GLP5        0.0000 
@<TRIPOS>BOND
@<TRIPOS>SUBSTRUCTURE
     1 GLC5        1 GROUP        1 X    GLC  0     ROOT GLC X 6
     2 GLP5        3 GROUP        1 Y    GLP  0     ROOT GLP Y 13
     3 GLL5        2 GROUP        1 Z    GLL  0     ROOT GLL Z 20
@<TRIPOS>SET

