#    Name: 1nr6_DIF_1_ligand
#    Modification time : Mon Mar 24 18:45:27 2014

@<TRIPOS>MOLECULE
1nr6_DIF_1_ligand
   29    30     1     0     0
SMALL
NO_CHARGES


@<TRIPOS>ATOM
      1 C1         -8.2200  -16.1770  -28.6420 C.ar      1 DIF501      0.0000 
      2 C2         -8.5510  -14.8780  -29.0060 C.ar      1 DIF501      0.0000 
      3 CL2        -7.2680  -13.8110  -29.2480 Cl        1 DIF501      0.0000 
      4 C3         -9.9130  -14.4960  -29.1610 C.ar      1 DIF501      0.0000 
      5 C4        -10.9140  -15.4610  -28.9430 C.ar      1 DIF501      0.0000 
      6 CL4       -12.5520  -15.0820  -29.1130 Cl        1 DIF501      0.0000 
      7 C5        -10.5560  -16.7660  -28.5780 C.ar      1 DIF501      0.0000 
      8 C6         -9.2140  -17.1220  -28.4270 C.ar      1 DIF501      0.0000 
      9 N1        -10.2160  -13.1640  -29.5280 N.pl3     1 DIF501      0.0000 
     10 C7         -9.4200  -10.9430  -29.1770 C.ar      1 DIF501      0.0000 
     11 C8         -9.7460  -12.1890  -28.6290 C.ar      1 DIF501      0.0000 
     12 C9         -9.5840  -12.3950  -27.2500 C.ar      1 DIF501      0.0000 
     13 C10        -9.1020  -11.3620  -26.4440 C.ar      1 DIF501      0.0000 
     14 C11        -8.7790  -10.1210  -27.0030 C.ar      1 DIF501      0.0000 
     15 C12        -8.9400   -9.9120  -28.3740 C.ar      1 DIF501      0.0000 
     16 C13        -9.5880  -10.7280  -30.6080 C.3       1 DIF501      0.0000 
     17 C14       -10.7950   -9.9890  -30.8370 C.2       1 DIF501      0.0000 
     18 O1        -11.8520  -10.4410  -30.4210 O.co2     1 DIF501      0.0000 
     19 O2        -10.7720   -8.8390  -31.4910 O.co2     1 DIF501      0.0000 
     20 H          -7.2286  -16.4410  -28.5307 H         1 DIF501      0.0000 
     21 H         -11.2927  -17.4690  -28.4198 H         1 DIF501      0.0000 
     22 H          -8.9670  -18.0813  -28.1575 H         1 DIF501      0.0000 
     23 H         -10.7147  -12.9414  -30.3456 H         1 DIF501      0.0000 
     24 H          -9.8200  -13.3032  -26.8389 H         1 DIF501      0.0000 
     25 H          -8.9833  -11.5130  -25.4336 H         1 DIF501      0.0000 
     26 H          -8.4246   -9.3667  -26.4057 H         1 DIF501      0.0000 
     27 H          -8.7054   -9.0032  -28.7856 H         1 DIF501      0.0000 
     28 H          -9.6250  -11.6988  -31.1258 H         1 DIF501      0.0000 
     29 H          -8.7187  -10.1809  -31.0042 H         1 DIF501      0.0000 
@<TRIPOS>BOND
     1    2    1 ar   
     2    8    1 ar   
     3   20    1 1    
     4    3    2 1    
     5    4    2 ar   
     6    5    4 ar   
     7    9    4 1    
     8    6    5 1    
     9    7    5 ar   
    10    8    7 ar   
    11   21    7 1    
    12   22    8 1    
    13   11    9 1    
    14   23    9 1    
    15   11   10 ar   
    16   15   10 ar   
    17   16   10 1    
    18   12   11 ar   
    19   13   12 ar   
    20   24   12 1    
    21   14   13 ar   
    22   25   13 1    
    23   15   14 ar   
    24   26   14 1    
    25   27   15 1    
    26   17   16 1    
    27   28   16 1    
    28   29   16 1    
    29   18   17 ar   
    30   19   17 ar   
@<TRIPOS>SUBSTRUCTURE
     1 DIF501      1 GROUP   
@<TRIPOS>SET

