#    Name: 2egv_SAM_1_INTS_M
#    Modification time : Tue Mar 25 11:02:06 2014

@<TRIPOS>MOLECULE
2egv_SAM_1_INTS_M
   71     0     9     0     0
SMALL
NO_CHARGES


@<TRIPOS>ATOM
      1 CA         22.9840   -6.5395   12.4355 C.3       3 GLC5        0.0000 
      2 CA         24.9260   -6.2580   13.1670 C.3       9 GLL5        0.0000 
      3 CA         21.0420   -6.8210   11.7040 C.3       6 GLP5        0.0000 
      4 CA         24.2420   -5.0625   11.8000 C.3       3 GLC5        0.0000 
      5 CA         23.5580   -3.8670   10.4330 C.3       6 GLP5        0.0000 
      6 CA         26.5360   -7.8170   15.0370 C.3       3 GLC5        0.0000 
      7 CA         27.0960   -5.7320   14.8240 C.3       9 GLL5        0.0000 
      8 CA         25.9760   -9.9020   15.2500 C.3       6 GLP5        0.0000 
      9 CA         29.0325   -5.8380   15.3875 C.3       3 GLC5        0.0000 
     10 CA         30.9690   -5.9440   15.9510 C.3       6 GLP5        0.0000 
     11 CA         25.5320   -4.5200   11.2830 C.3       3 GLC5        0.0000 
     12 CA         27.5060   -5.1730   12.1330 C.3       9 GLL5        0.0000 
     13 CA         25.2590   -5.1980   10.2425 C.3       3 GLC5        0.0000 
     14 CA         26.9600   -6.5290   10.0520 C.3       9 GLL5        0.0000 
     15 CA         26.6170   -8.5985    7.8725 C.3       3 GLC5        0.0000 
     16 CA         27.8610   -7.2980    9.0860 C.3       9 GLL5        0.0000 
     17 CA         25.3730   -9.8990    6.6590 C.3       6 GLP5        0.0000 
     18 N          28.3120   -5.0855    7.5745 N.am      2 SEC2        0.0000 
     19 N          28.2930   -6.4660    8.0060 N.am      8 SEL2        0.0000 
     20 N          28.3310   -3.7050    7.1430 N.am      5 SEP2        0.0000 
     21 O          27.7280   -7.2015    6.9955 O.2       1 ALC1        0.0000 
     22 O          28.2930   -6.4660    8.0060 O.2       7 ALL1        0.0000 
     23 O          27.1630   -7.9370    5.9850 O.2       4 ALP1        0.0000 
     24 CA         30.7220   -7.9260   10.3360 C.3       3 GLC5        0.0000 
     25 CA         29.0500   -7.6450    9.9850 C.3       9 GLL5        0.0000 
     26 CA         32.3940   -8.2070   10.6870 C.3       6 GLP5        0.0000 
     27 N          28.9995  -10.4160   13.7970 N.am      2 SEC2        0.0000 
     28 N          28.7040  -10.3590   12.3390 N.am      8 SEL2        0.0000 
     29 N          29.2950  -10.4730   15.2550 N.am      5 SEP2        0.0000 
     30 CA         27.0800  -13.7825   10.1295 C.3       3 GLC5        0.0000 
     31 CA         28.5210  -12.3810   10.8690 C.3       9 GLL5        0.0000 
     32 CA         25.6390  -15.1840    9.3900 C.3       6 GLP5        0.0000 
     33 CA         29.9950  -13.4570   10.4420 C.3       3 GLC5        0.0000 
     34 CA         31.4690  -14.5330   10.0150 C.3       6 GLP5        0.0000 
     35 O          28.7290  -14.7625   11.5105 O.2       1 ALC1        0.0000 
     36 O          28.4550  -13.3100   11.8180 O.2       7 ALL1        0.0000 
     37 O          29.0030  -16.2150   11.2030 O.2       4 ALP1        0.0000 
     38 O          28.6535  -13.6855   13.2775 O.2       1 ALC1        0.0000 
     39 O          28.8520  -14.0610   14.7370 O.2       4 ALP1        0.0000 
     40 N          28.9985  -13.9855    9.1520 N.am      2 SEC2        0.0000 
     41 N          28.4870  -12.7290    9.5750 N.am      8 SEL2        0.0000 
     42 N          29.5100  -15.2420    8.7290 N.am      5 SEP2        0.0000 
     43 CA         29.9210  -11.4300    7.1770 C.3       3 GLC5        0.0000 
     44 CA         28.5610  -11.8210    8.6170 C.3       9 GLL5        0.0000 
     45 CA         31.2810  -11.0390    5.7370 C.3       6 GLP5        0.0000 
     46 CA         26.9670  -10.8600    7.6380 C.3       3 GLC5        0.0000 
     47 CA         26.5685  -11.6435    9.3240 C.3       3 GLC5        0.0000 
     48 CA         24.5760  -11.4660   10.0310 C.3       6 GLP5        0.0000 
     49 CA         28.1650  -13.5895    7.8325 C.3       3 GLC5        0.0000 
     50 CA         27.7690  -15.3580    7.0480 C.3       6 GLP5        0.0000 
     51 CA         30.3035  -12.7225    8.7735 C.3       3 GLC5        0.0000 
     52 CA         32.0460  -13.6240    8.9300 C.3       6 GLP5        0.0000 
     53 CA         30.5540   -9.1600   10.4240 C.3       3 GLC5        0.0000 
     54 CA         28.7140  -10.1130   10.1610 C.3       9 GLL5        0.0000 
     55 CA         22.5248   -6.9858   13.9650 C.3       3 GLC5        0.0000 
     56 CA         24.2880   -6.0030   14.5340 C.3       9 GLL5        0.0000 
     57 CA         20.7040   -7.3550   12.9430 C.3       6 GLP5        0.0000 
     58 CA         25.1608   -8.2592   15.1185 C.3       3 GLC5        0.0000 
     59 CA         25.9065   -8.1235   14.2228 C.3       3 GLC5        0.0000 
     60 CA         29.7000   -4.8332   12.0470 C.3       3 GLC5        0.0000 
     61 CA         31.6380   -4.2210   12.6290 C.3       6 GLP5        0.0000 
     62 CA         27.4320   -4.4567    9.0783 C.3       3 GLC5        0.0000 
     63 CA         28.0180   -5.7180   10.7970 C.3       9 GLL5        0.0000 
     64 CA         27.3750   -2.7900    7.7320 C.3       6 GLP5        0.0000 
     65 CA         29.1782   -8.2067    7.7012 C.3       3 GLC5        0.0000 
     66 CA         29.9010   -8.9420    5.8670 C.3       6 GLP5        0.0000 
     67 CA         29.8708   -6.0827    8.6827 C.3       3 GLC5        0.0000 
     68 CA         31.2860   -4.6940    7.8300 C.3       6 GLP5        0.0000 
     69 CA         26.8141  -10.8727   10.9774 C.3       3 GLC5        0.0000 
     70 CA         28.6360  -11.0350   11.1960 C.3       9 GLL5        0.0000 
     71 CA         24.9820  -10.8350   11.3580 C.3       6 GLP5        0.0000 
@<TRIPOS>BOND
@<TRIPOS>SUBSTRUCTURE
     1 ALC1       21 GROUP        1 X    ALC  0     ROOT ALC X 1
     2 SEC2       18 GROUP        1 X    SEC  0     **** SEC X 2
     3 GLC5        1 GROUP        1 X    GLC  0     **** GLC X 6
     4 ALP1       23 GROUP        1 Y    ALP  0     ROOT ALP Y 8
     5 SEP2       20 GROUP        1 Y    SEP  0     **** SEP Y 9
     6 GLP5        3 GROUP        1 Y    GLP  0     **** GLP Y 13
     7 ALL1       22 GROUP        1 Z    ALL  0     ROOT ALL Z 15
     8 SEL2       19 GROUP        1 Z    SEL  0     **** SEL Z 16
     9 GLL5        2 GROUP        1 Z    GLL  0     **** GLL Z 20
@<TRIPOS>SET

