#    Name: 2egv_SAM_1_ligand
#    Modification time : Tue Mar 25 11:02:06 2014

@<TRIPOS>MOLECULE
2egv_SAM_1_ligand
   50    52     1     0     0
SMALL
NO_CHARGES


@<TRIPOS>ATOM
      1 N          23.5460   -8.3020   14.9130 N.4       1 SAM1300     0.0000 
      2 CA         24.4030   -7.2300   15.4400 C.3       1 SAM1300     0.0000 
      3 C          23.9400   -6.8750   16.8540 C.2       1 SAM1300     0.0000 
      4 O          24.7760   -7.0120   17.7740 O.co2     1 SAM1300     0.0000 
      5 OXT        22.7600   -6.4840   16.9830 O.co2     1 SAM1300     0.0000 
      6 CB         24.2880   -6.0030   14.5340 C.3       1 SAM1300     0.0000 
      7 CG         24.9260   -6.2580   13.1670 C.3       1 SAM1300     0.0000 
      8 SD         26.7480   -6.4320   13.2240 S.3       1 SAM1300     0.0000 
      9 CE         27.0960   -5.7320   14.8240 C.3       1 SAM1300     0.0000 
     10 C5'        27.5060   -5.1730   12.1330 C.3       1 SAM1300     0.0000 
     11 C4'        28.0180   -5.7180   10.7970 C.3       1 SAM1300     0.0000 
     12 O4'        29.1310   -6.6080   10.9790 O.3       1 SAM1300     0.0000 
     13 C3'        26.9600   -6.5290   10.0520 C.3       1 SAM1300     0.0000 
     14 O3'        26.1320   -5.6300    9.3090 O.3       1 SAM1300     0.0000 
     15 C2'        27.8610   -7.2980    9.0860 C.3       1 SAM1300     0.0000 
     16 O2'        28.2930   -6.4660    8.0060 O.3       1 SAM1300     0.0000 
     17 C1'        29.0500   -7.6450    9.9850 C.3       1 SAM1300     0.0000 
     18 N9         28.8350   -8.9130   10.7180 N.pl3     1 SAM1300     0.0000 
     19 C8         28.8210   -9.0670   12.0410 C.2       1 SAM1300     0.0000 
     20 N7         28.7040  -10.3590   12.3390 N.2       1 SAM1300     0.0000 
     21 C5         28.6360  -11.0350   11.1960 C.ar      1 SAM1300     0.0000 
     22 C6         28.5210  -12.3810   10.8690 C.ar      1 SAM1300     0.0000 
     23 N6         28.4550  -13.3100   11.8180 N.pl3     1 SAM1300     0.0000 
     24 N1         28.4870  -12.7290    9.5750 N.ar      1 SAM1300     0.0000 
     25 C2         28.5610  -11.8210    8.6170 C.ar      1 SAM1300     0.0000 
     26 N3         28.6710  -10.5330    8.8890 N.ar      1 SAM1300     0.0000 
     27 C4         28.7140  -10.1130   10.1610 C.ar      1 SAM1300     0.0000 
     28 H          25.4214   -7.5428   15.4761 H         1 SAM1300     0.0000 
     29 H          24.7863   -5.1577   15.0100 H         1 SAM1300     0.0000 
     30 H          23.2347   -5.7555   14.3973 H         1 SAM1300     0.0000 
     31 H          24.8022   -5.4436   12.4744 H         1 SAM1300     0.0000 
     32 H          24.6278   -7.1899   12.7188 H         1 SAM1300     0.0000 
     33 H          28.2861   -4.7732   12.7626 H         1 SAM1300     0.0000 
     34 H          26.7047   -4.4578   12.0279 H         1 SAM1300     0.0000 
     35 H          28.3022   -4.8897   10.1627 H         1 SAM1300     0.0000 
     36 H          26.4943   -7.1683   10.6868 H         1 SAM1300     0.0000 
     37 H          27.3850   -8.1816    8.8040 H         1 SAM1300     0.0000 
     38 H          29.9308   -7.6845    9.4049 H         1 SAM1300     0.0000 
     39 H          28.8868   -8.3397   12.6948 H         1 SAM1300     0.0000 
     40 H          28.4629  -12.9772   12.7609 H         1 SAM1300     0.0000 
     41 H          28.4034  -14.2577   11.5031 H         1 SAM1300     0.0000 
     42 H          28.5312  -12.1356    7.6026 H         1 SAM1300     0.0000 
     43 H          23.8097   -8.5661   13.9852 H         1 SAM1300     0.0000 
     44 H          23.5933   -9.1264   15.4770 H         1 SAM1300     0.0000 
     45 H          22.5855   -8.0260   14.8773 H         1 SAM1300     0.0000 
     46 H          28.0755   -5.5827   14.9590 H         1 SAM1300     0.0000 
     47 H          26.6448   -4.8483   14.9489 H         1 SAM1300     0.0000 
     48 H          26.7854   -6.3270   15.5652 H         1 SAM1300     0.0000 
     49 H          26.6164   -5.4853    8.4462 H         1 SAM1300     0.0000 
     50 H          27.9637   -6.9229    7.1797 H         1 SAM1300     0.0000 
@<TRIPOS>BOND
     1    2    1 1    
     2   43    1 1    
     3   44    1 1    
     4   45    1 1    
     5    3    2 1    
     6    6    2 1    
     7   28    2 1    
     8    4    3 ar   
     9    5    3 ar   
    10    7    6 1    
    11   29    6 1    
    12   30    6 1    
    13    8    7 1    
    14   31    7 1    
    15   32    7 1    
    16    9    8 1    
    17   10    8 1    
    18   46    9 1    
    19   47    9 1    
    20   48    9 1    
    21   11   10 1    
    22   33   10 1    
    23   34   10 1    
    24   12   11 1    
    25   13   11 1    
    26   35   11 1    
    27   17   12 1    
    28   14   13 1    
    29   15   13 1    
    30   36   13 1    
    31   49   14 1    
    32   16   15 1    
    33   17   15 1    
    34   37   15 1    
    35   50   16 1    
    36   18   17 1    
    37   38   17 1    
    38   19   18 1    
    39   27   18 1    
    40   20   19 2    
    41   39   19 1    
    42   21   20 1    
    43   22   21 ar   
    44   27   21 ar   
    45   23   22 1    
    46   24   22 ar   
    47   40   23 1    
    48   41   23 1    
    49   25   24 ar   
    50   26   25 ar   
    51   42   25 1    
    52   27   26 ar   
@<TRIPOS>SUBSTRUCTURE
     1 SAM1300     1 GROUP   
@<TRIPOS>SET

