#    Name: 1ez4_NAD_4_INTS_M
#    Modification time : Tue Mar 25 00:27:18 2014

@<TRIPOS>MOLECULE
1ez4_NAD_4_INTS_M
   74     0     9     0     0
SMALL
NO_CHARGES


@<TRIPOS>ATOM
      1 CA         66.4640   37.9300    5.6570 C.3       3 GLC5        0.0000 
      2 CA         67.3980   39.0180    3.9420 C.3       9 GLL5        0.0000 
      3 CA         65.5300   36.8420    7.3720 C.3       6 GLP5        0.0000 
      4 N          67.4740   36.9800    5.6875 N.am      2 SEC2        0.0000 
      5 N          67.8930   38.5290    5.2160 N.am      8 SEL2        0.0000 
      6 N          67.0550   35.4310    6.1590 N.am      5 SEP2        0.0000 
      7 O          67.1880   42.0320    4.1855 O.2       1 ALC1        0.0000 
      8 O          67.6730   41.3360    3.1260 O.2       7 ALL1        0.0000 
      9 O          66.7030   42.7280    5.2450 O.2       4 ALP1        0.0000 
     10 O          69.1630   41.9885    5.7850 O.2       1 ALC1        0.0000 
     11 O          70.1840   41.3660    4.7660 O.2       7 ALL1        0.0000 
     12 O          68.1420   42.6110    6.8040 O.2       4 ALP1        0.0000 
     13 CA         67.4310   38.5945    7.1290 C.3       3 GLC5        0.0000 
     14 CA         68.7160   39.5980    5.7170 C.3       9 GLL5        0.0000 
     15 CA         66.1460   37.5910    8.5410 C.3       6 GLP5        0.0000 
     16 CA         70.9715   41.2765    9.5250 C.3       3 GLC5        0.0000 
     17 CA         70.8160   39.3440   10.0710 C.3       9 GLL5        0.0000 
     18 CA         71.1270   43.2090    8.9790 C.3       6 GLP5        0.0000 
     19 CA         69.9475   41.8450    9.5270 C.3       3 GLC5        0.0000 
     20 CA         68.7680   40.4810   10.0750 C.3       9 GLL5        0.0000 
     21 CA         67.4570   39.0360    9.3080 C.3       3 GLC5        0.0000 
     22 CA         67.7795   38.8815   11.0610 C.3       3 GLC5        0.0000 
     23 CA         66.7910   37.2820   12.0470 C.3       6 GLP5        0.0000 
     24 CA         67.8575   38.6535    8.2890 C.3       3 GLC5        0.0000 
     25 CA         69.5690   39.7160    8.0370 C.3       9 GLL5        0.0000 
     26 N          62.4020   37.7830    0.1195 N.am      2 SEC2        0.0000 
     27 N          63.7700   37.4860    0.6090 N.am      8 SEL2        0.0000 
     28 N          61.0340   38.0800   -0.3700 N.am      5 SEP2        0.0000 
     29 CA         62.4370   35.6820    1.8160 C.3       3 GLC5        0.0000 
     30 CA         64.4240   35.1880    2.5480 C.3       9 GLL5        0.0000 
     31 CA         60.4500   36.1760    1.0840 C.3       6 GLP5        0.0000 
     32 CA         66.4450   33.5230    4.4890 C.3       3 GLC5        0.0000 
     33 CA         64.9720   32.7680    3.0260 C.3       9 GLL5        0.0000 
     34 CA         67.9180   34.2780    5.9520 C.3       6 GLP5        0.0000 
     35 N          64.7945   31.0245    4.8510 N.am      2 SEC2        0.0000 
     36 N          65.4680   32.0230    4.1680 N.am      8 SEL2        0.0000 
     37 N          64.1210   30.0260    5.5340 N.am      5 SEP2        0.0000 
     38 CA         64.3785   30.1285    2.9750 C.3       3 GLC5        0.0000 
     39 CA         64.1410   31.9500    2.0410 C.3       9 GLL5        0.0000 
     40 CA         64.6160   28.3070    3.9090 C.3       6 GLP5        0.0000 
     41 N          63.6605   29.6855    2.3465 N.am      2 SEC2        0.0000 
     42 N          64.6120   30.5910    2.0130 N.am      8 SEL2        0.0000 
     43 N          62.7090   28.7800    2.6800 N.am      5 SEP2        0.0000 
     44 CA         61.7395   33.6445    1.2955 C.3       3 GLC5        0.0000 
     45 CA         62.7000   32.1520    2.5620 C.3       9 GLL5        0.0000 
     46 CA         60.7790   35.1370    0.0290 C.3       6 GLP5        0.0000 
     47 CA         62.8885   31.9800    4.7410 C.3       3 GLC5        0.0000 
     48 CA         63.0770   31.8080    6.9200 C.3       6 GLP5        0.0000 
     49 O          59.9080   30.1380    4.6740 O.2       1 ALC1        0.0000 
     50 O          58.9590   29.1470    3.8660 O.2       7 ALL1        0.0000 
     51 O          60.8570   31.1290    5.4820 O.2       4 ALP1        0.0000 
     52 O          57.8735   29.0990    4.8085 O.2       1 ALC1        0.0000 
     53 O          56.7880   29.0510    5.7510 O.2       4 ALP1        0.0000 
     54 CA         61.2115   33.3350    0.1525 C.3       3 GLC5        0.0000 
     55 CA         61.6440   31.5330    0.2760 C.3       9 GLL5        0.0000 
     56 CA         65.9183   39.5730    2.2228 C.3       3 GLC5        0.0000 
     57 CA         67.3210   37.9020    2.9010 C.3       9 GLL5        0.0000 
     58 CA         64.4770   40.6860    1.0240 C.3       6 GLP5        0.0000 
     59 CA         70.9030   41.1390    8.0143 C.3       3 GLC5        0.0000 
     60 CA         71.6820   42.8120    7.6650 C.3       6 GLP5        0.0000 
     61 CA         69.9996   37.7025    9.4159 C.3       3 GLC5        0.0000 
     62 CA         70.6790   39.2160    8.6900 C.3       9 GLL5        0.0000 
     63 CA         69.8410   35.9070   10.1230 C.3       6 GLP5        0.0000 
     64 CA         63.7845   32.5785    5.0463 C.3       3 GLC5        0.0000 
     65 CA         64.0120   33.9300    3.3190 C.3       9 GLL5        0.0000 
     66 CA         58.5050   31.3375    1.9417 C.3       3 GLC5        0.0000 
     67 CA         60.5680   30.9220    2.3540 C.3       9 GLL5        0.0000 
     68 CA         56.8510   32.2190    1.8610 C.3       6 GLP5        0.0000 
     69 CA         58.6146   29.5672   -0.6508 C.3       3 GLC5        0.0000 
     70 CA         60.7960   30.6530   -0.4200 C.3       9 GLL5        0.0000 
     71 CA         56.9260   28.8420   -1.5870 C.3       6 GLP5        0.0000 
     72 CA         59.2899   32.0286   -0.0846 C.3       3 GLC5        0.0000 
     73 CA         59.8710   29.8740    0.2910 C.3       9 GLL5        0.0000 
     74 CA         57.5910   33.1590   -0.2750 C.3       6 GLP5        0.0000 
@<TRIPOS>BOND
@<TRIPOS>SUBSTRUCTURE
     1 ALC1        7 GROUP        1 X    ALC  0     ROOT ALC X 1
     2 SEC2        4 GROUP        1 X    SEC  0     **** SEC X 2
     3 GLC5        1 GROUP        1 X    GLC  0     **** GLC X 6
     4 ALP1        9 GROUP        1 Y    ALP  0     ROOT ALP Y 8
     5 SEP2        6 GROUP        1 Y    SEP  0     **** SEP Y 9
     6 GLP5        3 GROUP        1 Y    GLP  0     **** GLP Y 13
     7 ALL1        8 GROUP        1 Z    ALL  0     ROOT ALL Z 15
     8 SEL2        5 GROUP        1 Z    SEL  0     **** SEL Z 16
     9 GLL5        2 GROUP        1 Z    GLL  0     **** GLL Z 20
@<TRIPOS>SET

