#    Name: 1ez4_NAD_4_ligand
#    Modification time : Tue Mar 25 00:27:18 2014

@<TRIPOS>MOLECULE
1ez4_NAD_4_ligand
   70    74     1     0     0
SMALL
NO_CHARGES


@<TRIPOS>ATOM
      1 PA         67.2300   37.6220    0.2210 P.3       1 NAD1355     0.0000 
      2 O1A        66.8130   38.4720   -0.9350 O.co2     1 NAD1355     0.0000 
      3 O2A        68.5400   36.9130    0.1790 O.co2     1 NAD1355     0.0000 
      4 O5B        67.1670   38.4820    1.5880 O.3       1 NAD1355     0.0000 
      5 C5B        67.3210   37.9020    2.9010 C.3       1 NAD1355     0.0000 
      6 C4B        67.3980   39.0180    3.9420 C.3       1 NAD1355     0.0000 
      7 O4B        67.8930   38.5290    5.2160 O.3       1 NAD1355     0.0000 
      8 C3B        68.3590   40.1050    3.4460 C.3       1 NAD1355     0.0000 
      9 O3B        67.6730   41.3360    3.1260 O.3       1 NAD1355     0.0000 
     10 C2B        69.4660   40.1390    4.5130 C.3       1 NAD1355     0.0000 
     11 O2B        70.1840   41.3660    4.7660 O.3       1 NAD1355     0.0000 
     12 C1B        68.7160   39.5980    5.7170 C.3       1 NAD1355     0.0000 
     13 N9A        69.6390   39.2140    6.8070 N.pl3     1 NAD1355     0.0000 
     14 C8A        70.7250   38.4240    6.7350 C.2       1 NAD1355     0.0000 
     15 N7A        71.4010   38.4160    7.8960 N.2       1 NAD1355     0.0000 
     16 C5A        70.6790   39.2160    8.6900 C.ar      1 NAD1355     0.0000 
     17 C6A        70.8160   39.3440   10.0710 C.ar      1 NAD1355     0.0000 
     18 N6A        71.8240   38.8640   10.7810 N.pl3     1 NAD1355     0.0000 
     19 N1A        69.8230   39.9880   10.7250 N.ar      1 NAD1355     0.0000 
     20 C2A        68.7680   40.4810   10.0750 C.ar      1 NAD1355     0.0000 
     21 N3A        68.6280   40.3710    8.7510 N.ar      1 NAD1355     0.0000 
     22 C4A        69.5690   39.7160    8.0370 C.ar      1 NAD1355     0.0000 
     23 O3         66.1230   36.5020    0.4930 O.3       1 NAD1355     0.0000 
     24 PN         64.5670   36.3230    0.1550 P.3       1 NAD1355     0.0000 
     25 O1N        64.4090   35.9310   -1.2690 O.co2     1 NAD1355     0.0000 
     26 O2N        63.7700   37.4860    0.6090 O.co2     1 NAD1355     0.0000 
     27 O5D        64.2600   35.0680    1.1160 O.3       1 NAD1355     0.0000 
     28 C5D        64.4240   35.1880    2.5480 C.3       1 NAD1355     0.0000 
     29 C4D        64.0120   33.9300    3.3190 C.3       1 NAD1355     0.0000 
     30 O4D        62.6480   33.5390    2.9920 O.3       1 NAD1355     0.0000 
     31 C3D        64.9720   32.7680    3.0260 C.3       1 NAD1355     0.0000 
     32 O3D        65.4680   32.0230    4.1680 O.3       1 NAD1355     0.0000 
     33 C2D        64.1410   31.9500    2.0410 C.3       1 NAD1355     0.0000 
     34 O2D        64.6120   30.5910    2.0130 O.3       1 NAD1355     0.0000 
     35 C1D        62.7000   32.1520    2.5620 C.3       1 NAD1355     0.0000 
     36 N1N        61.5650   31.6660    1.6930 N.pl3     1 NAD1355     0.0000 
     37 C2N        60.5680   30.9220    2.3540 C.ar      1 NAD1355     0.0000 
     38 C3N        59.7500   29.9900    1.6910 C.ar      1 NAD1355     0.0000 
     39 C7N        58.9200   29.0040    2.5490 C.2       1 NAD1355     0.0000 
     40 O7N        58.2830   28.0680    2.0550 O.2       1 NAD1355     0.0000 
     41 N7N        58.9590   29.1470    3.8660 N.am      1 NAD1355     0.0000 
     42 C4N        59.8710   29.8740    0.2910 C.ar      1 NAD1355     0.0000 
     43 C5N        60.7960   30.6530   -0.4200 C.ar      1 NAD1355     0.0000 
     44 C6N        61.6440   31.5330    0.2760 C.ar      1 NAD1355     0.0000 
     45 H          68.2365   37.3099    2.9714 H         1 NAD1355     0.0000 
     46 H          66.4748   37.2595    3.1557 H         1 NAD1355     0.0000 
     47 H          66.4264   39.4625    4.0493 H         1 NAD1355     0.0000 
     48 H          68.8296   39.6643    2.5361 H         1 NAD1355     0.0000 
     49 H          70.1617   39.3087    4.2307 H         1 NAD1355     0.0000 
     50 H          68.0665   40.4195    6.0608 H         1 NAD1355     0.0000 
     51 H          70.9905   37.9159    5.9324 H         1 NAD1355     0.0000 
     52 H          72.5557   38.4212   10.2628 H         1 NAD1355     0.0000 
     53 H          71.7627   38.9875   11.7714 H         1 NAD1355     0.0000 
     54 H          68.0106   40.9797   10.6296 H         1 NAD1355     0.0000 
     55 H          63.8270   36.0345    2.9458 H         1 NAD1355     0.0000 
     56 H          65.4795   35.4095    2.8089 H         1 NAD1355     0.0000 
     57 H          64.0874   34.1532    4.3849 H         1 NAD1355     0.0000 
     58 H          65.7883   33.2028    2.4272 H         1 NAD1355     0.0000 
     59 H          64.2147   32.4452    1.0899 H         1 NAD1355     0.0000 
     60 H          62.6786   31.5315    3.5272 H         1 NAD1355     0.0000 
     61 H          60.4319   31.0692    3.3766 H         1 NAD1355     0.0000 
     62 H          59.5091   29.9080    4.2099 H         1 NAD1355     0.0000 
     63 H          58.4348   28.4810    4.3966 H         1 NAD1355     0.0000 
     64 H          59.2705   29.2071   -0.2139 H         1 NAD1355     0.0000 
     65 H          60.8545   30.5827   -1.4368 H         1 NAD1355     0.0000 
     66 H          62.3353   32.0934   -0.2385 H         1 NAD1355     0.0000 
     67 H          67.3953   41.7145    4.0090 H         1 NAD1355     0.0000 
     68 H          69.6151   41.8692    5.4165 H         1 NAD1355     0.0000 
     69 H          66.2041   32.5858    4.5441 H         1 NAD1355     0.0000 
     70 H          64.9772   30.4249    2.9290 H         1 NAD1355     0.0000 
@<TRIPOS>BOND
     1    2    1 ar   
     2    3    1 ar   
     3    4    1 1    
     4   23    1 1    
     5    5    4 1    
     6    6    5 1    
     7   45    5 1    
     8   46    5 1    
     9    7    6 1    
    10    8    6 1    
    11   47    6 1    
    12   12    7 1    
    13    9    8 1    
    14   10    8 1    
    15   48    8 1    
    16   67    9 1    
    17   11   10 1    
    18   12   10 1    
    19   49   10 1    
    20   68   11 1    
    21   13   12 1    
    22   50   12 1    
    23   14   13 1    
    24   22   13 1    
    25   15   14 2    
    26   51   14 1    
    27   16   15 1    
    28   17   16 ar   
    29   22   16 ar   
    30   18   17 1    
    31   19   17 ar   
    32   52   18 1    
    33   53   18 1    
    34   20   19 ar   
    35   21   20 ar   
    36   54   20 1    
    37   22   21 ar   
    38   24   23 1    
    39   25   24 ar   
    40   26   24 ar   
    41   27   24 1    
    42   28   27 1    
    43   29   28 1    
    44   55   28 1    
    45   56   28 1    
    46   30   29 1    
    47   31   29 1    
    48   57   29 1    
    49   35   30 1    
    50   32   31 1    
    51   33   31 1    
    52   58   31 1    
    53   69   32 1    
    54   34   33 1    
    55   35   33 1    
    56   59   33 1    
    57   70   34 1    
    58   36   35 1    
    59   60   35 1    
    60   37   36 ar   
    61   44   36 ar   
    62   38   37 ar   
    63   61   37 1    
    64   39   38 1    
    65   42   38 ar   
    66   40   39 2    
    67   41   39 am   
    68   62   41 1    
    69   63   41 1    
    70   43   42 ar   
    71   64   42 1    
    72   44   43 ar   
    73   65   43 1    
    74   66   44 1    
@<TRIPOS>SUBSTRUCTURE
     1 NAD1355     1 GROUP   
@<TRIPOS>SET

