#    Name: 3fpk_FAD_1_INTS_M
#    Modification time : Tue Mar 25 06:12:54 2014

@<TRIPOS>MOLECULE
3fpk_FAD_1_INTS_M
   85     0    12     0     0
SMALL
NO_CHARGES


@<TRIPOS>ATOM
      1 NZ          8.0910  -23.0070   16.3705 N.4       3 LYC4        0.0000 
      2 NZ          7.6200  -24.4410   16.8260 N.4      11 LYL4        0.0000 
      3 NZ          9.3360  -22.0150   14.9340 N.4       7 LYP4        0.0000 
      4 N           8.0910  -23.0070   16.3705 N.am      2 SEC2        0.0000 
      5 N           7.6200  -24.4410   16.8260 N.am     10 SEL2        0.0000 
      6 N           8.5620  -21.5730   15.9150 N.am      6 SEP2        0.0000 
      7 N           8.7455  -23.8330   15.9370 N.am      2 SEC2        0.0000 
      8 N           9.8710  -23.2250   15.0480 N.am      6 SEP2        0.0000 
      9 N          10.6465  -25.5290   18.4600 N.am      2 SEC2        0.0000 
     10 N           9.5610  -25.8790   17.6510 N.am     10 SEL2        0.0000 
     11 N          11.7320  -25.1790   19.2690 N.am      6 SEP2        0.0000 
     12 CA          1.2355  -25.3720   18.2625 C.3       4 GLC5        0.0000 
     13 CA          2.5590  -26.5610   18.2150 C.3      12 GLL5        0.0000 
     14 CA         -0.0880  -24.1830   18.3100 C.3       8 GLP5        0.0000 
     15 CA          1.2620  -25.7485   19.5395 C.3       4 GLC5        0.0000 
     16 CA          3.1430  -26.5360   19.5840 C.3      12 GLL5        0.0000 
     17 CA         -0.6190  -24.9610   19.4950 C.3       8 GLP5        0.0000 
     18 CA          4.5810  -25.9565   22.3315 C.3       4 GLC5        0.0000 
     19 CA          2.6360  -25.5930   21.6140 C.3      12 GLL5        0.0000 
     20 CA          6.5260  -26.3200   23.0490 C.3       8 GLP5        0.0000 
     21 N           4.9410  -18.4940   25.7870 N.am      2 SEC2        0.0000 
     22 N           4.1920  -18.0520   24.4760 N.am     10 SEL2        0.0000 
     23 N           5.6900  -18.9360   27.0980 N.am      6 SEP2        0.0000 
     24 O           3.5210  -15.4700   25.0165 O.2       1 ALC1        0.0000 
     25 O           3.3170  -16.0830   23.8360 O.2       9 ALL1        0.0000 
     26 O           3.7250  -14.8570   26.1970 O.2       5 ALP1        0.0000 
     27 N           2.3590  -13.1470   21.9025 N.am      2 SEC2        0.0000 
     28 N           2.4010  -14.1690   23.0430 N.am     10 SEL2        0.0000 
     29 N           2.3170  -12.1250   20.7620 N.am      6 SEP2        0.0000 
     30 N           1.9550  -13.7260   20.7400 N.am      2 SEC2        0.0000 
     31 N           1.5930  -15.3270   20.7180 N.am     10 SEL2        0.0000 
     32 CA          0.8235  -13.2410   17.9295 C.3       4 GLC5        0.0000 
     33 CA          0.4640  -15.2960   18.5940 C.3      12 GLL5        0.0000 
     34 CA          1.1830  -11.1860   17.2650 C.3       8 GLP5        0.0000 
     35 CA         -0.7015  -13.4860   16.0200 C.3       4 GLC5        0.0000 
     36 CA         -0.7300  -15.1730   16.3890 C.3      12 GLL5        0.0000 
     37 CA         -0.6730  -11.7990   15.6510 C.3       8 GLP5        0.0000 
     38 CA         -2.8265  -15.1240   16.8610 C.3       4 GLC5        0.0000 
     39 CA         -4.9230  -15.0750   17.3330 C.3       8 GLP5        0.0000 
     40 CA          0.0350  -18.5545   20.0095 C.3       4 GLC5        0.0000 
     41 CA          1.5010  -17.3320   19.3390 C.3      12 GLL5        0.0000 
     42 CA         -1.4310  -19.7770   20.6800 C.3       8 GLP5        0.0000 
     43 CA          0.7625  -19.5475   20.2610 C.3       4 GLC5        0.0000 
     44 CA          2.9560  -19.3180   19.8420 C.3      12 GLL5        0.0000 
     45 O           4.3825  -17.1255   18.3645 O.2       1 ALC1        0.0000 
     46 O           4.4220  -18.3890   18.1110 O.2       9 ALL1        0.0000 
     47 O           4.3430  -15.8620   18.6180 O.2       5 ALP1        0.0000 
     48 N           7.5245  -19.0405   20.7560 N.am      2 SEC2        0.0000 
     49 N           6.6360  -20.0300   21.1740 N.am     10 SEL2        0.0000 
     50 N           8.4130  -18.0510   20.3380 N.am      6 SEP2        0.0000 
     51 NZ          9.1795  -22.0670   17.1515 N.4       3 LYC4        0.0000 
     52 NZ          9.7970  -22.5610   18.3880 N.4      11 LYL4        0.0000 
     53 N           9.1795  -22.0670   17.1515 N.am      2 SEC2        0.0000 
     54 N           9.7970  -22.5610   18.3880 N.am     10 SEL2        0.0000 
     55 N          11.1070  -22.4450   18.7735 N.am      2 SEC2        0.0000 
     56 N          12.4170  -22.3290   19.1590 N.am      6 SEP2        0.0000 
     57 N          10.4150  -21.9660   21.2155 N.am      2 SEC2        0.0000 
     58 N           9.4490  -22.9370   20.8530 N.am     10 SEL2        0.0000 
     59 N          11.3810  -20.9950   21.5780 N.am      6 SEP2        0.0000 
     60 N           9.4775  -22.6220   22.1680 N.am      2 SEC2        0.0000 
     61 N           9.5060  -22.3070   23.4830 N.am      6 SEP2        0.0000 
     62 CA          4.2402  -24.2000   23.2935 C.3       4 GLC5        0.0000 
     63 CA          2.5050  -24.4200   22.3470 C.3      12 GLL5        0.0000 
     64 CA          6.1720  -23.8950   23.5760 C.3       8 GLP5        0.0000 
     65 CA          2.0085  -15.4370   17.4632 C.3       4 GLC5        0.0000 
     66 CA          1.1700  -15.9740   19.5610 C.3      12 GLL5        0.0000 
     67 CA          3.2000  -15.2390   15.8490 C.3       8 GLP5        0.0000 
     68 CA          2.5380  -14.4725   19.4688 C.3       4 GLC5        0.0000 
     69 CA          4.2590  -13.3100   19.8600 C.3       8 GLP5        0.0000 
     70 CA          1.4305  -15.3963   16.3755 C.3       4 GLC5        0.0000 
     71 CA          0.0520  -15.9340   17.4150 C.3      12 GLL5        0.0000 
     72 CA          1.6893  -16.4522   16.2057 C.3       4 GLC5        0.0000 
     73 CA          0.3730  -17.2900   17.1950 C.3      12 GLL5        0.0000 
     74 CA          2.2540  -16.4428   17.2955 C.3       4 GLC5        0.0000 
     75 CA          1.1150  -17.9610   18.1450 C.3      12 GLL5        0.0000 
     76 CA         -0.5591  -18.8871   18.2664 C.3       4 GLC5        0.0000 
     77 CA         -1.7650  -19.9610   19.1790 C.3       8 GLP5        0.0000 
     78 CA          6.2995  -18.8582   18.1743 C.3       4 GLC5        0.0000 
     79 CA          4.4160  -19.0580   19.3780 C.3      12 GLL5        0.0000 
     80 CA          7.7780  -18.0100   17.0400 C.3       8 GLP5        0.0000 
     81 CA          5.9715  -18.5299   20.6576 C.3       4 GLC5        0.0000 
     82 CA          5.2260  -20.3550   19.2390 C.3      12 GLL5        0.0000 
     83 CA          6.6720  -16.7420   21.3810 C.3       8 GLP5        0.0000 
     84 CA          6.1242  -22.7467   21.9985 C.3       4 GLC5        0.0000 
     85 CA          5.7210  -20.9290   20.5600 C.3      12 GLL5        0.0000 
@<TRIPOS>BOND
@<TRIPOS>SUBSTRUCTURE
     1 ALC1       24 GROUP        1 X    ALC  0     ROOT ALC X 1
     2 SEC2        4 GROUP        1 X    SEC  0     **** SEC X 2
     3 LYC4        1 GROUP        1 X    LYC  0     **** LYC X 4
     4 GLC5       12 GROUP        1 X    GLC  0     **** GLC X 6
     5 ALP1       26 GROUP        1 Y    ALP  0     ROOT ALP Y 8
     6 SEP2        6 GROUP        1 Y    SEP  0     **** SEP Y 9
     7 LYP4        3 GROUP        1 Y    LYP  0     **** LYP Y 11
     8 GLP5       14 GROUP        1 Y    GLP  0     **** GLP Y 13
     9 ALL1       25 GROUP        1 Z    ALL  0     ROOT ALL Z 15
    10 SEL2        5 GROUP        1 Z    SEL  0     **** SEL Z 16
    11 LYL4        2 GROUP        1 Z    LYL  0     **** LYL Z 18
    12 GLL5       13 GROUP        1 Z    GLL  0     **** GLL Z 20
@<TRIPOS>SET

