#    Name: 3fpk_FAD_1_ligand
#    Modification time : Tue Mar 25 06:12:54 2014

@<TRIPOS>MOLECULE
3fpk_FAD_1_ligand
   84    89     1     0     0
SMALL
NO_CHARGES


@<TRIPOS>ATOM
      1 PA          8.1670  -25.2900   17.9300 P.3       1 FAD301      0.0000 
      2 O1A         7.6200  -24.4410   16.8260 O.co2     1 FAD301      0.0000 
      3 O2A         9.5610  -25.8790   17.6510 O.co2     1 FAD301      0.0000 
      4 O5B         7.1100  -26.4090   18.3630 O.3       1 FAD301      0.0000 
      5 C5B         5.8550  -25.8570   18.3900 C.3       1 FAD301      0.0000 
      6 C4B         4.9180  -26.9800   18.2360 C.3       1 FAD301      0.0000 
      7 O4B         4.4410  -27.0920   19.5420 O.3       1 FAD301      0.0000 
      8 C3B         3.7920  -26.4660   17.3550 C.3       1 FAD301      0.0000 
      9 O3B         3.6400  -27.2320   16.1890 O.3       1 FAD301      0.0000 
     10 C2B         2.5590  -26.5610   18.2150 C.3       1 FAD301      0.0000 
     11 O2B         2.0030  -27.8530   18.1670 O.3       1 FAD301      0.0000 
     12 C1B         3.1430  -26.5360   19.5840 C.3       1 FAD301      0.0000 
     13 N9A         2.9870  -25.2900   20.3900 N.pl3     1 FAD301      0.0000 
     14 C8A         3.0860  -23.9050   20.2820 C.2       1 FAD301      0.0000 
     15 N7A         2.7790  -23.3720   21.5040 N.2       1 FAD301      0.0000 
     16 C5A         2.5050  -24.4200   22.3470 C.ar      1 FAD301      0.0000 
     17 C6A         2.1120  -24.5900   23.6750 C.ar      1 FAD301      0.0000 
     18 N6A         2.0940  -23.6110   24.5820 N.pl3     1 FAD301      0.0000 
     19 N1A         1.9150  -25.9060   24.1330 N.ar      1 FAD301      0.0000 
     20 C2A         2.0580  -27.0400   23.3610 C.ar      1 FAD301      0.0000 
     21 N3A         2.4420  -26.8720   22.0470 N.ar      1 FAD301      0.0000 
     22 C4A         2.6360  -25.5930   21.6140 C.ar      1 FAD301      0.0000 
     23 N1          3.2750  -18.0570   22.4260 N.2       1 FAD301      0.0000 
     24 C2          3.6240  -17.4190   23.6120 C.2       1 FAD301      0.0000 
     25 O2          4.1920  -18.0520   24.4760 O.2       1 FAD301      0.0000 
     26 N3          3.3170  -16.0830   23.8360 N.am      1 FAD301      0.0000 
     27 C4          2.6400  -15.3800   22.8700 C.2       1 FAD301      0.0000 
     28 O4          2.4010  -14.1690   23.0430 O.2       1 FAD301      0.0000 
     29 C4X         2.2770  -16.0190   21.6670 C.2       1 FAD301      0.0000 
     30 N5          1.5930  -15.3270   20.7180 N.2       1 FAD301      0.0000 
     31 C5X         1.1700  -15.9740   19.5610 C.ar      1 FAD301      0.0000 
     32 C6          0.4640  -15.2960   18.5940 C.ar      1 FAD301      0.0000 
     33 C7          0.0520  -15.9340   17.4150 C.ar      1 FAD301      0.0000 
     34 C7M        -0.7300  -15.1730   16.3890 C.3       1 FAD301      0.0000 
     35 C8          0.3730  -17.2900   17.1950 C.ar      1 FAD301      0.0000 
     36 C8M        -0.0160  -18.0410   15.9300 C.3       1 FAD301      0.0000 
     37 C9          1.1150  -17.9610   18.1450 C.ar      1 FAD301      0.0000 
     38 C9A         1.5010  -17.3320   19.3390 C.ar      1 FAD301      0.0000 
     39 N10         2.2410  -18.0040   20.2510 N.pl3     1 FAD301      0.0000 
     40 C10         2.5620  -17.3820   21.4580 C.2       1 FAD301      0.0000 
     41 C1'         2.9560  -19.3180   19.8420 C.3       1 FAD301      0.0000 
     42 C2'         4.4160  -19.0580   19.3780 C.3       1 FAD301      0.0000 
     43 O2'         4.4220  -18.3890   18.1110 O.3       1 FAD301      0.0000 
     44 C3'         5.2260  -20.3550   19.2390 C.3       1 FAD301      0.0000 
     45 O3'         4.4370  -21.3290   18.5390 O.3       1 FAD301      0.0000 
     46 C4'         5.7210  -20.9290   20.5600 C.3       1 FAD301      0.0000 
     47 O4'         6.6360  -20.0300   21.1740 O.3       1 FAD301      0.0000 
     48 C5'         6.4320  -22.2680   20.2820 C.3       1 FAD301      0.0000 
     49 O5'         7.5500  -22.0430   19.4150 O.3       1 FAD301      0.0000 
     50 P           8.8570  -22.9550   19.5130 P.3       1 FAD301      0.0000 
     51 O1P         9.7970  -22.5610   18.3880 O.co2     1 FAD301      0.0000 
     52 O2P         9.4490  -22.9370   20.8530 O.co2     1 FAD301      0.0000 
     53 O3P         8.2790  -24.4800   19.3040 O.3       1 FAD301      0.0000 
     54 H           5.6878  -25.1484   17.5736 H         1 FAD301      0.0000 
     55 H           5.6378  -25.3481   19.3336 H         1 FAD301      0.0000 
     56 H           5.3643  -27.8002   17.8582 H         1 FAD301      0.0000 
     57 H           3.9767  -25.4259   17.1601 H         1 FAD301      0.0000 
     58 H           1.9278  -25.7891   18.0807 H         1 FAD301      0.0000 
     59 H           2.4976  -27.3423   20.1608 H         1 FAD301      0.0000 
     60 H           3.3244  -23.4306   19.4963 H         1 FAD301      0.0000 
     61 H           2.4308  -22.7208   24.2753 H         1 FAD301      0.0000 
     62 H           1.7454  -23.8557   25.4867 H         1 FAD301      0.0000 
     63 H           1.8870  -27.9635   23.7455 H         1 FAD301      0.0000 
     64 H           3.5958  -15.6334   24.7150 H         1 FAD301      0.0000 
     65 H           0.2267  -14.2956   18.7285 H         1 FAD301      0.0000 
     66 H           1.3968  -18.9442   17.9846 H         1 FAD301      0.0000 
     67 H           2.4050  -19.7832   19.0283 H         1 FAD301      0.0000 
     68 H           2.9718  -19.9932   20.6940 H         1 FAD301      0.0000 
     69 H           4.8989  -18.4445   20.1321 H         1 FAD301      0.0000 
     70 H           6.1151  -20.1131   18.6279 H         1 FAD301      0.0000 
     71 H           4.8732  -21.1314   21.1845 H         1 FAD301      0.0000 
     72 H           5.6985  -22.9437   19.8349 H         1 FAD301      0.0000 
     73 H           6.7396  -22.6836   21.2449 H         1 FAD301      0.0000 
     74 H          -0.2218  -14.3834   16.0452 H         1 FAD301      0.0000 
     75 H          -0.9578  -15.7417   15.5986 H         1 FAD301      0.0000 
     76 H          -1.5921  -14.8278   16.7599 H         1 FAD301      0.0000 
     77 H           0.3810  -17.6229   15.1129 H         1 FAD301      0.0000 
     78 H           0.2933  -18.9917   15.9525 H         1 FAD301      0.0000 
     79 H          -1.0071  -18.0583   15.7983 H         1 FAD301      0.0000 
     80 H           2.8262  -27.7903   16.3505 H         1 FAD301      0.0000 
     81 H           2.6693  -28.4387   18.6285 H         1 FAD301      0.0000 
     82 H           3.9401  -17.5275   18.2711 H         1 FAD301      0.0000 
     83 H           5.0724  -21.7691   17.9045 H         1 FAD301      0.0000 
     84 H           7.0657  -20.5583   21.9063 H         1 FAD301      0.0000 
@<TRIPOS>BOND
     1    2    1 ar   
     2    3    1 ar   
     3    4    1 1    
     4   53    1 1    
     5    5    4 1    
     6    6    5 1    
     7   54    5 1    
     8   55    5 1    
     9    7    6 1    
    10    8    6 1    
    11   56    6 1    
    12   12    7 1    
    13    9    8 1    
    14   10    8 1    
    15   57    8 1    
    16   80    9 1    
    17   11   10 1    
    18   12   10 1    
    19   58   10 1    
    20   81   11 1    
    21   13   12 1    
    22   59   12 1    
    23   14   13 1    
    24   22   13 1    
    25   15   14 2    
    26   60   14 1    
    27   16   15 1    
    28   17   16 ar   
    29   22   16 ar   
    30   18   17 1    
    31   19   17 ar   
    32   61   18 1    
    33   62   18 1    
    34   20   19 ar   
    35   21   20 ar   
    36   63   20 1    
    37   22   21 ar   
    38   24   23 1    
    39   40   23 2    
    40   25   24 2    
    41   26   24 am   
    42   27   26 am   
    43   64   26 1    
    44   28   27 2    
    45   29   27 1    
    46   30   29 2    
    47   40   29 1    
    48   31   30 1    
    49   32   31 ar   
    50   38   31 ar   
    51   33   32 ar   
    52   65   32 1    
    53   34   33 1    
    54   35   33 ar   
    55   74   34 1    
    56   75   34 1    
    57   76   34 1    
    58   36   35 1    
    59   37   35 ar   
    60   77   36 1    
    61   78   36 1    
    62   79   36 1    
    63   38   37 ar   
    64   66   37 1    
    65   39   38 1    
    66   40   39 1    
    67   41   39 1    
    68   42   41 1    
    69   67   41 1    
    70   68   41 1    
    71   43   42 1    
    72   44   42 1    
    73   69   42 1    
    74   82   43 1    
    75   45   44 1    
    76   46   44 1    
    77   70   44 1    
    78   83   45 1    
    79   47   46 1    
    80   48   46 1    
    81   71   46 1    
    82   84   47 1    
    83   49   48 1    
    84   72   48 1    
    85   73   48 1    
    86   50   49 1    
    87   51   50 ar   
    88   52   50 ar   
    89   53   50 1    
@<TRIPOS>SUBSTRUCTURE
     1 FAD301      1 GROUP   
@<TRIPOS>SET

