#    Name: 3okx_SAM_2_INTS_M
#    Modification time : Tue Mar 25 04:49:50 2014

@<TRIPOS>MOLECULE
3okx_SAM_2_INTS_M
   88     0    15     0     0
SMALL
NO_CHARGES


@<TRIPOS>ATOM
      1 OD1        28.0240  -15.4135   22.0470 O.co2     3 ASC3        0.0000 
      2 OD1        28.8070  -13.9020   23.0350 O.co2    13 ASL3        0.0000 
      3 OD1        27.2410  -16.9250   21.0590 O.co2     8 ASP3        0.0000 
      4 OD1        28.3955  -15.1490   23.0325 O.co2     3 ASC3        0.0000 
      5 OD1        27.9840  -16.3960   23.0300 O.co2     8 ASP3        0.0000 
      6 O          29.3960  -13.1935   21.9125 O.2       1 ALC1        0.0000 
      7 O          28.8070  -13.9020   23.0350 O.2      11 ALL1        0.0000 
      8 O          29.9850  -12.4850   20.7900 O.2       6 ALP1        0.0000 
      9 O          29.1935  -13.9270   24.6265 O.2       1 ALC1        0.0000 
     10 O          29.5800  -13.9520   26.2180 O.2       6 ALP1        0.0000 
     11 O          28.3955  -15.1490   23.0325 O.2       1 ALC1        0.0000 
     12 O          27.9840  -16.3960   23.0300 O.2       6 ALP1        0.0000 
     13 CA         27.5485  -13.7985   20.6070 C.3       5 GLC5        0.0000 
     14 CA         27.7980  -12.9400   22.5610 C.3      15 GLL5        0.0000 
     15 CA         27.2990  -14.6570   18.6530 C.3      10 GLP5        0.0000 
     16 CA         28.6110  -12.0395   20.7095 C.3       5 GLC5        0.0000 
     17 CA         29.4240  -11.1390   18.8580 C.3      10 GLP5        0.0000 
     18 N          27.8650  -10.7400   20.9610 N.am      2 SEC2        0.0000 
     19 N          27.6340  -10.5420   22.4470 N.am     12 SEL2        0.0000 
     20 N          28.0960  -10.9380   19.4750 N.am      7 SEP2        0.0000 
     21 NZ         29.4200  -10.2270   24.6695 N.4       4 LYC4        0.0000 
     22 NZ         28.9320  -11.3490   23.9590 N.4      14 LYL4        0.0000 
     23 NZ         30.4100   -8.2150   24.5270 N.4       9 LYP4        0.0000 
     24 N          29.4200  -10.2270   24.6695 N.am      2 SEC2        0.0000 
     25 N          28.9320  -11.3490   23.9590 N.am     12 SEL2        0.0000 
     26 N          29.9080   -9.1050   25.3800 N.am      7 SEP2        0.0000 
     27 N          29.6455   -9.9080   23.5860 N.am      2 SEC2        0.0000 
     28 N          30.3590   -8.4670   23.2130 N.am      7 SEP2        0.0000 
     29 CA         23.6835  -12.3065   27.1835 C.3       5 GLC5        0.0000 
     30 CA         24.8470  -14.1670   26.7020 C.3      15 GLL5        0.0000 
     31 CA         22.5200  -10.4460   27.6650 C.3      10 GLP5        0.0000 
     32 CA         21.8140  -15.0580   25.1155 C.3       5 GLC5        0.0000 
     33 CA         23.2550  -16.4990   24.7660 C.3      15 GLL5        0.0000 
     34 CA         20.3730  -13.6170   25.4650 C.3      10 GLP5        0.0000 
     35 N          22.7545  -19.4010   26.7630 N.am      2 SEC2        0.0000 
     36 N          23.6320  -18.6090   25.9130 N.am     12 SEL2        0.0000 
     37 N          21.8770  -20.1930   27.6130 N.am      7 SEP2        0.0000 
     38 O          24.8425  -19.1450   25.7460 O.2       1 ALC1        0.0000 
     39 O          23.6320  -18.6090   25.9130 O.2      11 ALL1        0.0000 
     40 O          26.0530  -19.6810   25.5790 O.2       6 ALP1        0.0000 
     41 N          21.4385  -19.2190   26.6430 N.am      2 SEC2        0.0000 
     42 N          21.0000  -18.2450   25.6730 N.am     12 SEL2        0.0000 
     43 CA         20.8290  -15.3535   24.5685 C.3       5 GLC5        0.0000 
     44 CA         21.2850  -17.0900   23.6720 C.3      15 GLL5        0.0000 
     45 N          21.9555  -19.1945   19.4775 N.am      2 SEC2        0.0000 
     46 N          21.5320  -17.9370   20.1060 N.am     12 SEL2        0.0000 
     47 N          22.3790  -20.4520   18.8490 N.am      7 SEP2        0.0000 
     48 CA         19.8650  -19.0950   19.9450 C.3       5 GLC5        0.0000 
     49 CA         20.4220  -17.1460   20.1380 C.3      15 GLL5        0.0000 
     50 CA         19.3080  -21.0440   19.7520 C.3      10 GLP5        0.0000 
     51 CA         19.7035  -14.9260   18.6175 C.3       5 GLC5        0.0000 
     52 CA         19.5390  -16.6940   19.1510 C.3      15 GLL5        0.0000 
     53 CA         19.8680  -13.1580   18.0840 C.3      10 GLP5        0.0000 
     54 CA         17.3340  -16.7890   19.4620 C.3       5 GLC5        0.0000 
     55 CA         15.1290  -16.8840   19.7730 C.3      10 GLP5        0.0000 
     56 CA         18.7430  -18.5325   19.3325 C.3       5 GLC5        0.0000 
     57 CA         17.9470  -20.3710   19.5140 C.3      10 GLP5        0.0000 
     58 O          18.7390  -16.8900   16.7515 O.2       1 ALC1        0.0000 
     59 O          19.7080  -17.0340   17.8690 O.2      11 ALL1        0.0000 
     60 O          17.7700  -16.7460   15.6340 O.2       6 ALP1        0.0000 
     61 O          20.6635  -17.7760   17.0640 O.2       1 ALC1        0.0000 
     62 O          21.6190  -18.5180   16.2590 O.2       6 ALP1        0.0000 
     63 N          17.1380  -15.4600   18.9050 N.am      2 SEC2        0.0000 
     64 N          18.4790  -15.8950   19.5080 N.am     12 SEL2        0.0000 
     65 N          15.7970  -15.0250   18.3020 N.am      7 SEP2        0.0000 
     66 CA         18.3080  -17.3615   21.8380 C.3       5 GLC5        0.0000 
     67 CA         18.2800  -15.5250   20.8240 C.3      15 GLL5        0.0000 
     68 CA         18.3360  -19.1980   22.8520 C.3      10 GLP5        0.0000 
     69 CA         19.2870  -14.1180   20.1620 C.3       5 GLC5        0.0000 
     70 CA         20.2940  -12.7110   19.5000 C.3      10 GLP5        0.0000 
     71 CA         16.7045  -16.2045   20.2985 C.3       5 GLC5        0.0000 
     72 CA         17.4485  -13.6595   21.3290 C.3       5 GLC5        0.0000 
     73 CA         16.6170  -11.7940   21.8340 C.3      10 GLP5        0.0000 
     74 CA         26.3700  -12.0367   21.0953 C.3       5 GLC5        0.0000 
     75 CA         26.3840  -13.3310   22.9620 C.3      15 GLL5        0.0000 
     76 CA         25.6490  -10.9380   19.4290 C.3      10 GLP5        0.0000 
     77 CA         22.9915  -13.4812   26.1075 C.3       5 GLC5        0.0000 
     78 CA         24.5890  -14.0480   24.8960 C.3      15 GLL5        0.0000 
     79 CA         21.2650  -12.8550   26.4160 C.3      10 GLP5        0.0000 
     80 CA         22.9630  -19.9228   24.2543 C.3       5 GLC5        0.0000 
     81 CA         23.2180  -18.0110   24.7070 C.3      15 GLL5        0.0000 
     82 CA         23.4450  -21.6930   23.9220 C.3      10 GLP5        0.0000 
     83 CA         19.9252  -18.4450   23.4605 C.3       5 GLC5        0.0000 
     84 CA         21.7440  -18.2940   24.4660 C.3      15 GLL5        0.0000 
     85 CA         19.3205  -18.0772   21.8260 C.3       5 GLC5        0.0000 
     86 CA         20.1880  -16.7670   21.4620 C.3      15 GLL5        0.0000 
     87 CA         21.3210  -15.5808   20.3145 C.3       5 GLC5        0.0000 
     88 CA         22.3370  -14.2050   19.8290 C.3      10 GLP5        0.0000 
@<TRIPOS>BOND
@<TRIPOS>SUBSTRUCTURE
     1 ALC1        6 GROUP        1 X    ALC  0     ROOT ALC X 1
     2 SEC2       18 GROUP        1 X    SEC  0     **** SEC X 2
     3 ASC3        1 GROUP        1 X    ASC  0     **** ASC X 3
     4 LYC4       21 GROUP        1 X    LYC  0     **** LYC X 4
     5 GLC5       13 GROUP        1 X    GLC  0     **** GLC X 6
     6 ALP1        8 GROUP        1 Y    ALP  0     ROOT ALP Y 8
     7 SEP2       20 GROUP        1 Y    SEP  0     **** SEP Y 9
     8 ASP3        3 GROUP        1 Y    ASP  0     **** ASP Y 10
     9 LYP4       23 GROUP        1 Y    LYP  0     **** LYP Y 11
    10 GLP5       15 GROUP        1 Y    GLP  0     **** GLP Y 13
    11 ALL1        7 GROUP        1 Z    ALL  0     ROOT ALL Z 15
    12 SEL2       19 GROUP        1 Z    SEL  0     **** SEL Z 16
    13 ASL3        2 GROUP        1 Z    ASL  0     **** ASL Z 17
    14 LYL4       22 GROUP        1 Z    LYL  0     **** LYL Z 18
    15 GLL5       14 GROUP        1 Z    GLL  0     **** GLL Z 20
@<TRIPOS>SET

