#    Name: 3okx_SAM_2_ligand
#    Modification time : Tue Mar 25 04:49:50 2014

@<TRIPOS>MOLECULE
3okx_SAM_2_ligand
   50    52     1     0     0
SMALL
NO_CHARGES


@<TRIPOS>ATOM
      1 N          28.8070  -13.9020   23.0350 N.4       1 SAM201      0.0000 
      2 CA         27.7980  -12.9400   22.5610 C.3       1 SAM201      0.0000 
      3 C          28.1310  -11.5190   23.0220 C.2       1 SAM201      0.0000 
      4 O          27.6340  -10.5420   22.4470 O.co2     1 SAM201      0.0000 
      5 OXT        28.9320  -11.3490   23.9590 O.co2     1 SAM201      0.0000 
      6 CB         26.3840  -13.3310   22.9620 C.3       1 SAM201      0.0000 
      7 CG         26.2740  -13.5680   24.4560 C.3       1 SAM201      0.0000 
      8 SD         24.5890  -14.0480   24.8960 S.3       1 SAM201      0.0000 
      9 CE         24.8470  -14.1670   26.7020 C.3       1 SAM201      0.0000 
     10 C5'        24.6180  -15.8380   24.5030 C.3       1 SAM201      0.0000 
     11 C4'        23.2550  -16.4990   24.7660 C.3       1 SAM201      0.0000 
     12 O4'        22.3250  -16.1070   23.7820 O.3       1 SAM201      0.0000 
     13 C3'        23.2180  -18.0110   24.7070 C.3       1 SAM201      0.0000 
     14 O3'        23.6320  -18.6090   25.9130 O.3       1 SAM201      0.0000 
     15 C2'        21.7440  -18.2940   24.4660 C.3       1 SAM201      0.0000 
     16 O2'        21.0000  -18.2450   25.6730 O.3       1 SAM201      0.0000 
     17 C1'        21.2850  -17.0900   23.6720 C.3       1 SAM201      0.0000 
     18 N9         21.1630  -17.3280   22.2340 N.pl3     1 SAM201      0.0000 
     19 C8         22.0070  -18.0310   21.3950 C.2       1 SAM201      0.0000 
     20 N7         21.5320  -17.9370   20.1060 N.2       1 SAM201      0.0000 
     21 C5         20.4220  -17.1460   20.1380 C.ar      1 SAM201      0.0000 
     22 C6         19.5390  -16.6940   19.1510 C.ar      1 SAM201      0.0000 
     23 N6         19.7080  -17.0340   17.8690 N.pl3     1 SAM201      0.0000 
     24 N1         18.4790  -15.8950   19.5080 N.ar      1 SAM201      0.0000 
     25 C2         18.2800  -15.5250   20.8240 C.ar      1 SAM201      0.0000 
     26 N3         19.1440  -15.9670   21.7990 N.ar      1 SAM201      0.0000 
     27 C4         20.1880  -16.7670   21.4620 C.ar      1 SAM201      0.0000 
     28 H          27.8263  -12.9219   21.4493 H         1 SAM201      0.0000 
     29 H          26.0983  -14.2422   22.4286 H         1 SAM201      0.0000 
     30 H          25.6943  -12.5338   22.6699 H         1 SAM201      0.0000 
     31 H          26.4234  -12.6920   25.0431 H         1 SAM201      0.0000 
     32 H          26.8464  -14.3961   24.8039 H         1 SAM201      0.0000 
     33 H          25.3955  -16.1934   25.1393 H         1 SAM201      0.0000 
     34 H          24.9012  -15.8362   23.4756 H         1 SAM201      0.0000 
     35 H          22.8973  -16.1930   25.7458 H         1 SAM201      0.0000 
     36 H          23.7535  -18.3300   23.8500 H         1 SAM201      0.0000 
     37 H          21.6181  -19.1457   23.9031 H         1 SAM201      0.0000 
     38 H          20.3815  -16.7091   24.0766 H         1 SAM201      0.0000 
     39 H          22.7921  -18.5045   21.6681 H         1 SAM201      0.0000 
     40 H          19.0705  -16.6233   17.2172 H         1 SAM201      0.0000 
     41 H          20.4567  -17.6685   17.6770 H         1 SAM201      0.0000 
     42 H          17.4838  -14.9180   21.0727 H         1 SAM201      0.0000 
     43 H          28.8663  -13.9165   24.0332 H         1 SAM201      0.0000 
     44 H          28.5984  -14.8345   22.7402 H         1 SAM201      0.0000 
     45 H          29.7198  -13.6829   22.6903 H         1 SAM201      0.0000 
     46 H          25.4108  -14.9562   26.9454 H         1 SAM201      0.0000 
     47 H          25.3052  -13.3561   27.0659 H         1 SAM201      0.0000 
     48 H          23.9823  -14.2612   27.1953 H         1 SAM201      0.0000 
     49 H          24.5309  -18.9990   25.7131 H         1 SAM201      0.0000 
     50 H          21.4199  -17.5105   26.2061 H         1 SAM201      0.0000 
@<TRIPOS>BOND
     1    2    1 1    
     2   43    1 1    
     3   44    1 1    
     4   45    1 1    
     5    3    2 1    
     6    6    2 1    
     7   28    2 1    
     8    4    3 ar   
     9    5    3 ar   
    10    7    6 1    
    11   29    6 1    
    12   30    6 1    
    13    8    7 1    
    14   31    7 1    
    15   32    7 1    
    16    9    8 1    
    17   10    8 1    
    18   46    9 1    
    19   47    9 1    
    20   48    9 1    
    21   11   10 1    
    22   33   10 1    
    23   34   10 1    
    24   12   11 1    
    25   13   11 1    
    26   35   11 1    
    27   17   12 1    
    28   14   13 1    
    29   15   13 1    
    30   36   13 1    
    31   49   14 1    
    32   16   15 1    
    33   17   15 1    
    34   37   15 1    
    35   50   16 1    
    36   18   17 1    
    37   38   17 1    
    38   19   18 1    
    39   27   18 1    
    40   20   19 2    
    41   39   19 1    
    42   21   20 1    
    43   22   21 ar   
    44   27   21 ar   
    45   23   22 1    
    46   24   22 ar   
    47   40   23 1    
    48   41   23 1    
    49   25   24 ar   
    50   26   25 ar   
    51   42   25 1    
    52   27   26 ar   
@<TRIPOS>SUBSTRUCTURE
     1 SAM201      1 GROUP   
@<TRIPOS>SET

