#    Name: 1ztq_033_1_INTS_M
#    Modification time : Mon Mar 24 17:51:20 2014

@<TRIPOS>MOLECULE
1ztq_033_1_INTS_M
   71     0    12     0     0
SMALL
NO_CHARGES


@<TRIPOS>ATOM
      1 CA         14.5825   67.9345   33.7350 C.3       4 GLC5        0.0000 
      2 CA         16.1290   69.4050   33.0630 C.3      12 GLL5        0.0000 
      3 CA         13.0360   66.4640   34.4070 C.3       8 GLP5        0.0000 
      4 CA         17.3695   67.1515   31.1950 C.3       4 GLC5        0.0000 
      5 CA         16.4870   68.8660   31.6790 C.3      12 GLL5        0.0000 
      6 CA         18.2520   65.4370   30.7110 C.3       8 GLP5        0.0000 
      7 CA         22.8195   68.7825   47.9575 C.3       4 GLC5        0.0000 
      8 CA         23.9740   70.0510   46.9620 C.3      12 GLL5        0.0000 
      9 CA         21.6650   67.5140   48.9530 C.3       8 GLP5        0.0000 
     10 CA         21.4460   71.0385   45.7485 C.3       4 GLC5        0.0000 
     11 CA         23.3170   70.6640   45.8410 C.3      12 GLL5        0.0000 
     12 CA         19.5750   71.4130   45.6560 C.3       8 GLP5        0.0000 
     13 O          21.1295   71.6975   43.5880 O.2       1 ALC1        0.0000 
     14 O          21.9880   70.4250   43.8970 O.2       9 ALL1        0.0000 
     15 O          20.2710   72.9700   43.2790 O.2       5 ALP1        0.0000 
     16 N          24.6505   68.3005   43.9695 N.am      2 SEC2        0.0000 
     17 N          23.3350   68.6890   44.6540 N.am     10 SEL2        0.0000 
     18 N          25.9660   67.9120   43.2850 N.am      6 SEP2        0.0000 
     19 CA         21.7405   71.6215   38.7755 C.3       4 GLC5        0.0000 
     20 CA         21.3290   70.1390   40.2530 C.3      12 GLL5        0.0000 
     21 CA         22.1520   73.1040   37.2980 C.3       8 GLP5        0.0000 
     22 CA         18.3325   66.1180   39.9955 C.3       4 GLC5        0.0000 
     23 CA         18.9990   67.6890   38.6240 C.3      12 GLL5        0.0000 
     24 CA         17.6660   64.5470   41.3670 C.3       8 GLP5        0.0000 
     25 Zn         17.2940   69.5675   35.8475 Zn        3 ZIC7        0.0000 
     26 Zn         17.3670   67.5280   34.1670 Zn       11 ZIL7        0.0000 
     27 Zn         17.2210   71.6070   37.5280 Zn        7 ZIP7        0.0000 
     28 N          18.8250   63.9620   34.7145 N.am      2 SEC2        0.0000 
     29 N          18.5610   65.3630   34.6140 N.am     10 SEL2        0.0000 
     30 N          19.0890   62.5610   34.8150 N.am      6 SEP2        0.0000 
     31 N          17.7080   64.2615   35.4295 N.am      2 SEC2        0.0000 
     32 N          16.8550   63.1600   36.2450 N.am      6 SEP2        0.0000 
     33 Zn         17.5175   70.8755   36.8065 Zn        3 ZIC7        0.0000 
     34 Zn         17.8140   70.1440   36.0850 Zn       11 ZIL7        0.0000 
     35 CA         26.3480   70.8430   49.8185 C.3       4 GLC5        0.0000 
     36 CA         24.8400   71.2790   49.0370 C.3      12 GLL5        0.0000 
     37 CA         27.7960   69.7590   50.2940 C.3       8 GLP5        0.0000 
     38 CA         22.2257   73.5430   46.3675 C.3       4 GLC5        0.0000 
     39 CA         23.6910   72.3300   47.0780 C.3      12 GLL5        0.0000 
     40 CA         20.6950   74.1070   45.3440 C.3       8 GLP5        0.0000 
     41 CA         23.2705   75.1268   48.8193 C.3       4 GLC5        0.0000 
     42 CA         23.8220   73.6280   47.7040 C.3      12 GLL5        0.0000 
     43 CA         22.4050   76.5670   49.2920 C.3       8 GLP5        0.0000 
     44 CA         25.3240   70.4006   45.6726 C.3       4 GLC5        0.0000 
     45 CA         24.2120   71.1820   47.7530 C.3      12 GLL5        0.0000 
     46 CA         26.9430   70.1610   44.7460 C.3       8 GLP5        0.0000 
     47 CA         20.4195   70.3127   44.1545 C.3       4 GLC5        0.0000 
     48 CA         20.9640   68.5580   42.6050 C.3      12 GLL5        0.0000 
     49 CA         19.7198   70.5020   41.2482 C.3       4 GLC5        0.0000 
     50 CA         21.7420   70.6470   41.5180 C.3      12 GLL5        0.0000 
     51 CA         17.9040   70.6110   41.6110 C.3       8 GLP5        0.0000 
     52 CA         23.2398   70.6150   39.7237 C.3       4 GLC5        0.0000 
     53 CA         24.9440   70.8370   38.5620 C.3       8 GLP5        0.0000 
     54 CA         23.0860   69.1655   41.2061 C.3       4 GLC5        0.0000 
     55 CA         24.6810   68.1330   41.2310 C.3       8 GLP5        0.0000 
     56 CA         19.0280   69.4557   39.8978 C.3       4 GLC5        0.0000 
     57 CA         20.7280   68.8320   40.1400 C.3      12 GLL5        0.0000 
     58 CA         17.5480   70.3390   40.3330 C.3       8 GLP5        0.0000 
     59 CA         19.4255   66.9352   42.8005 C.3       4 GLC5        0.0000 
     60 CA         20.5540   68.0550   41.3350 C.3      12 GLL5        0.0000 
     61 CA         18.0920   65.5640   43.6310 C.3       8 GLP5        0.0000 
     62 CA         19.3110   69.2329   42.4325 C.3       4 GLC5        0.0000 
     63 CA         17.7130   69.8320   42.8710 C.3       8 GLP5        0.0000 
     64 CA         22.4217   67.6344   41.3266 C.3       4 GLC5        0.0000 
     65 CA         24.0410   66.7680   40.9820 C.3       8 GLP5        0.0000 
     66 CA         19.6740   65.9475   36.7910 C.3       4 GLC5        0.0000 
     67 CA         19.4280   67.3440   36.2020 C.3      12 GLL5        0.0000 
     68 CA         19.2750   64.2440   37.3110 C.3       8 GLP5        0.0000 
     69 CA         19.1921   65.9253   37.6684 C.3       4 GLC5        0.0000 
     70 CA         18.5750   67.2120   37.3470 C.3      12 GLL5        0.0000 
     71 CA         18.1675   68.8947   39.1593 C.3       4 GLC5        0.0000 
@<TRIPOS>BOND
@<TRIPOS>SUBSTRUCTURE
     1 ALC1       13 GROUP        1 X    ALC  0     ROOT ALC X 1
     2 SEC2       16 GROUP        1 X    SEC  0     **** SEC X 2
     3 ZIC7       25 GROUP        1 X    ZIC  0     **** ZIC X 5
     4 GLC5        1 GROUP        1 X    GLC  0     **** GLC X 6
     5 ALP1       15 GROUP        1 Y    ALP  0     ROOT ALP Y 8
     6 SEP2       18 GROUP        1 Y    SEP  0     **** SEP Y 9
     7 ZIP7       27 GROUP        1 Y    ZIP  0     **** ZIP Y 12
     8 GLP5        3 GROUP        1 Y    GLP  0     **** GLP Y 13
     9 ALL1       14 GROUP        1 Z    ALL  0     ROOT ALL Z 15
    10 SEL2       17 GROUP        1 Z    SEL  0     **** SEL Z 16
    11 ZIL7       26 GROUP        1 Z    ZIL  0     **** ZIL Z 19
    12 GLL5        2 GROUP        1 Z    GLL  0     **** GLL Z 20
@<TRIPOS>SET

