#    Name: 1ztq_033_1_ligand
#    Modification time : Mon Mar 24 17:51:20 2014

@<TRIPOS>MOLECULE
1ztq_033_1_ligand
   58    61     1     0     0
SMALL
NO_CHARGES


@<TRIPOS>ATOM
      1 C1         24.9600   72.5750   49.6490 C.ar      1 033601      0.0000 
      2 C2         24.8400   71.2790   49.0370 C.ar      1 033601      0.0000 
      3 C3         24.2120   71.1820   47.7530 C.ar      1 033601      0.0000 
      4 C4         23.6910   72.3300   47.0780 C.ar      1 033601      0.0000 
      5 C5         23.8220   73.6280   47.7040 C.ar      1 033601      0.0000 
      6 C6         24.4500   73.7450   48.9890 C.ar      1 033601      0.0000 
      7 C7         16.1290   69.4050   33.0630 C.3       1 033601      0.0000 
      8 C8         16.4870   68.8660   31.6790 C.3       1 033601      0.0000 
      9 C9         15.9630   70.9410   32.9880 C.3       1 033601      0.0000 
     10 C11        23.9740   70.0510   46.9620 C.2       1 033601      0.0000 
     11 C12        23.3170   70.6640   45.8410 C.2       1 033601      0.0000 
     12 O13        23.1450   72.0300   45.8970 O.3       1 033601      0.0000 
     13 C14        22.8970   69.8510   44.7730 C.2       1 033601      0.0000 
     14 N15        21.9880   70.4250   43.8970 N.am      1 033601      0.0000 
     15 C16        21.5640   69.8670   42.7010 C.ar      1 033601      0.0000 
     16 O17        23.3350   68.6890   44.6540 O.2       1 033601      0.0000 
     17 C18        21.7420   70.6470   41.5180 C.ar      1 033601      0.0000 
     18 C19        21.3290   70.1390   40.2530 C.ar      1 033601      0.0000 
     19 C20        20.7280   68.8320   40.1400 C.ar      1 033601      0.0000 
     20 C21        20.5540   68.0550   41.3350 C.ar      1 033601      0.0000 
     21 C22        20.9640   68.5580   42.6050 C.ar      1 033601      0.0000 
     22 C27        20.2880   68.3130   38.7850 C.ar      1 033601      0.0000 
     23 C28        21.1440   68.4370   37.6250 C.ar      1 033601      0.0000 
     24 C29        20.7180   67.9580   36.3400 C.ar      1 033601      0.0000 
     25 C30        19.4280   67.3440   36.2020 C.ar      1 033601      0.0000 
     26 C31        18.5750   67.2120   37.3470 C.ar      1 033601      0.0000 
     27 C32        18.9990   67.6890   38.6240 C.ar      1 033601      0.0000 
     28 S37        18.8750   66.7620   34.5920 S.o2      1 033601      0.0000 
     29 N38        17.3670   67.5280   34.1670 N.pl3     1 033601      0.0000 
     30 O39        19.7720   67.2060   33.5680 O.2       1 033601      0.0000 
     31 O40        18.5610   65.3630   34.6140 O.2       1 033601      0.0000 
     32 C41        17.2260   69.0040   34.0730 C.3       1 033601      0.0000 
     33 C42        16.9180   69.5840   35.4460 C.2       1 033601      0.0000 
     34 O45        15.7950   69.4820   35.9730 O.co2     1 033601      0.0000 
     35 O50        17.8140   70.1440   36.0850 O.co2     1 033601      0.0000 
     36 H          25.4097   72.6634   50.5566 H         1 033601      0.0000 
     37 H          25.1896   70.4614   49.5017 H         1 033601      0.0000 
     38 H          23.4692   74.4499   47.2315 H         1 033601      0.0000 
     39 H          24.5342   74.6526   49.4317 H         1 033601      0.0000 
     40 H          15.1963   68.9716   33.3725 H         1 033601      0.0000 
     41 H          24.1635   69.1974   47.0928 H         1 033601      0.0000 
     42 H          21.5814   71.3748   44.1661 H         1 033601      0.0000 
     43 H          22.1665   71.5708   41.5809 H         1 033601      0.0000 
     44 H          21.4563   70.7006   39.4107 H         1 033601      0.0000 
     45 H          20.1293   67.1275   41.2700 H         1 033601      0.0000 
     46 H          20.8375   68.0030   43.4429 H         1 033601      0.0000 
     47 H          22.0594   68.8702   37.7260 H         1 033601      0.0000 
     48 H          21.3241   68.0530   35.5364 H         1 033601      0.0000 
     49 H          17.6611   66.7747   37.2457 H         1 033601      0.0000 
     50 H          18.3884   67.5900   39.4333 H         1 033601      0.0000 
     51 H          16.6549   66.8770   34.0055 H         1 033601      0.0000 
     52 H          18.1649   69.4354   33.7300 H         1 033601      0.0000 
     53 H          17.3384   69.2620   31.3350 H         1 033601      0.0000 
     54 H          16.6076   67.8733   31.6868 H         1 033601      0.0000 
     55 H          15.7761   69.0696   31.0058 H         1 033601      0.0000 
     56 H          16.8025   71.3908   32.6832 H         1 033601      0.0000 
     57 H          15.2402   71.2057   32.3496 H         1 033601      0.0000 
     58 H          15.7267   71.3329   33.8772 H         1 033601      0.0000 
@<TRIPOS>BOND
     1    2    1 ar   
     2    6    1 ar   
     3   36    1 1    
     4    3    2 ar   
     5   37    2 1    
     6    4    3 ar   
     7   10    3 1    
     8    5    4 ar   
     9   12    4 1    
    10    6    5 ar   
    11   38    5 1    
    12   39    6 1    
    13    8    7 1    
    14    9    7 1    
    15   32    7 1    
    16   40    7 1    
    17   53    8 1    
    18   54    8 1    
    19   55    8 1    
    20   56    9 1    
    21   57    9 1    
    22   58    9 1    
    23   11   10 2    
    24   41   10 1    
    25   12   11 1    
    26   13   11 1    
    27   14   13 am   
    28   16   13 2    
    29   15   14 1    
    30   42   14 1    
    31   17   15 ar   
    32   21   15 ar   
    33   18   17 ar   
    34   43   17 1    
    35   19   18 ar   
    36   44   18 1    
    37   20   19 ar   
    38   22   19 1    
    39   21   20 ar   
    40   45   20 1    
    41   46   21 1    
    42   23   22 ar   
    43   27   22 ar   
    44   24   23 ar   
    45   47   23 1    
    46   25   24 ar   
    47   48   24 1    
    48   26   25 ar   
    49   28   25 1    
    50   27   26 ar   
    51   49   26 1    
    52   50   27 1    
    53   29   28 1    
    54   30   28 2    
    55   31   28 2    
    56   32   29 1    
    57   51   29 1    
    58   33   32 1    
    59   52   32 1    
    60   34   33 ar   
    61   35   33 ar   
@<TRIPOS>SUBSTRUCTURE
     1 033601      1 GROUP   
@<TRIPOS>SET

