#    Name: 2uw6_GVO_1_INTS_M
#    Modification time : Tue Mar 25 00:23:56 2014

@<TRIPOS>MOLECULE
2uw6_GVO_1_INTS_M
   62     0     9     0     0
SMALL
NO_CHARGES


@<TRIPOS>ATOM
      1 OD1        12.1635    7.8345    1.0720 O.co2     2 ASC3        0.0000 
      2 OD1        12.3290    7.3430    2.7480 O.co2     8 ASL3        0.0000 
      3 OD1        11.9980    8.3260   -0.6040 O.co2     5 ASP3        0.0000 
      4 OD1        11.4915    7.0950    1.5430 O.co2     2 ASC3        0.0000 
      5 OD1        10.6540    6.8470    0.3380 O.co2     5 ASP3        0.0000 
      6 O          12.4710    6.1195    1.7380 O.2       1 ALC1        0.0000 
      7 O          12.3290    7.3430    2.7480 O.2       7 ALL1        0.0000 
      8 O          12.6130    4.8960    0.7280 O.2       4 ALP1        0.0000 
      9 CA          9.5075    6.8040    3.7805 C.3       3 GLC5        0.0000 
     10 CA         10.9700    7.8370    3.0170 C.3       9 GLL5        0.0000 
     11 CA          8.0450    5.7710    4.5440 C.3       6 GLP5        0.0000 
     12 CA          9.3565    7.1415    1.8320 C.3       3 GLC5        0.0000 
     13 CA          7.7430    6.4460    0.6470 C.3       6 GLP5        0.0000 
     14 CA         13.3615   12.0600    7.1960 C.3       3 GLC5        0.0000 
     15 CA         14.9090   10.9560    7.3490 C.3       9 GLL5        0.0000 
     16 CA         11.8140   13.1640    7.0430 C.3       6 GLP5        0.0000 
     17 CA         14.8290   13.0200    6.4735 C.3       3 GLC5        0.0000 
     18 CA         14.7490   15.0840    5.5980 C.3       6 GLP5        0.0000 
     19 CA         14.7080   11.8705    8.7815 C.3       3 GLC5        0.0000 
     20 CA         14.5070   12.7850   10.2140 C.3       6 GLP5        0.0000 
     21 CA         15.0570    9.1035    7.8795 C.3       3 GLC5        0.0000 
     22 CA         15.2050    7.2510    8.4100 C.3       6 GLP5        0.0000 
     23 CA         14.2865   13.0580    5.2140 C.3       3 GLC5        0.0000 
     24 CA         13.8240   11.0320    4.8300 C.3       9 GLL5        0.0000 
     25 CA          5.9190    9.8170    0.4775 C.3       3 GLC5        0.0000 
     26 CA          7.2100    9.5120    2.1880 C.3       9 GLL5        0.0000 
     27 CA          4.6280   10.1220   -1.2330 C.3       6 GLP5        0.0000 
     28 CA          6.2865    7.6770    3.0975 C.3       3 GLC5        0.0000 
     29 CA          5.3630    5.8420    4.0070 C.3       6 GLP5        0.0000 
     30 CA          8.6855   11.8365    3.8310 C.3       3 GLC5        0.0000 
     31 CA          8.7260    9.7920    4.4910 C.3       9 GLL5        0.0000 
     32 CA          8.6450   13.8810    3.1710 C.3       6 GLP5        0.0000 
     33 CA          6.1150   11.7140    3.3175 C.3       3 GLC5        0.0000 
     34 CA          5.0810    9.8370    3.4410 C.3       9 GLL5        0.0000 
     35 CA          7.1490   13.5910    3.1940 C.3       6 GLP5        0.0000 
     36 CA          4.6075   11.4400    5.6510 C.3       3 GLC5        0.0000 
     37 CA          4.2770    9.6450    4.5840 C.3       9 GLL5        0.0000 
     38 CA          4.9380   13.2350    6.7180 C.3       6 GLP5        0.0000 
     39 CA          2.6905    8.0935    4.8490 C.3       3 GLC5        0.0000 
     40 CA          1.1040    6.5420    5.1140 C.3       6 GLP5        0.0000 
     41 CA         11.8175   11.3478    5.9375 C.3       3 GLC5        0.0000 
     42 CA         11.8460    9.7920    4.1880 C.3       9 GLL5        0.0000 
     43 CA         12.5288   11.6203    6.6605 C.3       3 GLC5        0.0000 
     44 CA         12.7350    9.6380    6.4360 C.3       9 GLL5        0.0000 
     45 CA         14.2242    8.6638    7.3440 C.3       3 GLC5        0.0000 
     46 CA         13.7520   10.5150    6.1200 C.3       9 GLL5        0.0000 
     47 CA         12.5835   12.0053    5.6963 C.3       3 GLC5        0.0000 
     48 CA          8.3630    7.9697    1.6763 C.3       3 GLC5        0.0000 
     49 CA          9.3690    9.5690    3.2780 C.3       9 GLL5        0.0000 
     50 CA          9.3227   11.3410    2.2991 C.3       3 GLC5        0.0000 
     51 CA          8.5970    9.4180    2.1330 C.3       9 GLL5        0.0000 
     52 CA          9.2880   13.2360    1.9360 C.3       6 GLP5        0.0000 
     53 CA          7.3155    8.0480    1.7200 C.3       3 GLC5        0.0000 
     54 CA          6.5660    9.7880    3.3980 C.3       9 GLL5        0.0000 
     55 CA          6.7330    8.0263    4.6720 C.3       3 GLC5        0.0000 
     56 CA          6.5120    6.2040    5.3680 C.3       6 GLP5        0.0000 
     57 CA          7.1320   11.6852    3.4337 C.3       3 GLC5        0.0000 
     58 CA          7.3420    9.9090    4.5540 C.3       9 GLL5        0.0000 
     59 CA          8.4497    7.7069    4.0711 C.3       3 GLC5        0.0000 
     60 CA          3.9095   11.3845    3.3542 C.3       3 GLC5        0.0000 
     61 CA          3.1400   13.0280    2.6960 C.3       6 GLP5        0.0000 
     62 CA          5.0210    7.7915    4.0097 C.3       3 GLC5        0.0000 
@<TRIPOS>BOND
@<TRIPOS>SUBSTRUCTURE
     1 ALC1        6 GROUP        1 X    ALC  0     ROOT ALC X 1
     2 ASC3        1 GROUP        1 X    ASC  0     **** ASC X 3
     3 GLC5        9 GROUP        1 X    GLC  0     **** GLC X 6
     4 ALP1        8 GROUP        1 Y    ALP  0     ROOT ALP Y 8
     5 ASP3        3 GROUP        1 Y    ASP  0     **** ASP Y 10
     6 GLP5       11 GROUP        1 Y    GLP  0     **** GLP Y 13
     7 ALL1        7 GROUP        1 Z    ALL  0     ROOT ALL Z 15
     8 ASL3        2 GROUP        1 Z    ASL  0     **** ASL Z 17
     9 GLL5       10 GROUP        1 Z    GLL  0     **** GLL Z 20
@<TRIPOS>SET

