#    Name: 2uw6_GVO_1_ligand
#    Modification time : Tue Mar 25 00:23:56 2014

@<TRIPOS>MOLECULE
2uw6_GVO_1_ligand
   38    40     1     0     0
SMALL
NO_CHARGES


@<TRIPOS>ATOM
      1 N1         12.3290    7.3430    2.7480 N.4       1 GVO1351     0.0000 
      2 C2         10.9700    7.8370    3.0170 C.3       1 GVO1351     0.0000 
      3 C3         10.8670    9.3790    3.1050 C.3       1 GVO1351     0.0000 
      4 C4         11.8460    9.7920    4.1880 C.ar      1 GVO1351     0.0000 
      5 C5         11.7960    9.2710    5.4760 C.ar      1 GVO1351     0.0000 
      6 C6         12.7350    9.6380    6.4360 C.ar      1 GVO1351     0.0000 
      7 C7         13.7520   10.5150    6.1200 C.ar      1 GVO1351     0.0000 
      8 CL8        14.9090   10.9560    7.3490 Cl        1 GVO1351     0.0000 
      9 C9         13.8240   11.0320    4.8300 C.ar      1 GVO1351     0.0000 
     10 C10        12.8820   10.6610    3.8690 C.ar      1 GVO1351     0.0000 
     11 C11         9.3690    9.5690    3.2780 C.ar      1 GVO1351     0.0000 
     12 C12         8.5970    9.4180    2.1330 C.ar      1 GVO1351     0.0000 
     13 C13         7.2100    9.5120    2.1880 C.ar      1 GVO1351     0.0000 
     14 C14         6.5660    9.7880    3.3980 C.ar      1 GVO1351     0.0000 
     15 C15         7.3420    9.9090    4.5540 C.ar      1 GVO1351     0.0000 
     16 C16         8.7260    9.7920    4.4910 C.ar      1 GVO1351     0.0000 
     17 C17         5.0810    9.8370    3.4410 C.2       1 GVO1351     0.0000 
     18 C18         4.2770    9.6450    4.5840 C.2       1 GVO1351     0.0000 
     19 N19         3.0260    9.6850    4.2230 N.pl3     1 GVO1351     0.0000 
     20 N20         2.9840    9.8620    2.8390 N.2       1 GVO1351     0.0000 
     21 C21         4.2340    9.9430    2.3790 C.2       1 GVO1351     0.0000 
     22 H          10.5870    7.4226    3.9693 H         1 GVO1351     0.0000 
     23 H          10.2707    7.5009    2.2275 H         1 GVO1351     0.0000 
     24 H          11.1741    9.7341    2.1420 H         1 GVO1351     0.0000 
     25 H          11.0487    8.5992    5.7260 H         1 GVO1351     0.0000 
     26 H          12.6650    9.2479    7.3900 H         1 GVO1351     0.0000 
     27 H          14.5745   11.6911    4.5814 H         1 GVO1351     0.0000 
     28 H          12.9586   11.0384    2.9106 H         1 GVO1351     0.0000 
     29 H           9.0593    9.2329    1.2257 H         1 GVO1351     0.0000 
     30 H           6.6510    9.3779    1.3333 H         1 GVO1351     0.0000 
     31 H           6.8816   10.0864    5.4591 H         1 GVO1351     0.0000 
     32 H           9.2851    9.8718    5.3576 H         1 GVO1351     0.0000 
     33 H           4.6526    9.5110    5.4631 H         1 GVO1351     0.0000 
     34 H           2.2351    9.6112    4.7684 H         1 GVO1351     0.0000 
     35 H           4.5065   10.0563    1.4619 H         1 GVO1351     0.0000 
     36 H          12.3174    6.4832    2.2375 H         1 GVO1351     0.0000 
     37 H          12.8618    7.9961    2.2099 H         1 GVO1351     0.0000 
     38 H          12.8373    7.1755    3.5927 H         1 GVO1351     0.0000 
@<TRIPOS>BOND
     1    2    1 1    
     2   36    1 1    
     3   37    1 1    
     4   38    1 1    
     5    3    2 1    
     6   22    2 1    
     7   23    2 1    
     8    4    3 1    
     9   11    3 1    
    10   24    3 1    
    11    5    4 ar   
    12   10    4 ar   
    13    6    5 ar   
    14   25    5 1    
    15    7    6 ar   
    16   26    6 1    
    17    8    7 1    
    18    9    7 ar   
    19   10    9 ar   
    20   27    9 1    
    21   28   10 1    
    22   12   11 ar   
    23   16   11 ar   
    24   13   12 ar   
    25   29   12 1    
    26   14   13 ar   
    27   30   13 1    
    28   15   14 ar   
    29   17   14 1    
    30   16   15 ar   
    31   31   15 1    
    32   32   16 1    
    33   18   17 2    
    34   21   17 1    
    35   19   18 1    
    36   33   18 1    
    37   20   19 1    
    38   34   19 1    
    39   21   20 2    
    40   35   21 1    
@<TRIPOS>SUBSTRUCTURE
     1 GVO1351     1 GROUP   
@<TRIPOS>SET

