#    Name: 3pvz_NAD_3_INTS_M
#    Modification time : Tue Mar 25 08:37:33 2014

@<TRIPOS>MOLECULE
3pvz_NAD_3_INTS_M
  111     0    12     0     0
SMALL
NO_CHARGES


@<TRIPOS>ATOM
      1 N           4.1865   32.4290   65.6135 N.am      2 SEC2        0.0000 
      2 N           2.7450   32.3530   65.5780 N.am     10 SEL2        0.0000 
      3 N           5.6280   32.5050   65.6490 N.am      6 SEP2        0.0000 
      4 N           2.6230   29.0085   63.6805 N.am      2 SEC2        0.0000 
      5 N           2.9390   30.1070   64.6000 N.am     10 SEL2        0.0000 
      6 N           2.3070   27.9100   62.7610 N.am      6 SEP2        0.0000 
      7 N           3.5180   28.7630   64.6680 N.am      2 SEC2        0.0000 
      8 N           4.0970   27.4190   64.7360 N.am      6 SEP2        0.0000 
      9 CA         -1.0770   33.0485   60.7790 C.3       4 GLC5        0.0000 
     10 CA          0.3600   33.3000   62.4010 C.3      12 GLL5        0.0000 
     11 CA         -2.5140   32.7970   59.1570 C.3       8 GLP5        0.0000 
     12 CA         -1.6905   33.7410   62.5130 C.3       4 GLC5        0.0000 
     13 CA         -3.7410   34.1820   62.6250 C.3       8 GLP5        0.0000 
     14 N          -1.6140   34.8175   63.4680 N.am      2 SEC2        0.0000 
     15 N          -0.4550   34.4650   62.2500 N.am     10 SEL2        0.0000 
     16 N          -2.7730   35.1700   64.6860 N.am      6 SEP2        0.0000 
     17 O           1.2990   32.8975   59.5450 O.2       1 ALC1        0.0000 
     18 O           2.0270   32.8240   60.7040 O.2       9 ALL1        0.0000 
     19 O           0.5710   32.9710   58.3860 O.2       5 ALP1        0.0000 
     20 CA          1.9290   36.9490   60.2985 C.3       4 GLC5        0.0000 
     21 CA          1.6250   35.1120   61.4780 C.3      12 GLL5        0.0000 
     22 CA          2.2330   38.7860   59.1190 C.3       8 GLP5        0.0000 
     23 O           2.2700   35.0135   59.1985 O.2       1 ALC1        0.0000 
     24 O           2.4850   35.4650   60.3960 O.2       9 ALL1        0.0000 
     25 O           2.0550   34.5620   58.0010 O.2       5 ALP1        0.0000 
     26 CA         -1.2025   33.9845   60.1475 C.3       4 GLC5        0.0000 
     27 CA          0.1090   35.1720   61.1380 C.3      12 GLL5        0.0000 
     28 CA         -1.9805   35.2355   61.3820 C.3       4 GLC5        0.0000 
     29 CA         -4.0700   35.2990   61.6260 C.3       8 GLP5        0.0000 
     30 CA         -0.2030   39.3345   58.8925 C.3       4 GLC5        0.0000 
     31 CA         -1.8790   39.4010   59.9080 C.3      12 GLL5        0.0000 
     32 CA          1.4730   39.2680   57.8770 C.3       8 GLP5        0.0000 
     33 CA         -1.8030   40.4955   58.0705 C.3       4 GLC5        0.0000 
     34 CA         -1.7270   41.5900   56.2330 C.3       8 GLP5        0.0000 
     35 CA         -3.6875   38.3770   59.4785 C.3       4 GLC5        0.0000 
     36 CA         -5.4960   37.3530   59.0490 C.3       8 GLP5        0.0000 
     37 O          -2.3160   41.7660   59.4980 O.2       1 ALC1        0.0000 
     38 O          -2.1190   40.6490   60.3270 O.2       9 ALL1        0.0000 
     39 O          -2.5130   42.8830   58.6690 O.2       5 ALP1        0.0000 
     40 N          -3.0725   39.8915   57.8270 N.am      2 SEC2        0.0000 
     41 N          -2.2360   39.0320   58.7070 N.am     10 SEL2        0.0000 
     42 N          -3.9090   40.7510   56.9470 N.am      6 SEP2        0.0000 
     43 CA         -1.0700   36.4965   57.0875 C.3       4 GLC5        0.0000 
     44 CA         -1.9950   37.8100   58.2870 C.3      12 GLL5        0.0000 
     45 CA         -0.1450   35.1830   55.8880 C.3       8 GLP5        0.0000 
     46 CA         -0.2610   38.5390   58.0820 C.3       4 GLC5        0.0000 
     47 CA         -1.8610   39.7000   57.2600 C.3       4 GLC5        0.0000 
     48 CA         -3.7130   38.0165   58.0365 C.3       4 GLC5        0.0000 
     49 CA         -5.4310   38.2230   57.7860 C.3       8 GLP5        0.0000 
     50 N          -0.1770   36.9975   57.8425 N.am      2 SEC2        0.0000 
     51 N          -1.3780   36.8890   59.0010 N.am     10 SEL2        0.0000 
     52 N           1.0240   37.1060   56.6840 N.am      6 SEP2        0.0000 
     53 N           2.1510   30.2005   67.5100 N.am      2 SEC2        0.0000 
     54 N           1.0710   30.7920   66.3040 N.am     10 SEL2        0.0000 
     55 N           3.2310   29.6090   68.7160 N.am      6 SEP2        0.0000 
     56 NZ          2.1735   28.9800   67.9510 N.4       3 LYC4        0.0000 
     57 NZ          1.1160   28.3510   67.1860 N.4      11 LYL4        0.0000 
     58 NZ          3.2310   29.6090   68.7160 N.4       7 LYP4        0.0000 
     59 N           2.1735   28.9800   67.9510 N.am      2 SEC2        0.0000 
     60 N           1.1160   28.3510   67.1860 N.am     10 SEL2        0.0000 
     61 N           0.2060   27.5020   64.1395 N.am      2 SEC2        0.0000 
     62 N           0.2790   28.7860   64.8110 N.am     10 SEL2        0.0000 
     63 N           0.1330   26.2180   63.4680 N.am      6 SEP2        0.0000 
     64 N          -0.3325   29.1015   63.7260 N.am      2 SEC2        0.0000 
     65 N          -0.9440   29.4170   62.6410 N.am      6 SEP2        0.0000 
     66 CA         -1.8265   27.9005   65.9035 C.3       4 GLC5        0.0000 
     67 CA         -2.0710   29.9180   66.0090 C.3      12 GLL5        0.0000 
     68 CA         -1.5820   25.8830   65.7980 C.3       8 GLP5        0.0000 
     69 CA         -5.1840   29.3540   66.6275 C.3       4 GLC5        0.0000 
     70 CA         -3.2780   29.9950   66.9280 C.3      12 GLL5        0.0000 
     71 CA         -7.0900   28.7130   66.3270 C.3       8 GLP5        0.0000 
     72 CA         -2.9240   32.7975   67.5265 C.3       4 GLC5        0.0000 
     73 CA         -2.9980   31.0880   67.9850 C.3      12 GLL5        0.0000 
     74 CA         -2.8500   34.5070   67.0680 C.3       8 GLP5        0.0000 
     75 CA         -4.3245   32.2515   69.3600 C.3       4 GLC5        0.0000 
     76 CA         -5.6510   33.4150   70.7350 C.3       8 GLP5        0.0000 
     77 N          -4.8520   31.9160   69.4280 N.am      2 SEC2        0.0000 
     78 N          -4.1490   31.8650   68.2780 N.am     10 SEL2        0.0000 
     79 N          -5.5550   31.9670   70.5780 N.am      6 SEP2        0.0000 
     80 CA         -1.2860   31.8725   69.8435 C.3       4 GLC5        0.0000 
     81 CA         -2.6020   30.3250   69.2580 C.3      12 GLL5        0.0000 
     82 CA          0.0300   33.4200   70.4290 C.3       8 GLP5        0.0000 
     83 N          -4.2395   31.5025   70.5280 N.am      2 SEC2        0.0000 
     84 N          -2.9240   31.0380   70.4780 N.am     10 SEL2        0.0000 
     85 CA         -5.3085   28.5905   68.8785 C.3       4 GLC5        0.0000 
     86 CA         -3.4490   29.0330   69.0660 C.3      12 GLL5        0.0000 
     87 CA         -7.1680   28.1480   68.6910 C.3       8 GLP5        0.0000 
     88 CA         -4.2650   27.0120   68.6335 C.3       4 GLC5        0.0000 
     89 CA         -5.0810   24.9910   68.2010 C.3       8 GLP5        0.0000 
     90 CA         -1.6060   26.7025   67.7310 C.3       4 GLC5        0.0000 
     91 CA         -1.6300   27.5220   69.6640 C.3      12 GLL5        0.0000 
     92 N           0.9450   23.7120   71.1470 N.am      2 SEC2        0.0000 
     93 N           0.7670   25.1230   70.9880 N.am     10 SEL2        0.0000 
     94 N           1.1230   22.3010   71.3060 N.am      6 SEP2        0.0000 
     95 O           2.1090   25.5895   68.6010 O.2       1 ALC1        0.0000 
     96 O           1.0020   26.4310   69.1670 O.2       9 ALL1        0.0000 
     97 O           3.2160   24.7480   68.0350 O.2       5 ALP1        0.0000 
     98 CA         -5.3500   27.8510   69.8250 C.3       4 GLC5        0.0000 
     99 CA         -3.5320   27.5540   70.9590 C.3      12 GLL5        0.0000 
    100 CA          1.5368   31.5250   61.8156 C.3       4 GLC5        0.0000 
    101 CA          1.7520   33.6270   61.8450 C.3      12 GLL5        0.0000 
    102 CA          1.9930   29.6990   61.1400 C.3       8 GLP5        0.0000 
    103 CA          0.5495   38.3180   59.7998 C.3       4 GLC5        0.0000 
    104 CA         -1.0130   37.1970   60.2210 C.3      12 GLL5        0.0000 
    105 CA         -2.6020   36.5745   61.0532 C.3       4 GLC5        0.0000 
    106 CA         -1.0255   24.4657   70.0772 C.3       4 GLC5        0.0000 
    107 CA         -1.0250   26.5760   70.5050 C.3      12 GLL5        0.0000 
    108 CA         -0.6640   22.5990   69.0920 C.3       8 GLP5        0.0000 
    109 CA         -2.4947   24.7647   72.9582 C.3       4 GLC5        0.0000 
    110 CA         -1.7490   26.0890   71.6200 C.3      12 GLL5        0.0000 
    111 CA         -2.6040   23.1850   74.1920 C.3       8 GLP5        0.0000 
@<TRIPOS>BOND
@<TRIPOS>SUBSTRUCTURE
     1 ALC1       17 GROUP        1 X    ALC  0     ROOT ALC X 1
     2 SEC2        1 GROUP        1 X    SEC  0     **** SEC X 2
     3 LYC4       56 GROUP        1 X    LYC  0     **** LYC X 4
     4 GLC5        9 GROUP        1 X    GLC  0     **** GLC X 6
     5 ALP1       19 GROUP        1 Y    ALP  0     ROOT ALP Y 8
     6 SEP2        3 GROUP        1 Y    SEP  0     **** SEP Y 9
     7 LYP4       58 GROUP        1 Y    LYP  0     **** LYP Y 11
     8 GLP5       11 GROUP        1 Y    GLP  0     **** GLP Y 13
     9 ALL1       18 GROUP        1 Z    ALL  0     ROOT ALL Z 15
    10 SEL2        2 GROUP        1 Z    SEL  0     **** SEL Z 16
    11 LYL4       57 GROUP        1 Z    LYL  0     **** LYL Z 18
    12 GLL5       10 GROUP        1 Z    GLL  0     **** GLL Z 20
@<TRIPOS>SET

