#    Name: 3pvz_NAD_3_ligand
#    Modification time : Tue Mar 25 08:37:34 2014

@<TRIPOS>MOLECULE
3pvz_NAD_3_ligand
   70    74     1     0     0
SMALL
NO_CHARGES


@<TRIPOS>ATOM
      1 PA          1.9810   31.1650   65.0870 P.3       1 NAD501      0.0000 
      2 O1A         2.7450   32.3530   65.5780 O.co2     1 NAD501      0.0000 
      3 O2A         2.9390   30.1070   64.6000 O.co2     1 NAD501      0.0000 
      4 O5B         1.0540   31.5440   63.8260 O.3       1 NAD501      0.0000 
      5 C5B         0.4580   32.8500   63.8740 C.3       1 NAD501      0.0000 
      6 C4B         0.3600   33.3000   62.4010 C.3       1 NAD501      0.0000 
      7 O4B        -0.4550   34.4650   62.2500 O.3       1 NAD501      0.0000 
      8 C3B         1.7520   33.6270   61.8450 C.3       1 NAD501      0.0000 
      9 O3B         2.0270   32.8240   60.7040 O.3       1 NAD501      0.0000 
     10 C2B         1.6250   35.1120   61.4780 C.3       1 NAD501      0.0000 
     11 O2B         2.4850   35.4650   60.3960 O.3       1 NAD501      0.0000 
     12 C1B         0.1090   35.1720   61.1380 C.3       1 NAD501      0.0000 
     13 N9A        -0.3400   36.5420   61.1890 N.pl3     1 NAD501      0.0000 
     14 C8A        -0.2110   37.4150   62.2420 C.2       1 NAD501      0.0000 
     15 N7A        -0.7230   38.5920   61.9770 N.2       1 NAD501      0.0000 
     16 C5A        -1.2550   38.5030   60.7400 C.ar      1 NAD501      0.0000 
     17 C6A        -1.8790   39.4010   59.9080 C.ar      1 NAD501      0.0000 
     18 N6A        -2.1190   40.6490   60.3270 N.pl3     1 NAD501      0.0000 
     19 N1A        -2.2360   39.0320   58.7070 N.ar      1 NAD501      0.0000 
     20 C2A        -1.9950   37.8100   58.2870 C.ar      1 NAD501      0.0000 
     21 N3A        -1.3780   36.8890   59.0010 N.ar      1 NAD501      0.0000 
     22 C4A        -1.0130   37.1970   60.2210 C.ar      1 NAD501      0.0000 
     23 O3          1.0710   30.7920   66.3040 O.3       1 NAD501      0.0000 
     24 PN          0.4010   29.3570   66.2240 P.3       1 NAD501      0.0000 
     25 O1N         1.1160   28.3510   67.1860 O.co2     1 NAD501      0.0000 
     26 O2N         0.2790   28.7860   64.8110 O.co2     1 NAD501      0.0000 
     27 O5D        -1.0280   29.4700   66.9130 O.3       1 NAD501      0.0000 
     28 C5D        -2.0710   29.9180   66.0090 C.3       1 NAD501      0.0000 
     29 C4D        -3.2780   29.9950   66.9280 C.3       1 NAD501      0.0000 
     30 O4D        -3.3540   28.7450   67.6670 O.3       1 NAD501      0.0000 
     31 C3D        -2.9980   31.0880   67.9850 C.3       1 NAD501      0.0000 
     32 O3D        -4.1490   31.8650   68.2780 O.3       1 NAD501      0.0000 
     33 C2D        -2.6020   30.3250   69.2580 C.3       1 NAD501      0.0000 
     34 O2D        -2.9240   31.0380   70.4780 O.3       1 NAD501      0.0000 
     35 C1D        -3.4490   29.0330   69.0660 C.3       1 NAD501      0.0000 
     36 N1N        -2.8440   27.9750   69.9110 N.pl3     1 NAD501      0.0000 
     37 C2N        -1.6300   27.5220   69.6640 C.ar      1 NAD501      0.0000 
     38 C3N        -1.0250   26.5760   70.5050 C.ar      1 NAD501      0.0000 
     39 C7N         0.3160   26.0050   70.2410 C.2       1 NAD501      0.0000 
     40 O7N         0.7670   25.1230   70.9880 O.2       1 NAD501      0.0000 
     41 N7N         1.0020   26.4310   69.1670 N.am      1 NAD501      0.0000 
     42 C4N        -1.7490   26.0890   71.6200 C.ar      1 NAD501      0.0000 
     43 C5N        -3.0220   26.6000   71.8290 C.ar      1 NAD501      0.0000 
     44 C6N        -3.5320   27.5540   70.9590 C.ar      1 NAD501      0.0000 
     45 H           1.0733   33.5598   64.3961 H         1 NAD501      0.0000 
     46 H          -0.5369   32.8293   64.2800 H         1 NAD501      0.0000 
     47 H          -0.0328   32.4733   61.8213 H         1 NAD501      0.0000 
     48 H           2.4486   33.5344   62.6288 H         1 NAD501      0.0000 
     49 H           1.7685   35.6681   62.3705 H         1 NAD501      0.0000 
     50 H          -0.0491   34.6955   60.2417 H         1 NAD501      0.0000 
     51 H           0.2266   37.1510   63.0941 H         1 NAD501      0.0000 
     52 H          -2.1770   41.3487   59.6149 H         1 NAD501      0.0000 
     53 H          -2.2187   40.7700   61.3147 H         1 NAD501      0.0000 
     54 H          -2.3230   37.5411   57.2926 H         1 NAD501      0.0000 
     55 H          -2.2639   29.2034   65.2444 H         1 NAD501      0.0000 
     56 H          -1.8682   30.8887   65.6230 H         1 NAD501      0.0000 
     57 H          -4.1375   30.2157   66.4094 H         1 NAD501      0.0000 
     58 H          -2.1629   31.6565   67.6731 H         1 NAD501      0.0000 
     59 H          -1.5844   30.0455   69.1629 H         1 NAD501      0.0000 
     60 H          -4.4333   29.2594   69.3687 H         1 NAD501      0.0000 
     61 H          -1.0793   27.8504   68.8373 H         1 NAD501      0.0000 
     62 H           0.5634   27.1431   68.6188 H         1 NAD501      0.0000 
     63 H           1.8899   25.9979   69.0118 H         1 NAD501      0.0000 
     64 H          -1.3439   25.3982   72.2301 H         1 NAD501      0.0000 
     65 H          -3.5849   26.2740   72.6240 H         1 NAD501      0.0000 
     66 H          -4.4912   27.9336   71.1629 H         1 NAD501      0.0000 
     67 H           1.3447   33.0962   60.0255 H         1 NAD501      0.0000 
     68 H           2.1109   34.9866   59.6015 H         1 NAD501      0.0000 
     69 H          -3.8116   32.8015   68.3730 H         1 NAD501      0.0000 
     70 H          -2.4497   30.5381   71.2026 H         1 NAD501      0.0000 
@<TRIPOS>BOND
     1    2    1 ar   
     2    3    1 ar   
     3    4    1 1    
     4   23    1 1    
     5    5    4 1    
     6    6    5 1    
     7   45    5 1    
     8   46    5 1    
     9    7    6 1    
    10    8    6 1    
    11   47    6 1    
    12   12    7 1    
    13    9    8 1    
    14   10    8 1    
    15   48    8 1    
    16   67    9 1    
    17   11   10 1    
    18   12   10 1    
    19   49   10 1    
    20   68   11 1    
    21   13   12 1    
    22   50   12 1    
    23   14   13 1    
    24   22   13 1    
    25   15   14 2    
    26   51   14 1    
    27   16   15 1    
    28   17   16 ar   
    29   22   16 ar   
    30   18   17 1    
    31   19   17 ar   
    32   52   18 1    
    33   53   18 1    
    34   20   19 ar   
    35   21   20 ar   
    36   54   20 1    
    37   22   21 ar   
    38   24   23 1    
    39   25   24 ar   
    40   26   24 ar   
    41   27   24 1    
    42   28   27 1    
    43   29   28 1    
    44   55   28 1    
    45   56   28 1    
    46   30   29 1    
    47   31   29 1    
    48   57   29 1    
    49   35   30 1    
    50   32   31 1    
    51   33   31 1    
    52   58   31 1    
    53   69   32 1    
    54   34   33 1    
    55   35   33 1    
    56   59   33 1    
    57   70   34 1    
    58   36   35 1    
    59   60   35 1    
    60   37   36 ar   
    61   44   36 ar   
    62   38   37 ar   
    63   61   37 1    
    64   39   38 1    
    65   42   38 ar   
    66   40   39 2    
    67   41   39 am   
    68   62   41 1    
    69   63   41 1    
    70   43   42 ar   
    71   64   42 1    
    72   44   43 ar   
    73   65   43 1    
    74   66   44 1    
@<TRIPOS>SUBSTRUCTURE
     1 NAD501      1 GROUP   
@<TRIPOS>SET

