#    Name: 3rmn_M41_1_INTS_M
#    Modification time : Tue Mar 25 11:42:27 2014

@<TRIPOS>MOLECULE
3rmn_M41_1_INTS_M
   85     0     9     0     0
SMALL
NO_CHARGES


@<TRIPOS>ATOM
      1 CA         13.3285  -18.2580   25.2820 C.3       3 GLC5        0.0000 
      2 CA         13.2420  -20.1100   24.1150 C.3       9 GLL5        0.0000 
      3 CA         13.4150  -16.4060   26.4490 C.3       6 GLP5        0.0000 
      4 CA         14.6320  -17.8005   25.4415 C.3       3 GLC5        0.0000 
      5 CA         15.8490  -19.1950   24.4340 C.3       9 GLL5        0.0000 
      6 N          13.0320  -16.8670   23.2885 N.am      2 SEC2        0.0000 
      7 N          14.0530  -16.7060   22.0120 N.am      8 SEL2        0.0000 
      8 N          12.0110  -17.0280   24.5650 N.am      5 SEP2        0.0000 
      9 CA         18.5750  -15.7245   27.1050 C.3       3 GLC5        0.0000 
     10 CA         17.9440  -15.9620   25.2200 C.3       9 GLL5        0.0000 
     11 CA         19.2060  -15.4870   28.9900 C.3       6 GLP5        0.0000 
     12 CA         17.4725  -14.1620   26.3890 C.3       3 GLC5        0.0000 
     13 CA         17.0010  -12.3620   27.5580 C.3       6 GLP5        0.0000 
     14 CA         16.5680  -16.3090   26.7270 C.3       3 GLC5        0.0000 
     15 CA         15.1920  -16.6560   28.2340 C.3       6 GLP5        0.0000 
     16 CA         19.8560  -12.1055   23.6585 C.3       3 GLC5        0.0000 
     17 CA         19.1250  -13.9580   24.2570 C.3       9 GLL5        0.0000 
     18 CA         20.5870  -10.2530   23.0600 C.3       6 GLP5        0.0000 
     19 N          15.2035  -12.5260   23.8620 N.am      2 SEC2        0.0000 
     20 N          15.9620  -13.0980   22.7230 N.am      8 SEL2        0.0000 
     21 N          14.4450  -11.9540   25.0010 N.am      5 SEP2        0.0000 
     22 CA         18.9615  -11.1535   21.8295 C.3       3 GLC5        0.0000 
     23 CA         17.3360  -12.0540   20.5990 C.3       9 GLL5        0.0000 
     24 CA         17.2980  -11.4070   22.6375 C.3       3 GLC5        0.0000 
     25 CA         17.2600  -10.7600   24.6760 C.3       6 GLP5        0.0000 
     26 CA         20.9300  -13.7665   18.9645 C.3       3 GLC5        0.0000 
     27 CA         19.2530  -13.1120   19.5360 C.3       9 GLL5        0.0000 
     28 CA         22.6070  -14.4210   18.3930 C.3       6 GLP5        0.0000 
     29 CA         20.8550  -14.0165   20.1725 C.3       3 GLC5        0.0000 
     30 CA         18.7860  -14.0190   20.6690 C.3       9 GLL5        0.0000 
     31 CA         22.9240  -14.0140   19.6760 C.3       6 GLP5        0.0000 
     32 O          16.0365   -9.7465   21.4170 O.2       1 ALC1        0.0000 
     33 O          15.2800  -10.7410   20.6250 O.2       7 ALL1        0.0000 
     34 O          16.7930   -8.7520   22.2090 O.2       4 ALP1        0.0000 
     35 CA         14.6220   -8.9385   18.9325 C.3       3 GLC5        0.0000 
     36 CA         13.8650  -10.4930   20.3600 C.3       9 GLL5        0.0000 
     37 CA         15.3790   -7.3840   17.5050 C.3       6 GLP5        0.0000 
     38 CA         11.7580  -12.5130   18.9240 C.3       3 GLC5        0.0000 
     39 CA         12.2280  -12.8230   21.0420 C.3       9 GLL5        0.0000 
     40 CA         11.2880  -12.2030   16.8060 C.3       6 GLP5        0.0000 
     41 CA         10.5065  -13.6515   20.8615 C.3       3 GLC5        0.0000 
     42 CA          8.7850  -14.4800   20.6810 C.3       6 GLP5        0.0000 
     43 O          13.4595  -14.2320   23.0670 O.2       1 ALC1        0.0000 
     44 O          13.0210  -13.8790   21.6510 O.2       7 ALL1        0.0000 
     45 O          13.8980  -14.5850   24.4830 O.2       4 ALP1        0.0000 
     46 CA         10.6525   -7.7510   23.3055 C.3       3 GLC5        0.0000 
     47 CA         12.1250   -7.9020   24.6060 C.3       9 GLL5        0.0000 
     48 CA          9.1800   -7.6000   22.0050 C.3       6 GLP5        0.0000 
     49 CA         11.5790   -8.4510   26.2450 C.3       3 GLC5        0.0000 
     50 CA         11.0330   -9.0000   27.8840 C.3       6 GLP5        0.0000 
     51 CA         13.2595   -7.6205   26.5190 C.3       3 GLC5        0.0000 
     52 CA         14.3940   -7.3390   28.4320 C.3       6 GLP5        0.0000 
     53 CA         11.1995   -6.3730   25.3510 C.3       3 GLC5        0.0000 
     54 CA         10.2740   -4.8440   26.0960 C.3       6 GLP5        0.0000 
     55 CA         12.1625  -18.5538   23.7357 C.3       3 GLC5        0.0000 
     56 CA         13.9020  -19.5030   23.0480 C.3       9 GLL5        0.0000 
     57 CA         10.7530  -17.3010   23.8900 C.3       6 GLP5        0.0000 
     58 CA         14.1702  -18.5535   26.5928 C.3       3 GLC5        0.0000 
     59 CA         13.8890  -20.2570   25.3380 C.3       9 GLL5        0.0000 
     60 CA         13.8000  -17.0790   27.7670 C.3       6 GLP5        0.0000 
     61 CA         17.8635  -12.5503   24.4857 C.3       3 GLC5        0.0000 
     62 CA         17.8090  -14.7230   24.3340 C.3       9 GLL5        0.0000 
     63 CA         18.8429  -10.7896   18.9259 C.3       3 GLC5        0.0000 
     64 CA         19.1870   -8.9880   18.1070 C.3       6 GLP5        0.0000 
     65 CA         18.4162  -14.2781   18.6402 C.3       3 GLC5        0.0000 
     66 CA         18.1530  -12.0870   19.3080 C.3       9 GLL5        0.0000 
     67 CA         18.0880  -15.2470   17.2350 C.3       6 GLP5        0.0000 
     68 CA         12.7043   -8.0330   21.6365 C.3       3 GLC5        0.0000 
     69 CA         12.9630   -9.3740   22.4300 C.3       9 GLL5        0.0000 
     70 CA         12.4290   -6.1320   21.2530 C.3       6 GLP5        0.0000 
     71 CA         12.6715  -12.1298   24.1850 C.3       3 GLC5        0.0000 
     72 CA         12.2070  -11.5940   21.9240 C.3       9 GLL5        0.0000 
     73 CA         13.5380  -12.6700   25.8790 C.3       6 GLP5        0.0000 
     74 CA         10.3751  -11.6034   20.9672 C.3       3 GLC5        0.0000 
     75 CA         11.4030  -11.5850   23.0580 C.3       9 GLL5        0.0000 
     76 CA          8.9400  -11.3100   19.6640 C.3       6 GLP5        0.0000 
     77 CA         12.6472  -11.2890   24.7963 C.3       3 GLC5        0.0000 
     78 CA         12.1490   -9.3560   23.5520 C.3       9 GLL5        0.0000 
     79 CA         11.3947   -9.4540   25.7987 C.3       3 GLC5        0.0000 
     80 CA         11.3640  -10.4600   23.8750 C.3       9 GLL5        0.0000 
     81 CA         12.2830   -7.3805   22.6660 C.3       3 GLC5        0.0000 
     82 CA         14.0140   -9.3855   24.2065 C.3       3 GLC5        0.0000 
     83 CA         15.8910  -10.1420   24.3340 C.3       6 GLP5        0.0000 
     84 CA         10.7699   -8.6205   22.5384 C.3       3 GLC5        0.0000 
     85 CA         14.5439  -10.0379   23.0207 C.3       3 GLC5        0.0000 
@<TRIPOS>BOND
@<TRIPOS>SUBSTRUCTURE
     1 ALC1       32 GROUP        1 X    ALC  0     ROOT ALC X 1
     2 SEC2        6 GROUP        1 X    SEC  0     **** SEC X 2
     3 GLC5        1 GROUP        1 X    GLC  0     **** GLC X 6
     4 ALP1       34 GROUP        1 Y    ALP  0     ROOT ALP Y 8
     5 SEP2        8 GROUP        1 Y    SEP  0     **** SEP Y 9
     6 GLP5        3 GROUP        1 Y    GLP  0     **** GLP Y 13
     7 ALL1       33 GROUP        1 Z    ALL  0     ROOT ALL Z 15
     8 SEL2        7 GROUP        1 Z    SEL  0     **** SEL Z 16
     9 GLL5        2 GROUP        1 Z    GLL  0     **** GLL Z 20
@<TRIPOS>SET

