#    Name: 3rmn_M41_1_ligand
#    Modification time : Tue Mar 25 11:42:27 2014

@<TRIPOS>MOLECULE
3rmn_M41_1_ligand
   69    71     1     0     0
SMALL
NO_CHARGES


@<TRIPOS>ATOM
      1 C7         15.9430  -18.3740   22.0610 C.3       1 M411        0.0000 
      2 S8         15.4800  -16.7750   21.8960 S.o2      1 M411        0.0000 
      3 C4         15.2070  -19.0410   23.2070 C.ar      1 M411        0.0000 
      4 C5         13.9020  -19.5030   23.0480 C.ar      1 M411        0.0000 
      5 C6         13.2420  -20.1100   24.1150 C.ar      1 M411        0.0000 
      6 C1         13.8890  -20.2570   25.3380 C.ar      1 M411        0.0000 
      7 C2         15.1920  -19.7990   25.4990 C.ar      1 M411        0.0000 
      8 C33        15.8490  -19.1950   24.4340 C.ar      1 M411        0.0000 
      9 O12        15.9600  -16.2990   20.6350 O.2       1 M411        0.0000 
     10 O13        14.0530  -16.7060   22.0120 O.2       1 M411        0.0000 
     11 N9         16.1400  -15.9330   23.1030 N.pl3     1 M411        0.0000 
     12 C10        17.2710  -15.0500   22.9380 C.3       1 M411        0.0000 
     13 C14        17.8090  -14.7230   24.3340 C.3       1 M411        0.0000 
     14 C15        17.9440  -15.9620   25.2200 C.3       1 M411        0.0000 
     15 C16        19.1250  -13.9580   24.2570 C.3       1 M411        0.0000 
     16 C11        16.9030  -13.7430   22.2860 C.2       1 M411        0.0000 
     17 O22        15.9620  -13.0980   22.7230 O.2       1 M411        0.0000 
     18 N17        17.6400  -13.3300   21.2570 N.am      1 M411        0.0000 
     19 C18        17.3360  -12.0540   20.5990 C.3       1 M411        0.0000 
     20 C23        15.8740  -11.8940   20.3000 C.2       1 M411        0.0000 
     21 O32        15.2480  -12.8060   19.7810 O.2       1 M411        0.0000 
     22 C19        18.1530  -12.0870   19.3080 C.3       1 M411        0.0000 
     23 C20        19.2530  -13.1120   19.5360 C.3       1 M411        0.0000 
     24 C21        18.7860  -14.0190   20.6690 C.3       1 M411        0.0000 
     25 N24        15.2800  -10.7410   20.6250 N.am      1 M411        0.0000 
     26 C25        13.8650  -10.4930   20.3600 C.3       1 M411        0.0000 
     27 C26        12.9960  -10.4940   21.6100 C.ar      1 M411        0.0000 
     28 C27        12.2070  -11.5940   21.9240 C.ar      1 M411        0.0000 
     29 C34        12.2280  -12.8230   21.0420 C.3       1 M411        0.0000 
     30 N35        13.0210  -13.8790   21.6510 N.4       1 M411        0.0000 
     31 C28        11.4030  -11.5850   23.0580 C.ar      1 M411        0.0000 
     32 C29        11.3640  -10.4600   23.8750 C.ar      1 M411        0.0000 
     33 C30        12.1490   -9.3560   23.5520 C.ar      1 M411        0.0000 
     34 CL3        12.1250   -7.9020   24.6060 Cl        1 M411        0.0000 
     35 C31        12.9630   -9.3740   22.4300 C.ar      1 M411        0.0000 
     36 H          17.0072  -18.3514   22.2285 H         1 M411        0.0000 
     37 H          15.7173  -18.8397   21.1159 H         1 M411        0.0000 
     38 H          13.4259  -19.3962   22.1437 H         1 M411        0.0000 
     39 H          12.2793  -20.4480   23.9976 H         1 M411        0.0000 
     40 H          13.4014  -20.7061   26.1256 H         1 M411        0.0000 
     41 H          15.6674  -19.9071   26.4033 H         1 M411        0.0000 
     42 H          16.8160  -18.8587   24.5505 H         1 M411        0.0000 
     43 H          15.6892  -16.0768   23.9989 H         1 M411        0.0000 
     44 H          18.0626  -15.5150   22.3899 H         1 M411        0.0000 
     45 H          17.0722  -14.0514   24.8202 H         1 M411        0.0000 
     46 H          17.6951  -11.2396   21.1913 H         1 M411        0.0000 
     47 H          18.5842  -11.1243   19.1325 H         1 M411        0.0000 
     48 H          17.5289  -12.3981   18.4972 H         1 M411        0.0000 
     49 H          20.1590  -12.6134   19.8246 H         1 M411        0.0000 
     50 H          19.3965  -13.6940   18.6452 H         1 M411        0.0000 
     51 H          18.5024  -14.9685   20.2567 H         1 M411        0.0000 
     52 H          19.5848  -14.1251   21.3780 H         1 M411        0.0000 
     53 H          15.7981   -9.9616   21.0840 H         1 M411        0.0000 
     54 H          13.4623  -11.2566   19.6624 H         1 M411        0.0000 
     55 H          13.7321   -9.5155   19.8514 H         1 M411        0.0000 
     56 H          12.6393  -12.5414   20.0634 H         1 M411        0.0000 
     57 H          11.1931  -13.1546   20.8834 H         1 M411        0.0000 
     58 H          10.8365  -12.4106   23.2934 H         1 M411        0.0000 
     59 H          10.7655  -10.4430   24.7043 H         1 M411        0.0000 
     60 H          13.5453   -8.5547   22.2032 H         1 M411        0.0000 
     61 H          18.5655  -16.6370   24.8224 H         1 M411        0.0000 
     62 H          18.3002  -15.7336   26.1261 H         1 M411        0.0000 
     63 H          17.0647  -16.4181   25.3571 H         1 M411        0.0000 
     64 H          19.4831  -13.7426   25.1655 H         1 M411        0.0000 
     65 H          19.8313  -14.4811   23.7800 H         1 M411        0.0000 
     66 H          19.0226  -13.0911   23.7692 H         1 M411        0.0000 
     67 H          12.6885  -14.7871   21.3963 H         1 M411        0.0000 
     68 H          13.9805  -13.8298   21.3737 H         1 M411        0.0000 
     69 H          13.0016  -13.8292   22.6495 H         1 M411        0.0000 
@<TRIPOS>BOND
     1    2    1 1    
     2    3    1 1    
     3   36    1 1    
     4   37    1 1    
     5    9    2 2    
     6   10    2 2    
     7   11    2 1    
     8    4    3 ar   
     9    8    3 ar   
    10    5    4 ar   
    11   38    4 1    
    12    6    5 ar   
    13   39    5 1    
    14    7    6 ar   
    15   40    6 1    
    16    8    7 ar   
    17   41    7 1    
    18   42    8 1    
    19   12   11 1    
    20   43   11 1    
    21   13   12 1    
    22   16   12 1    
    23   44   12 1    
    24   14   13 1    
    25   15   13 1    
    26   45   13 1    
    27   61   14 1    
    28   62   14 1    
    29   63   14 1    
    30   64   15 1    
    31   65   15 1    
    32   66   15 1    
    33   17   16 2    
    34   18   16 am   
    35   19   18 1    
    36   24   18 1    
    37   20   19 1    
    38   22   19 1    
    39   46   19 1    
    40   21   20 2    
    41   25   20 am   
    42   23   22 1    
    43   47   22 1    
    44   48   22 1    
    45   24   23 1    
    46   49   23 1    
    47   50   23 1    
    48   51   24 1    
    49   52   24 1    
    50   26   25 1    
    51   53   25 1    
    52   27   26 1    
    53   54   26 1    
    54   55   26 1    
    55   28   27 ar   
    56   35   27 ar   
    57   29   28 1    
    58   31   28 ar   
    59   30   29 1    
    60   56   29 1    
    61   57   29 1    
    62   67   30 1    
    63   68   30 1    
    64   69   30 1    
    65   32   31 ar   
    66   58   31 1    
    67   33   32 ar   
    68   59   32 1    
    69   34   33 1    
    70   35   33 ar   
    71   60   35 1    
@<TRIPOS>SUBSTRUCTURE
     1 M411        1 GROUP   
@<TRIPOS>SET

