#    Name: 17GS_1_CAVITY_N1_6.mol2
#    Modification time : Mon Mar 10 12:20:57 2014

@<TRIPOS>MOLECULE
17GS_1_CAVITY_N1_6.mol2
   97     0     5     0     0
SMALL
NO_CHARGES


@<TRIPOS>ATOM
      1 CA          4.9934    1.7363   30.7875 C.3       4 GLY6        0.0000 
      2 CA          5.8932    0.5616   31.0335 C.3       4 GLY6        0.0000 
      3 N           5.1680   -0.2156   29.9752 N.2       2 ALA2        0.0000 
      4 CA          5.6005    6.1559   31.3778 C.3       4 GLY6        0.0000 
      5 CZ          6.6749    3.0294   30.8117 C.ar      3 PHE5        0.0000 
      6 CZ          7.5747    1.8547   31.0577 C.ar      3 PHE5        0.0000 
      7 DU          5.9497    2.2522   29.7534 H         5 CUB7        0.0000 
      8 CA          6.8495    1.0775   29.9994 C.3       4 GLY6        0.0000 
      9 CA          7.7492   -0.0972   30.2455 C.3       4 GLY6        0.0000 
     10 CA          5.2245    1.4750   28.6950 C.3       4 GLY6        0.0000 
     11 CZ          6.5568    6.6718   30.3437 C.ar      3 PHE5        0.0000 
     12 CZ          7.4566    5.4971   30.5898 C.ar      3 PHE5        0.0000 
     13 DU          5.8316    5.8946   29.2854 H         5 CUB7        0.0000 
     14 CZ          6.7314    4.7199   29.5315 C.ar      3 PHE5        0.0000 
     15 CZ          8.5309    2.3706   30.0236 C.ar      3 PHE5        0.0000 
     16 DU          6.0062    3.9427   28.4732 H         5 CUB7        0.0000 
     17 DU          6.9059    2.7680   28.7192 H         5 CUB7        0.0000 
     18 CZ          7.8057    1.5934   28.9653 C.ar      3 PHE5        0.0000 
     19 CA          8.7055    0.4187   29.2114 C.3       4 GLY6        0.0000 
     20 CZ          5.2810    3.1655   27.4148 C.ar      3 PHE5        0.0000 
     21 OG          6.1807    1.9908   27.6609 O.2       1 SER1        0.0000 
     22 CA          7.0805    0.8162   27.9070 C.3       4 GLY6        0.0000 
     23 O           7.3385    9.1395   30.1218 O.2       2 ALA2        0.0000 
     24 O           8.2382    7.9649   30.3679 O.2       2 ALA2        0.0000 
     25 CZ          7.5130    7.1876   29.3096 C.ar      3 PHE5        0.0000 
     26 CZ          8.4128    6.0130   29.5557 C.ar      3 PHE5        0.0000 
     27 DU          6.7878    6.4104   28.2513 H         5 CUB7        0.0000 
     28 CZ          7.6876    5.2358   28.4974 C.ar      3 PHE5        0.0000 
     29 CZ          8.5874    4.0611   28.7434 C.ar      3 PHE5        0.0000 
     30 CZ          9.4872    2.8865   28.9895 C.ar      3 PHE5        0.0000 
     31 DU          6.9624    4.4586   27.4390 H         5 CUB7        0.0000 
     32 OG          7.8622    3.2839   27.6851 O.2       1 SER1        0.0000 
     33 OG          8.7620    2.1093   27.9312 O.2       1 SER1        0.0000 
     34 CZ          6.2372    3.6814   26.3807 C.ar      3 PHE5        0.0000 
     35 OG          7.1370    2.5067   26.6268 O.2       1 SER1        0.0000 
     36 O           8.2947    9.6554   29.0877 O.2       2 ALA2        0.0000 
     37 O           9.1945    8.4807   29.3338 O.2       2 ALA2        0.0000 
     38 CZ         10.0943    7.3061   29.5799 C.ar      3 PHE5        0.0000 
     39 O           8.4693    7.7035   28.2755 O.2       2 ALA2        0.0000 
     40 CZ          9.3691    6.5289   28.5215 C.ar      3 PHE5        0.0000 
     41 CZ         10.2689    5.3542   28.7676 C.ar      3 PHE5        0.0000 
     42 DU          7.7441    6.9263   27.2172 H         5 CUB7        0.0000 
     43 DU          8.6439    5.7517   27.4632 H         5 CUB7        0.0000 
     44 CZ          9.5437    4.5770   27.7093 C.ar      3 PHE5        0.0000 
     45 OG         10.4435    3.4023   27.9554 O.2       1 SER1        0.0000 
     46 DU          7.9187    4.9744   26.4049 H         5 CUB7        0.0000 
     47 OG          8.8185    3.7998   26.6510 O.2       1 SER1        0.0000 
     48 OG          9.7183    2.6251   26.8971 O.2       1 SER1        0.0000 
     49 CZ          7.1935    4.1972   25.3466 C.ar      3 PHE5        0.0000 
     50 OG          8.0933    3.0226   25.5927 O.2       1 SER1        0.0000 
     51 CA         10.1508    8.9966   28.2997 C.3       4 GLY6        0.0000 
     52 N          11.0506    7.8219   28.5457 N.2       2 ALA2        0.0000 
     53 O           9.4256    8.2194   27.2413 O.2       2 ALA2        0.0000 
     54 N          10.3254    7.0447   27.4874 N.2       2 ALA2        0.0000 
     55 N          11.2252    5.8701   27.7335 N.2       2 ALA2        0.0000 
     56 O           8.7004    7.4422   26.1830 O.2       2 ALA2        0.0000 
     57 DU          9.6002    6.2675   26.4291 H         5 CUB7        0.0000 
     58 OG         10.5000    5.0929   26.6752 O.2       1 SER1        0.0000 
     59 DU          7.9752    6.6650   25.1247 H         5 CUB7        0.0000 
     60 DU          8.8750    5.4903   25.3708 H         5 CUB7        0.0000 
     61 OG          9.7748    4.3157   25.6169 O.2       1 SER1        0.0000 
     62 OG         10.6746    3.1410   25.8629 O.2       1 SER1        0.0000 
     63 CZ          8.1498    4.7131   24.3125 C.ar      3 PHE5        0.0000 
     64 CZ          9.0496    3.5385   24.5585 C.ar      3 PHE5        0.0000 
     65 OG          9.9494    2.3638   24.8046 O.2       1 SER1        0.0000 
     66 CA         10.8491    1.1891   25.0507 C.3       4 GLY6        0.0000 
     67 OG          9.2242    1.5866   23.7463 O.2       1 SER1        0.0000 
     68 O          10.3819    8.7353   26.2072 O.2       2 ALA2        0.0000 
     69 N          11.2817    7.5606   26.4533 N.2       2 ALA2        0.0000 
     70 N          12.1814    6.3859   26.6994 N.2       2 ALA2        0.0000 
     71 O           9.6567    7.9581   25.1489 O.2       2 ALA2        0.0000 
     72 DU         10.5565    6.7834   25.3950 H         5 CUB7        0.0000 
     73 CA         11.4562    5.6087   25.6411 C.3       4 GLY6        0.0000 
     74 OG         12.3560    4.4341   25.8871 O.2       1 SER1        0.0000 
     75 DU          8.9315    7.1809   24.0906 H         5 CUB7        0.0000 
     76 DU          9.8313    6.0062   24.3367 H         5 CUB7        0.0000 
     77 CA         10.7310    4.8315   24.5827 C.3       4 GLY6        0.0000 
     78 OG         11.6308    3.6569   24.8288 O.2       1 SER1        0.0000 
     79 CA          8.2063    6.4037   23.0323 C.3       4 GLY6        0.0000 
     80 CA          9.1061    5.2290   23.2783 C.3       4 GLY6        0.0000 
     81 CA         10.0058    4.0543   23.5244 C.3       4 GLY6        0.0000 
     82 CA         10.9056    2.8797   23.7705 C.3       4 GLY6        0.0000 
     83 CA         11.8054    1.7050   24.0166 C.3       4 GLY6        0.0000 
     84 CA          9.2806    3.2771   22.4661 C.3       4 GLY6        0.0000 
     85 CA         10.1804    2.1025   22.7122 C.3       4 GLY6        0.0000 
     86 CA         11.0802    0.9278   22.9583 C.3       4 GLY6        0.0000 
     87 N          10.6129    8.4739   24.1148 N.2       2 ALA2        0.0000 
     88 O          11.5127    7.2993   24.3609 O.2       2 ALA2        0.0000 
     89 DU          9.8877    7.6967   23.0565 H         5 CUB7        0.0000 
     90 O          10.7875    6.5221   23.3025 O.2       2 ALA2        0.0000 
     91 O          11.6873    5.3474   23.5486 O.2       2 ALA2        0.0000 
     92 CA          9.1625    6.9195   21.9981 C.3       4 GLY6        0.0000 
     93 CA         10.0623    5.7449   22.2442 C.3       4 GLY6        0.0000 
     94 CA         11.8619    3.3955   22.7364 C.3       4 GLY6        0.0000 
     95 O          12.7617    2.2209   22.9824 O.2       2 ALA2        0.0000 
     96 CA         12.0365    1.4437   21.9241 C.3       4 GLY6        0.0000 
     97 O          10.8440    8.2126   22.0223 O.2       2 ALA2        0.0000 
@<TRIPOS>BOND
@<TRIPOS>SUBSTRUCTURE
     1 SER1       21 GROUP   
     2 ALA2        3 GROUP   
     3 PHE5        5 GROUP   
     4 GLY6        1 GROUP   
     5 CUB7        7 GROUP   
@<TRIPOS>SET

