#    Name: 17gs_GTX_1_INTS_M
#    Modification time : Mon Mar 24 17:42:59 2014

@<TRIPOS>MOLECULE
17gs_GTX_1_INTS_M
   79     0    15     0     0
SMALL
NO_CHARGES


@<TRIPOS>ATOM
      1 OD1        14.3810   12.1515   22.1690 O.co2     3 ASC3        0.0000 
      2 OD1        14.7480   10.9550   23.4130 O.co2    13 ASL3        0.0000 
      3 OD1        14.0140   13.3480   20.9250 O.co2     8 ASP3        0.0000 
      4 OD1        14.3370   12.3010   23.2520 O.co2     3 ASC3        0.0000 
      5 OD1        13.9260   13.6470   23.0910 O.co2     8 ASP3        0.0000 
      6 O          15.9460   11.5170   23.7270 O.2       1 ALC1        0.0000 
      7 O          14.7480   10.9550   23.4130 O.2      11 ALL1        0.0000 
      8 O          17.1440   12.0790   24.0410 O.2       6 ALP1        0.0000 
      9 O          14.3370   12.3010   23.2520 O.2       1 ALC1        0.0000 
     10 O          13.9260   13.6470   23.0910 O.2       6 ALP1        0.0000 
     11 N          17.5985    8.4345   25.5195 N.am      2 SEC2        0.0000 
     12 N          16.1720    8.5240   25.5870 N.am     12 SEL2        0.0000 
     13 N          19.0250    8.3450   25.4520 N.am      7 SEP2        0.0000 
     14 N          17.0785    7.5865   24.4790 N.am      2 SEC2        0.0000 
     15 N          17.9850    6.6490   23.3710 N.am      7 SEP2        0.0000 
     16 NZ         15.2760    7.6365   22.2375 N.4       4 LYC4        0.0000 
     17 NZ         16.2040    8.7280   23.3990 N.4      14 LYL4        0.0000 
     18 NZ         14.3480    6.5450   21.0760 N.4       9 LYP4        0.0000 
     19 N          17.0945    7.6885   23.3850 N.am      2 SEC2        0.0000 
     20 N          16.2040    8.7280   23.3990 N.am     12 SEL2        0.0000 
     21 CA         12.3280    9.7170   27.5430 C.3       5 GLC5        0.0000 
     22 CA         12.9790    8.5350   25.8260 C.3      15 GLL5        0.0000 
     23 CA         11.6770   10.8990   29.2600 C.3      10 GLP5        0.0000 
     24 O          12.3320    7.6065   28.0135 O.2       1 ALC1        0.0000 
     25 O          11.1160    7.8620   27.1980 O.2      11 ALL1        0.0000 
     26 O          13.5480    7.3510   28.8290 O.2       6 ALP1        0.0000 
     27 CA         10.6955    9.2270   28.3545 C.3       5 GLC5        0.0000 
     28 CA          9.7140    7.5550   27.4490 C.3      15 GLL5        0.0000 
     29 N          11.5545    8.2715   30.3405 N.am      2 SEC2        0.0000 
     30 N          10.2290    7.8700   29.7690 N.am     12 SEL2        0.0000 
     31 N          12.8800    8.6730   30.9120 N.am      7 SEP2        0.0000 
     32 CA         11.9150    4.0770   28.5705 C.3       5 GLC5        0.0000 
     33 CA         10.2500    4.8710   28.0150 C.3      15 GLL5        0.0000 
     34 CA         13.5800    3.2830   29.1260 C.3      10 GLP5        0.0000 
     35 CA         10.0185    4.8735   29.8195 C.3       5 GLC5        0.0000 
     36 CA          9.7870    4.8760   31.6240 C.3      10 GLP5        0.0000 
     37 CA         11.6765    2.7860   27.6715 C.3       5 GLC5        0.0000 
     38 CA          9.9000    3.4110   27.0250 C.3      15 GLL5        0.0000 
     39 CA         13.4530    2.1610   28.3180 C.3      10 GLP5        0.0000 
     40 CA         10.0490    3.4855   29.2435 C.3       5 GLC5        0.0000 
     41 CA         10.1980    3.5600   31.4620 C.3      10 GLP5        0.0000 
     42 CA          7.3600    2.1015   25.6525 C.3       5 GLC5        0.0000 
     43 CA          8.5040    2.8390   27.2200 C.3      15 GLL5        0.0000 
     44 CA          6.2160    1.3640   24.0850 C.3      10 GLP5        0.0000 
     45 CA          9.2315    2.9630   30.0525 C.3       5 GLC5        0.0000 
     46 CA          8.2650    2.3660   28.6430 C.3      15 GLL5        0.0000 
     47 CA          9.6005    0.7100   28.5885 C.3       5 GLC5        0.0000 
     48 CA         10.9360   -0.9460   28.5340 C.3      10 GLP5        0.0000 
     49 CA          8.5445    1.0400   31.1415 C.3       5 GLC5        0.0000 
     50 CA          6.7920    0.9130   30.0850 C.3      15 GLL5        0.0000 
     51 CA         10.2970    1.1670   32.1980 C.3      10 GLP5        0.0000 
     52 CA          7.5800    2.4500   32.1945 C.3       5 GLC5        0.0000 
     53 CA          6.0710    1.9550   30.8970 C.3      15 GLL5        0.0000 
     54 CA          9.0890    2.9450   33.4920 C.3      10 GLP5        0.0000 
     55 CA          5.2475    1.4235   32.5805 C.3       5 GLC5        0.0000 
     56 CA          4.4240    0.8920   34.2640 C.3      10 GLP5        0.0000 
     57 CA          8.2990    6.7815   31.5955 C.3       5 GLC5        0.0000 
     58 CA          7.5750    8.3350   30.4620 C.3      15 GLL5        0.0000 
     59 CA          9.0230    5.2280   32.7290 C.3      10 GLP5        0.0000 
     60 CA          7.8450    8.5005   32.3005 C.3       5 GLC5        0.0000 
     61 CA          8.1150    8.6660   34.1390 C.3      10 GLP5        0.0000 
     62 NZ          6.6305   11.5805   31.7975 N.4       4 LYC4        0.0000 
     63 NZ          6.1680   10.0220   31.3650 N.4      14 LYL4        0.0000 
     64 NZ          7.0930   13.1390   32.2300 N.4       9 LYP4        0.0000 
     65 N           6.5045    9.2150   32.5305 N.am      2 SEC2        0.0000 
     66 N           6.1680   10.0220   31.3650 N.am     12 SEL2        0.0000 
     67 N           6.8410    8.4080   33.6960 N.am      7 SEP2        0.0000 
     68 NZ          7.0915   11.7820   30.8230 N.4       4 LYC4        0.0000 
     69 NZ          7.0900   10.4250   29.4160 N.4      14 LYL4        0.0000 
     70 N           8.0495   10.7000   28.1980 N.am      2 SEC2        0.0000 
     71 N           7.0900   10.4250   29.4160 N.am     12 SEL2        0.0000 
     72 N           9.0090   10.9750   26.9800 N.am      7 SEP2        0.0000 
     73 CA         13.7355    7.3065   24.2920 C.3       5 GLC5        0.0000 
     74 CA         14.3560    5.6530   23.3740 C.3      10 GLP5        0.0000 
     75 CA          8.0267   -0.7025   29.2580 C.3       5 GLC5        0.0000 
     76 CA          7.0830    1.4150   28.6830 C.3      15 GLL5        0.0000 
     77 CA          9.1160   -2.5690   29.1320 C.3      10 GLP5        0.0000 
     78 CA          6.4393   -0.2565   28.4140 C.3       5 GLC5        0.0000 
     79 CA          5.9410   -1.6770   27.4440 C.3      10 GLP5        0.0000 
@<TRIPOS>BOND
@<TRIPOS>SUBSTRUCTURE
     1 ALC1        6 GROUP        1 X    ALC  0     ROOT ALC X 1
     2 SEC2       11 GROUP        1 X    SEC  0     **** SEC X 2
     3 ASC3        1 GROUP        1 X    ASC  0     **** ASC X 3
     4 LYC4       16 GROUP        1 X    LYC  0     **** LYC X 4
     5 GLC5       21 GROUP        1 X    GLC  0     **** GLC X 6
     6 ALP1        8 GROUP        1 Y    ALP  0     ROOT ALP Y 8
     7 SEP2       13 GROUP        1 Y    SEP  0     **** SEP Y 9
     8 ASP3        3 GROUP        1 Y    ASP  0     **** ASP Y 10
     9 LYP4       18 GROUP        1 Y    LYP  0     **** LYP Y 11
    10 GLP5       23 GROUP        1 Y    GLP  0     **** GLP Y 13
    11 ALL1        7 GROUP        1 Z    ALL  0     ROOT ALL Z 15
    12 SEL2       12 GROUP        1 Z    SEL  0     **** SEL Z 16
    13 ASL3        2 GROUP        1 Z    ASL  0     **** ASL Z 17
    14 LYL4       17 GROUP        1 Z    LYL  0     **** LYL Z 18
    15 GLL5       22 GROUP        1 Z    GLL  0     **** GLL Z 20
@<TRIPOS>SET

