#    Name: 17gs_GTX_1_ligand
#    Modification time : Mon Mar 24 17:42:59 2014

@<TRIPOS>MOLECULE
17gs_GTX_1_ligand
   54    53     1     0     0
SMALL
NO_CHARGES


@<TRIPOS>ATOM
      1 N1         14.7480   10.9550   23.4130 N.4       1 GTX210      0.0000 
      2 CA1        14.6250   10.0570   24.5880 C.3       1 GTX210      0.0000 
      3 C1         15.7410    9.0150   24.5230 C.2       1 GTX210      0.0000 
      4 O11        16.1720    8.5240   25.5870 O.co2     1 GTX210      0.0000 
      5 O12        16.2040    8.7280   23.3990 O.co2     1 GTX210      0.0000 
      6 CB1        13.2510    9.3850   24.5940 C.3       1 GTX210      0.0000 
      7 CG1        12.9790    8.5350   25.8260 C.3       1 GTX210      0.0000 
      8 CD1        11.5220    8.2100   25.9860 C.2       1 GTX210      0.0000 
      9 OE1        10.7650    8.2470   25.0170 O.2       1 GTX210      0.0000 
     10 N2         11.1160    7.8620   27.1980 N.am      1 GTX210      0.0000 
     11 CA2         9.7140    7.5550   27.4490 C.3       1 GTX210      0.0000 
     12 C2          9.3530    7.8290   28.8970 C.2       1 GTX210      0.0000 
     13 O2         10.2290    7.8700   29.7690 O.2       1 GTX210      0.0000 
     14 CB2         9.3780    6.1120   27.0670 C.3       1 GTX210      0.0000 
     15 SG2        10.2500    4.8710   28.0150 S.3       1 GTX210      0.0000 
     16 C1S         9.9000    3.4110   27.0250 C.3       1 GTX210      0.0000 
     17 C2S         8.5040    2.8390   27.2200 C.3       1 GTX210      0.0000 
     18 C3S         8.2650    2.3660   28.6430 C.3       1 GTX210      0.0000 
     19 C4S         7.0830    1.4150   28.6830 C.3       1 GTX210      0.0000 
     20 C5S         6.7920    0.9130   30.0850 C.3       1 GTX210      0.0000 
     21 C6S         6.0710    1.9550   30.8970 C.3       1 GTX210      0.0000 
     22 N3          8.0620    8.0330   29.1330 N.am      1 GTX210      0.0000 
     23 CA3         7.5750    8.3350   30.4620 C.3       1 GTX210      0.0000 
     24 C3          6.9030    9.6940   30.4160 C.2       1 GTX210      0.0000 
     25 O31         6.1680   10.0220   31.3650 O.co2     1 GTX210      0.0000 
     26 O32         7.0900   10.4250   29.4160 O.co2     1 GTX210      0.0000 
     27 H          14.7396   10.6255   25.4933 H         1 GTX210      0.0000 
     28 H          13.1609    8.7536   23.6931 H         1 GTX210      0.0000 
     29 H          12.4742   10.1651   24.5154 H         1 GTX210      0.0000 
     30 H          13.3366    9.0738   26.7147 H         1 GTX210      0.0000 
     31 H          13.5585    7.6042   25.7497 H         1 GTX210      0.0000 
     32 H          11.7522    7.7909   28.0094 H         1 GTX210      0.0000 
     33 H           9.0823    8.2090   26.8261 H         1 GTX210      0.0000 
     34 H           9.6504    5.8717   26.0476 H         1 GTX210      0.0000 
     35 H           8.3395    5.8613   27.2398 H         1 GTX210      0.0000 
     36 H          10.6867    2.7307   27.3248 H         1 GTX210      0.0000 
     37 H          10.0814    3.7623   26.0174 H         1 GTX210      0.0000 
     38 H           8.3615    1.9969   26.5309 H         1 GTX210      0.0000 
     39 H           7.7625    3.6069   26.9655 H         1 GTX210      0.0000 
     40 H           8.0609    3.2239   29.2794 H         1 GTX210      0.0000 
     41 H           9.1530    1.8551   29.0079 H         1 GTX210      0.0000 
     42 H           7.2876    0.5579   28.0283 H         1 GTX210      0.0000 
     43 H           6.1946    1.9275   28.2918 H         1 GTX210      0.0000 
     44 H           7.7348    0.6532   30.5753 H         1 GTX210      0.0000 
     45 H           6.1798    0.0086   30.0217 H         1 GTX210      0.0000 
     46 H           7.3442    7.9860   28.3805 H         1 GTX210      0.0000 
     47 H           8.3892    8.3767   31.1817 H         1 GTX210      0.0000 
     48 H           6.8449    7.5999   30.7923 H         1 GTX210      0.0000 
     49 H          15.6971   11.0430   23.1106 H         1 GTX210      0.0000 
     50 H          14.2214   10.6190   22.6321 H         1 GTX210      0.0000 
     51 H          14.4178   11.8772   23.6142 H         1 GTX210      0.0000 
     52 H           6.6086    2.7934   30.9868 H         1 GTX210      0.0000 
     53 H           5.1974    2.2100   30.4825 H         1 GTX210      0.0000 
     54 H           5.8732    1.6330   31.8229 H         1 GTX210      0.0000 
@<TRIPOS>BOND
     1    2    1 1    
     2   49    1 1    
     3   50    1 1    
     4   51    1 1    
     5    3    2 1    
     6    6    2 1    
     7   27    2 1    
     8    4    3 ar   
     9    5    3 ar   
    10    7    6 1    
    11   28    6 1    
    12   29    6 1    
    13    8    7 1    
    14   30    7 1    
    15   31    7 1    
    16    9    8 2    
    17   10    8 am   
    18   11   10 1    
    19   32   10 1    
    20   12   11 1    
    21   14   11 1    
    22   33   11 1    
    23   13   12 2    
    24   22   12 am   
    25   15   14 1    
    26   34   14 1    
    27   35   14 1    
    28   16   15 1    
    29   17   16 1    
    30   36   16 1    
    31   37   16 1    
    32   18   17 1    
    33   38   17 1    
    34   39   17 1    
    35   19   18 1    
    36   40   18 1    
    37   41   18 1    
    38   20   19 1    
    39   42   19 1    
    40   43   19 1    
    41   21   20 1    
    42   44   20 1    
    43   45   20 1    
    44   52   21 1    
    45   53   21 1    
    46   54   21 1    
    47   23   22 1    
    48   46   22 1    
    49   24   23 1    
    50   47   23 1    
    51   48   23 1    
    52   25   24 ar   
    53   26   24 ar   
@<TRIPOS>SUBSTRUCTURE
     1 GTX210      1 GROUP   
@<TRIPOS>SET

