#    Name: 1jx0_DFV_1_INTS_M
#    Modification time : Mon Apr  7 13:08:56 2014

@<TRIPOS>MOLECULE
1jx0_DFV_1_INTS_M
   59     0     6     0     0
SMALL
NO_CHARGES


@<TRIPOS>ATOM
      1 CA         29.8250   17.7325   36.5295 C.3       2 GLC5        0.0000 
      2 CA         27.9500   18.4050   35.7090 C.3       6 GLL5        0.0000 
      3 CA         31.7000   17.0600   37.3500 C.3       4 GLP5        0.0000 
      4 CA         26.9480   16.8865   34.2545 C.3       2 GLC5        0.0000 
      5 CA         26.6020   18.3220   35.9380 C.3       6 GLL5        0.0000 
      6 CA         27.2940   15.4510   32.5710 C.3       4 GLP5        0.0000 
      7 CA         25.4300   18.1320   37.4965 C.3       2 GLC5        0.0000 
      8 CA         24.2580   17.9420   39.0550 C.3       4 GLP5        0.0000 
      9 CA         23.9255   20.5700   35.6915 C.3       2 GLC5        0.0000 
     10 CA         25.5940   19.2810   35.2720 C.3       6 GLL5        0.0000 
     11 CA         22.2570   21.8590   36.1110 C.3       4 GLP5        0.0000 
     12 CA         24.2405   18.6575   36.6035 C.3       2 GLC5        0.0000 
     13 CA         22.8870   18.0340   37.9350 C.3       4 GLP5        0.0000 
     14 CA         26.0665   22.0630   35.4875 C.3       2 GLC5        0.0000 
     15 CA         26.1030   20.2400   34.3940 C.3       6 GLL5        0.0000 
     16 CA         26.0300   23.8860   36.5810 C.3       4 GLP5        0.0000 
     17 CA         27.4090   19.0335   32.7945 C.3       2 GLC5        0.0000 
     18 CA         27.6450   20.3690   34.1120 C.3       6 GLL5        0.0000 
     19 CA         27.1730   17.6980   31.4770 C.3       4 GLP5        0.0000 
     20 CA         25.3105   23.3575   34.4055 C.3       2 GLC5        0.0000 
     21 CA         25.9150   22.2850   32.7450 C.3       6 GLL5        0.0000 
     22 CA         24.7060   24.4300   36.0660 C.3       4 GLP5        0.0000 
     23 CA         24.4695   23.0625   32.5245 C.3       2 GLC5        0.0000 
     24 CA         23.0240   23.8400   32.3040 C.3       4 GLP5        0.0000 
     25 CA         27.2015   19.7255   31.8530 C.3       2 GLC5        0.0000 
     26 CA         27.2300   21.7530   32.2290 C.3       6 GLL5        0.0000 
     27 CA         27.6345   25.8985   32.9375 C.3       2 GLC5        0.0000 
     28 CA         28.1890   24.0890   31.7540 C.3       6 GLL5        0.0000 
     29 CA         27.0800   27.7080   34.1210 C.3       4 GLP5        0.0000 
     30 CA         30.2525   26.2675   31.3265 C.3       2 GLC5        0.0000 
     31 CA         28.9080   25.0370   30.7660 C.3       6 GLL5        0.0000 
     32 CA         31.5970   27.4980   31.8870 C.3       4 GLP5        0.0000 
     33 CA         27.2195   26.2200   30.3740 C.3       2 GLC5        0.0000 
     34 CA         25.5310   27.4030   29.9820 C.3       4 GLP5        0.0000 
     35 CA         30.6710   26.1300   29.9680 C.3       2 GLC5        0.0000 
     36 CA         29.2960   24.6020   29.5060 C.3       6 GLL5        0.0000 
     37 CA         32.0460   27.6580   30.4300 C.3       4 GLP5        0.0000 
     38 O          27.9795   16.7975   37.3715 O.2       1 ALC1        0.0000 
     39 O          28.7830   17.5540   36.3120 O.2       5 ALL1        0.0000 
     40 O          27.1760   16.0410   38.4310 O.2       3 ALP1        0.0000 
     41 CA         28.7850   17.9103   33.8255 C.3       2 GLC5        0.0000 
     42 CA         29.3520   16.8810   32.4260 C.3       4 GLP5        0.0000 
     43 CA         27.7940   17.1037   37.5528 C.3       2 GLC5        0.0000 
     44 CA         28.3120   15.8440   39.2820 C.3       4 GLP5        0.0000 
     45 CA         26.5107   18.7293   33.1550 C.3       2 GLC5        0.0000 
     46 CA         25.8488   21.0500   31.2900 C.3       2 GLC5        0.0000 
     47 CA         25.1250   20.0810   30.0930 C.3       4 GLP5        0.0000 
     48 CA         29.3453   21.5032   31.5035 C.3       2 GLC5        0.0000 
     49 CA         31.1170   20.7430   31.2140 C.3       4 GLP5        0.0000 
     50 CA         30.1298   23.1945   30.7975 C.3       2 GLC5        0.0000 
     51 CA         31.7110   21.8260   30.3350 C.3       4 GLP5        0.0000 
     52 CA         27.6125   24.6718   28.7085 C.3       2 GLC5        0.0000 
     53 CA         26.1230   24.5240   27.2810 C.3       4 GLP5        0.0000 
     54 CA         27.3965   23.6318   28.4022 C.3       2 GLC5        0.0000 
     55 CA         28.9860   23.1640   29.0920 C.3       6 GLL5        0.0000 
     56 CA         28.4455   21.4352   28.1807 C.3       2 GLC5        0.0000 
     57 CA         28.2210   20.1310   26.8380 C.3       4 GLP5        0.0000 
     58 CA         30.2293   22.4625   29.9810 C.3       2 GLC5        0.0000 
     59 CA         28.3540   22.3150   29.9550 C.3       6 GLL5        0.0000 
@<TRIPOS>BOND
@<TRIPOS>SUBSTRUCTURE
     1 ALC1       38 GROUP        1 X    ALC  0     ROOT ALC X 1
     2 GLC5        1 GROUP        1 X    GLC  0     **** GLC X 6
     3 ALP1       40 GROUP        1 Y    ALP  0     ROOT ALP Y 8
     4 GLP5        3 GROUP        1 Y    GLP  0     **** GLP Y 13
     5 ALL1       39 GROUP        1 Z    ALL  0     ROOT ALL Z 15
     6 GLL5        2 GROUP        1 Z    GLL  0     **** GLL Z 20
@<TRIPOS>SET

