#    Name: 1jx0_DFV_1_ligand
#    Modification time : Mon Apr  7 13:08:56 2014

@<TRIPOS>MOLECULE
1jx0_DFV_1_ligand
   31    33     1     0     0
SMALL
NO_CHARGES


@<TRIPOS>ATOM
      1 C1         27.9500   18.4050   35.7090 C.ar      1 DFV501      0.0000 
      2 C2         26.6020   18.3220   35.9380 C.ar      1 DFV501      0.0000 
      3 C3         25.5940   19.2810   35.2720 C.ar      1 DFV501      0.0000 
      4 C4         26.1030   20.2400   34.3940 C.ar      1 DFV501      0.0000 
      5 C5         27.6450   20.3690   34.1120 C.ar      1 DFV501      0.0000 
      6 C6         28.4860   19.4740   34.7410 C.ar      1 DFV501      0.0000 
      7 C7         25.1760   21.2860   33.6500 C.2       1 DFV501      0.0000 
      8 C8         25.9150   22.2850   32.7450 C.3       1 DFV501      0.0000 
      9 C9         27.2300   21.7530   32.2290 C.3       1 DFV501      0.0000 
     10 O1         28.1150   21.3190   33.2410 O.3       1 DFV501      0.0000 
     11 C10        27.9170   22.7740   31.3570 C.ar      1 DFV501      0.0000 
     12 C11        28.1890   24.0890   31.7540 C.ar      1 DFV501      0.0000 
     13 C12        28.9080   25.0370   30.7660 C.ar      1 DFV501      0.0000 
     14 C13        29.2960   24.6020   29.5060 C.ar      1 DFV501      0.0000 
     15 C14        28.9860   23.1640   29.0920 C.ar      1 DFV501      0.0000 
     16 C15        28.3540   22.3150   29.9550 C.ar      1 DFV501      0.0000 
     17 O2         23.9730   21.3120   33.7670 O.2       1 DFV501      0.0000 
     18 O3         28.7830   17.5540   36.3120 O.3       1 DFV501      0.0000 
     19 O4         29.9240   25.4160   28.6490 O.3       1 DFV501      0.0000 
     20 H          26.1781   17.6253   36.5599 H         1 DFV501      0.0000 
     21 H          24.6428   19.1664   35.5013 H         1 DFV501      0.0000 
     22 H          29.4971   19.4661   34.6053 H         1 DFV501      0.0000 
     23 H          26.0888   23.2092   33.3142 H         1 DFV501      0.0000 
     24 H          25.2616   22.5381   31.8981 H         1 DFV501      0.0000 
     25 H          26.9877   20.8941   31.5554 H         1 DFV501      0.0000 
     26 H          27.9504   24.4696   32.6422 H         1 DFV501      0.0000 
     27 H          29.0678   25.9781   31.1073 H         1 DFV501      0.0000 
     28 H          29.2803   22.9061   28.1547 H         1 DFV501      0.0000 
     29 H          28.1337   21.3424   29.7348 H         1 DFV501      0.0000 
     30 H          28.2262   17.0927   37.0027 H         1 DFV501      0.0000 
     31 H          30.5014   25.9934   29.2264 H         1 DFV501      0.0000 
@<TRIPOS>BOND
     1    2    1 ar   
     2    6    1 ar   
     3   18    1 1    
     4    3    2 ar   
     5   20    2 1    
     6    4    3 ar   
     7   21    3 1    
     8    5    4 ar   
     9    7    4 1    
    10    6    5 ar   
    11   10    5 1    
    12   22    6 1    
    13    8    7 1    
    14   17    7 2    
    15    9    8 1    
    16   23    8 1    
    17   24    8 1    
    18   10    9 1    
    19   11    9 1    
    20   25    9 1    
    21   12   11 ar   
    22   16   11 ar   
    23   13   12 ar   
    24   26   12 1    
    25   14   13 ar   
    26   27   13 1    
    27   15   14 ar   
    28   19   14 1    
    29   16   15 ar   
    30   28   15 1    
    31   29   16 1    
    32   30   18 1    
    33   31   19 1    
@<TRIPOS>SUBSTRUCTURE
     1 DFV501      1 GROUP   
@<TRIPOS>SET

