#    Name: 3orf_NAD_1_INTS_M
#    Modification time : Tue Mar 25 05:03:11 2014

@<TRIPOS>MOLECULE
3orf_NAD_1_INTS_M
   84     0     9     0     0
SMALL
NO_CHARGES


@<TRIPOS>ATOM
      1 N          11.4540    1.0545   13.1620 N.am      2 SEC2        0.0000 
      2 N          11.4770    1.4250   11.7590 N.am      8 SEL2        0.0000 
      3 N          11.4310    0.6840   14.5650 N.am      5 SEP2        0.0000 
      4 CA         16.5625   -2.0930   12.0005 C.3       3 GLC5        0.0000 
      5 CA         15.4860   -0.7410   10.8900 C.3       9 GLL5        0.0000 
      6 CA         17.6390   -3.4450   13.1110 C.3       6 GLP5        0.0000 
      7 N          17.2625    2.4645   11.9225 N.am      2 SEC2        0.0000 
      8 N          16.6710    1.0960   11.8930 N.am      8 SEL2        0.0000 
      9 N          17.8540    3.8330   11.9520 N.am      5 SEP2        0.0000 
     10 N          16.2855    2.4890   12.5205 N.am      2 SEC2        0.0000 
     11 N          15.9000    3.8820   13.1480 N.am      5 SEP2        0.0000 
     12 O          17.4365    0.4340   12.7125 O.2       1 ALC1        0.0000 
     13 O          16.6710    1.0960   11.8930 O.2       7 ALL1        0.0000 
     14 O          18.2020   -0.2280   13.5320 O.2       4 ALP1        0.0000 
     15 CA         19.0455    1.1115    8.8775 C.3       3 GLC5        0.0000 
     16 CA         17.0670    0.6380    9.6700 C.3       9 GLL5        0.0000 
     17 CA         21.0240    1.5850    8.0850 C.3       6 GLP5        0.0000 
     18 N          17.9900    2.7030   10.9430 N.am      2 SEC2        0.0000 
     19 N          18.1260    1.5730    9.9340 N.am      8 SEL2        0.0000 
     20 O          18.8625    1.0100   10.9345 O.2       1 ALC1        0.0000 
     21 O          18.1260    1.5730    9.9340 O.2       7 ALL1        0.0000 
     22 O          19.5990    0.4470   11.9350 O.2       4 ALP1        0.0000 
     23 CA         17.6105   -2.1215   11.5045 C.3       3 GLC5        0.0000 
     24 CA         17.5820   -0.7980    9.8980 C.3       9 GLL5        0.0000 
     25 CA         16.8085   -2.7735    9.8905 C.3       3 GLC5        0.0000 
     26 CA         16.0350   -4.7490    9.8830 C.3       6 GLP5        0.0000 
     27 CA         18.5720   -2.9190    5.4340 C.3       3 GLC5        0.0000 
     28 CA         19.5380   -2.6570    7.4480 C.3       9 GLL5        0.0000 
     29 CA         17.6060   -3.1810    3.4200 C.3       6 GLP5        0.0000 
     30 CA         22.4505   -4.1400    6.1735 C.3       3 GLC5        0.0000 
     31 CA         20.6360   -3.5430    7.2170 C.3       9 GLL5        0.0000 
     32 CA         24.2650   -4.7370    5.1300 C.3       6 GLP5        0.0000 
     33 O          22.3145   -4.7415    6.0440 O.2       1 ALC1        0.0000 
     34 O          20.9800   -3.9310    5.9640 O.2       7 ALL1        0.0000 
     35 O          23.6490   -5.5520    6.1240 O.2       4 ALP1        0.0000 
     36 O          20.6105   -3.8540    4.5335 O.2       1 ALC1        0.0000 
     37 O          20.2410   -3.7770    3.1030 O.2       4 ALP1        0.0000 
     38 CA         21.6270   -4.8215   10.6870 C.3       3 GLC5        0.0000 
     39 CA         21.1180   -3.5400    9.4970 C.3       9 GLL5        0.0000 
     40 CA         22.1360   -6.1030   11.8770 C.3       6 GLP5        0.0000 
     41 CA         23.0380   -3.3270    9.6995 C.3       3 GLC5        0.0000 
     42 CA         24.9580   -3.1140    9.9020 C.3       6 GLP5        0.0000 
     43 CA         19.3350   -4.2895    9.5220 C.3       3 GLC5        0.0000 
     44 CA         17.5520   -5.0390    9.5470 C.3       6 GLP5        0.0000 
     45 N          10.2815   -1.7075   13.8895 N.am      2 SEC2        0.0000 
     46 N          10.4090   -1.5880   12.4230 N.am      8 SEL2        0.0000 
     47 N          10.1540   -1.8270   15.3560 N.am      5 SEP2        0.0000 
     48 CA         10.1315   -4.0575   12.7975 C.3       3 GLC5        0.0000 
     49 CA         10.4820   -3.8680   10.7310 C.3       9 GLL5        0.0000 
     50 CA          9.7810   -4.2470   14.8640 C.3       6 GLP5        0.0000 
     51 CA         10.0445   -6.9965    9.8330 C.3       3 GLC5        0.0000 
     52 CA         10.3390   -5.0110    9.7070 C.3       9 GLL5        0.0000 
     53 CA          9.7500   -8.9820    9.9590 C.3       6 GLP5        0.0000 
     54 O          13.2725   -6.0835    8.3010 O.2       1 ALC1        0.0000 
     55 O          11.8700   -6.1240    8.2290 O.2       7 ALL1        0.0000 
     56 O          14.6750   -6.0430    8.3730 O.2       4 ALP1        0.0000 
     57 N          10.9995   -6.9630    5.8435 N.am      2 SEC2        0.0000 
     58 N          10.5910   -5.3350    6.1140 N.am      8 SEL2        0.0000 
     59 N          11.4080   -8.5910    5.5730 N.am      5 SEP2        0.0000 
     60 CA          9.3835   -7.3480    8.9610 C.3       3 GLC5        0.0000 
     61 CA          9.0170   -5.7140    7.9630 C.3       9 GLL5        0.0000 
     62 CA          5.9645   -9.0315    7.9220 C.3       3 GLC5        0.0000 
     63 CA          6.3050   -7.9500    6.4960 C.3       9 GLL5        0.0000 
     64 CA          5.6240  -10.1130    9.3480 C.3       6 GLP5        0.0000 
     65 CA          8.6330   -8.2010    8.4350 C.3       3 GLC5        0.0000 
     66 CA          7.5160   -7.4200    6.9110 C.3       9 GLL5        0.0000 
     67 CA          9.0915   -7.8480    5.6340 C.3       3 GLC5        0.0000 
     68 CA         10.6670   -8.2760    4.3570 C.3       6 GLP5        0.0000 
     69 CA          6.3990   -8.0685    8.4160 C.3       3 GLC5        0.0000 
     70 CA          5.2820   -8.7170    9.9210 C.3       6 GLP5        0.0000 
     71 CA         15.4117   -2.7810   10.2280 C.3       3 GLC5        0.0000 
     72 CA         14.6049    0.2515   12.3777 C.3       3 GLC5        0.0000 
     73 CA         14.0910   -0.8850   10.2560 C.3       9 GLL5        0.0000 
     74 CA         13.8250    0.5490   14.1070 C.3       6 GLP5        0.0000 
     75 CA         19.8075   -4.9905    7.1118 C.3       3 GLC5        0.0000 
     76 CA         19.5280   -6.8810    6.8910 C.3       6 GLP5        0.0000 
     77 CA         18.6230   -3.8515    8.7936 C.3       3 GLC5        0.0000 
     78 CA         12.4850   -4.4615    7.1930 C.3       3 GLC5        0.0000 
     79 CA         11.1200   -4.8690    8.3950 C.3       9 GLL5        0.0000 
     80 CA         14.3900   -4.1090    6.5340 C.3       6 GLP5        0.0000 
     81 CA          5.3632   -7.5798    8.5126 C.3       3 GLC5        0.0000 
     82 CA          5.1240   -7.2200    6.6780 C.3       9 GLL5        0.0000 
     83 CA          6.6241   -8.6937    5.3325 C.3       3 GLC5        0.0000 
     84 CA          6.6330   -9.8850    3.9160 C.3       6 GLP5        0.0000 
@<TRIPOS>BOND
@<TRIPOS>SUBSTRUCTURE
     1 ALC1       12 GROUP        1 X    ALC  0     ROOT ALC X 1
     2 SEC2        1 GROUP        1 X    SEC  0     **** SEC X 2
     3 GLC5        4 GROUP        1 X    GLC  0     **** GLC X 6
     4 ALP1       14 GROUP        1 Y    ALP  0     ROOT ALP Y 8
     5 SEP2        3 GROUP        1 Y    SEP  0     **** SEP Y 9
     6 GLP5        6 GROUP        1 Y    GLP  0     **** GLP Y 13
     7 ALL1       13 GROUP        1 Z    ALL  0     ROOT ALL Z 15
     8 SEL2        2 GROUP        1 Z    SEL  0     **** SEL Z 16
     9 GLL5        5 GROUP        1 Z    GLL  0     **** GLL Z 20
@<TRIPOS>SET

