#    Name: 3orf_NAD_1_ligand
#    Modification time : Tue Mar 25 05:03:11 2014

@<TRIPOS>MOLECULE
3orf_NAD_1_ligand
   70    74     1     0     0
SMALL
NO_CHARGES


@<TRIPOS>ATOM
      1 PA         11.8590    0.6520   10.5450 P.3       1 NAD901      0.0000 
      2 O1A        12.1650    1.3420    9.2650 O.co2     1 NAD901      0.0000 
      3 O2A        11.4770    1.4250   11.7590 O.co2     1 NAD901      0.0000 
      4 O5B        13.2500   -0.0880   11.0080 O.3       1 NAD901      0.0000 
      5 C5B        14.0910   -0.8850   10.2560 C.3       1 NAD901      0.0000 
      6 C4B        15.4860   -0.7410   10.8900 C.3       1 NAD901      0.0000 
      7 O4B        16.3830   -1.5490   10.0730 O.3       1 NAD901      0.0000 
      8 C3B        15.9810    0.7210   10.7240 C.3       1 NAD901      0.0000 
      9 O3B        16.6710    1.0960   11.8930 O.3       1 NAD901      0.0000 
     10 C2B        17.0670    0.6380    9.6700 C.3       1 NAD901      0.0000 
     11 O2B        18.1260    1.5730    9.9340 O.3       1 NAD901      0.0000 
     12 C1B        17.5820   -0.7980    9.8980 C.3       1 NAD901      0.0000 
     13 N9A        18.2180   -1.4340    8.7110 N.pl3     1 NAD901      0.0000 
     14 C8A        17.7820   -1.3040    7.4310 C.2       1 NAD901      0.0000 
     15 N7A        18.5770   -2.0710    6.6690 N.2       1 NAD901      0.0000 
     16 C5A        19.5380   -2.6570    7.4480 C.ar      1 NAD901      0.0000 
     17 C6A        20.6360   -3.5430    7.2170 C.ar      1 NAD901      0.0000 
     18 N6A        20.9800   -3.9310    5.9640 N.pl3     1 NAD901      0.0000 
     19 N1A        21.3910   -3.9680    8.2710 N.ar      1 NAD901      0.0000 
     20 C2A        21.1180   -3.5400    9.4970 C.ar      1 NAD901      0.0000 
     21 N3A        20.0860   -2.7050    9.7390 N.ar      1 NAD901      0.0000 
     22 C4A        19.3010   -2.2280    8.7480 C.ar      1 NAD901      0.0000 
     23 O3         10.8320   -0.4780   10.1590 O.3       1 NAD901      0.0000 
     24 PN          9.8580   -1.2760   11.0390 P.3       1 NAD901      0.0000 
     25 O1N         8.5440   -0.5980   10.7990 O.co2     1 NAD901      0.0000 
     26 O2N        10.4090   -1.5880   12.4230 O.co2     1 NAD901      0.0000 
     27 O5D         9.7470   -2.7160   10.2990 O.3       1 NAD901      0.0000 
     28 C5D        10.4820   -3.8680   10.7310 C.3       1 NAD901      0.0000 
     29 C4D        10.3390   -5.0110    9.7070 C.3       1 NAD901      0.0000 
     30 O4D         8.9490   -5.1360    9.3040 O.3       1 NAD901      0.0000 
     31 C3D        11.1200   -4.8690    8.3950 C.3       1 NAD901      0.0000 
     32 O3D        11.8700   -6.1240    8.2290 O.3       1 NAD901      0.0000 
     33 C2D        10.0400   -4.7590    7.3090 C.3       1 NAD901      0.0000 
     34 O2D        10.5910   -5.3350    6.1140 O.3       1 NAD901      0.0000 
     35 C1D         9.0170   -5.7140    7.9630 C.3       1 NAD901      0.0000 
     36 N1N         7.6120   -6.1470    7.5270 N.pl3     1 NAD901      0.0000 
     37 C2N         6.3850   -5.3810    7.7590 C.ar      1 NAD901      0.0000 
     38 C3N         5.1450   -5.9490    7.3020 C.ar      1 NAD901      0.0000 
     39 C7N         3.7610   -5.2680    7.4870 C.2       1 NAD901      0.0000 
     40 O7N         2.9530   -5.2460    6.5390 O.2       1 NAD901      0.0000 
     41 N7N         3.5240   -4.8060    8.7330 N.am      1 NAD901      0.0000 
     42 C4N         5.1240   -7.2200    6.6780 C.ar      1 NAD901      0.0000 
     43 C5N         6.3050   -7.9500    6.4960 C.ar      1 NAD901      0.0000 
     44 C6N         7.5160   -7.4200    6.9110 C.ar      1 NAD901      0.0000 
     45 H          14.1773   -0.5683    9.2208 H         1 NAD901      0.0000 
     46 H          13.8332   -1.9394   10.2892 H         1 NAD901      0.0000 
     47 H          15.4810   -1.0152   11.8752 H         1 NAD901      0.0000 
     48 H          15.2304    1.3292   10.4280 H         1 NAD901      0.0000 
     49 H          16.6478    0.6923    8.7246 H         1 NAD901      0.0000 
     50 H          18.1815   -0.8412   10.7429 H         1 NAD901      0.0000 
     51 H          17.0480   -0.7663    7.1389 H         1 NAD901      0.0000 
     52 H          20.4157   -3.5705    5.2213 H         1 NAD901      0.0000 
     53 H          21.7674   -4.5433    5.8936 H         1 NAD901      0.0000 
     54 H          21.7162   -3.8544   10.3084 H         1 NAD901      0.0000 
     55 H          10.1202   -4.2436   11.6959 H         1 NAD901      0.0000 
     56 H          11.5523   -3.6524   10.8360 H         1 NAD901      0.0000 
     57 H          10.6445   -5.9458   10.1775 H         1 NAD901      0.0000 
     58 H          11.7074   -4.0317    8.4209 H         1 NAD901      0.0000 
     59 H           9.6846   -3.8261    7.2706 H         1 NAD901      0.0000 
     60 H           9.6235   -6.6862    8.1656 H         1 NAD901      0.0000 
     61 H           6.4210   -4.5022    8.2165 H         1 NAD901      0.0000 
     62 H           2.6555   -4.3289    8.8676 H         1 NAD901      0.0000 
     63 H           4.2380   -4.9819    9.4107 H         1 NAD901      0.0000 
     64 H           4.2265   -7.6059    6.3568 H         1 NAD901      0.0000 
     65 H           6.2666   -8.8766    6.0548 H         1 NAD901      0.0000 
     66 H           8.3918   -7.9640    6.7719 H         1 NAD901      0.0000 
     67 H          17.1257    0.2614   12.2040 H         1 NAD901      0.0000 
     68 H          18.6853    1.1379   10.6396 H         1 NAD901      0.0000 
     69 H          12.7334   -5.8548    7.8022 H         1 NAD901      0.0000 
     70 H          11.1363   -6.1118    6.4289 H         1 NAD901      0.0000 
@<TRIPOS>BOND
     1    2    1 ar   
     2    3    1 ar   
     3    4    1 1    
     4   23    1 1    
     5    5    4 1    
     6    6    5 1    
     7   45    5 1    
     8   46    5 1    
     9    7    6 1    
    10    8    6 1    
    11   47    6 1    
    12   12    7 1    
    13    9    8 1    
    14   10    8 1    
    15   48    8 1    
    16   67    9 1    
    17   11   10 1    
    18   12   10 1    
    19   49   10 1    
    20   68   11 1    
    21   13   12 1    
    22   50   12 1    
    23   14   13 1    
    24   22   13 1    
    25   15   14 2    
    26   51   14 1    
    27   16   15 1    
    28   17   16 ar   
    29   22   16 ar   
    30   18   17 1    
    31   19   17 ar   
    32   52   18 1    
    33   53   18 1    
    34   20   19 ar   
    35   21   20 ar   
    36   54   20 1    
    37   22   21 ar   
    38   24   23 1    
    39   25   24 ar   
    40   26   24 ar   
    41   27   24 1    
    42   28   27 1    
    43   29   28 1    
    44   55   28 1    
    45   56   28 1    
    46   30   29 1    
    47   31   29 1    
    48   57   29 1    
    49   35   30 1    
    50   32   31 1    
    51   33   31 1    
    52   58   31 1    
    53   69   32 1    
    54   34   33 1    
    55   35   33 1    
    56   59   33 1    
    57   70   34 1    
    58   36   35 1    
    59   60   35 1    
    60   37   36 ar   
    61   44   36 ar   
    62   38   37 ar   
    63   61   37 1    
    64   39   38 1    
    65   42   38 ar   
    66   40   39 2    
    67   41   39 am   
    68   62   41 1    
    69   63   41 1    
    70   43   42 ar   
    71   64   42 1    
    72   44   43 ar   
    73   65   43 1    
    74   66   44 1    
@<TRIPOS>SUBSTRUCTURE
     1 NAD901      1 GROUP   
@<TRIPOS>SET

