#    Name: 2o9i_444_2_INTS_M
#    Modification time : Tue Mar 25 22:04:19 2014

@<TRIPOS>MOLECULE
2o9i_444_2_INTS_M
   74     0     6     0     0
SMALL
NO_CHARGES


@<TRIPOS>ATOM
      1 N          51.9815   41.2420   10.6720 N.am      1 SEC2        0.0000 
      2 N          50.8020   41.0480   11.2320 N.am      5 SEL2        0.0000 
      3 N          53.1610   41.4360   10.1120 N.am      3 SEP2        0.0000 
      4 CA         48.4365   43.5660   10.9865 C.3       2 GLC5        0.0000 
      5 CA         47.5750   42.1320   12.4840 C.3       6 GLL5        0.0000 
      6 CA         49.2980   45.0000    9.4890 C.3       4 GLP5        0.0000 
      7 CA         52.3245   44.3040   15.4770 C.3       2 GLC5        0.0000 
      8 CA         51.9220   42.7740   16.6670 C.3       6 GLL5        0.0000 
      9 CA         52.7270   45.8340   14.2870 C.3       4 GLP5        0.0000 
     10 CA         51.8615   41.9175   18.8810 C.3       2 GLC5        0.0000 
     11 CA         50.9010   40.9980   17.5120 C.3       6 GLL5        0.0000 
     12 CA         52.8220   42.8370   20.2500 C.3       4 GLP5        0.0000 
     13 CA         51.2205   32.0075   10.3845 C.3       2 GLC5        0.0000 
     14 CA         51.1830   32.5380   12.5190 C.3       6 GLL5        0.0000 
     15 CA         51.2580   31.4770    8.2500 C.3       4 GLP5        0.0000 
     16 N          54.3845   35.1410   12.4010 N.am      1 SEC2        0.0000 
     17 N          53.2250   34.4580   12.6400 N.am      5 SEL2        0.0000 
     18 N          55.5440   35.8240   12.1620 N.am      3 SEP2        0.0000 
     19 CA         51.1395   31.7510   15.2365 C.3       2 GLC5        0.0000 
     20 CA         53.0610   32.7060   14.8170 C.3       6 GLL5        0.0000 
     21 CA         49.2180   30.7960   15.6560 C.3       4 GLP5        0.0000 
     22 CA         52.5305   30.9015   13.9160 C.3       2 GLC5        0.0000 
     23 CA         52.0000   29.0970   13.0150 C.3       4 GLP5        0.0000 
     24 CA         53.3990   35.9090   16.8435 C.3       2 GLC5        0.0000 
     25 CA         53.5830   34.6710   15.4500 C.3       6 GLL5        0.0000 
     26 CA         53.2150   37.1470   18.2370 C.3       4 GLP5        0.0000 
     27 CA         54.4320   36.5835   15.7565 C.3       2 GLC5        0.0000 
     28 CA         55.2810   38.4960   16.0630 C.3       4 GLP5        0.0000 
     29 CA         54.9780   35.5990   14.2250 C.3       2 GLC5        0.0000 
     30 CA         56.3730   36.5270   13.0000 C.3       4 GLP5        0.0000 
     31 CA         55.2010   34.7700   16.6040 C.3       2 GLC5        0.0000 
     32 CA         56.8190   34.8690   17.7580 C.3       4 GLP5        0.0000 
     33 CA         51.4405   33.0575   17.4285 C.3       2 GLC5        0.0000 
     34 CA         51.6460   33.9370   15.8920 C.3       6 GLL5        0.0000 
     35 CA         51.2350   32.1780   18.9650 C.3       4 GLP5        0.0000 
     36 CA         52.4305   35.5420   17.0645 C.3       2 GLC5        0.0000 
     37 CA         50.4320   32.3665   15.7740 C.3       2 GLC5        0.0000 
     38 CA         45.7692   43.6128   12.8190 C.3       2 GLC5        0.0000 
     39 CA         44.6840   45.2740   13.2110 C.3       4 GLP5        0.0000 
     40 CA         44.5572   41.3753   13.7757 C.3       2 GLC5        0.0000 
     41 CA         46.1340   41.7710   12.3700 C.3       6 GLL5        0.0000 
     42 CA         43.1930   41.6940   15.2040 C.3       4 GLP5        0.0000 
     43 CA         46.6561   37.8986   13.0589 C.3       2 GLC5        0.0000 
     44 CA         45.7090   40.3420   12.3250 C.3       6 GLL5        0.0000 
     45 CA         46.1190   36.0990   13.6830 C.3       4 GLP5        0.0000 
     46 CA         51.6670   43.3657   17.8158 C.3       2 GLC5        0.0000 
     47 CA         51.6240   41.4630   16.4380 C.3       6 GLL5        0.0000 
     48 CA         51.5610   44.6130   19.0790 C.3       4 GLP5        0.0000 
     49 CA         52.6790   41.4550   18.1318 C.3       2 GLC5        0.0000 
     50 CA         53.9885   41.8897   16.8466 C.3       2 GLC5        0.0000 
     51 CA         55.9090   41.8340   17.1560 C.3       4 GLP5        0.0000 
     52 CA         52.3628   40.2478   18.0964 C.3       2 GLC5        0.0000 
     53 CA         53.1680   39.4380   19.2330 C.3       4 GLP5        0.0000 
     54 CA         50.0523   42.8226   16.6202 C.3       2 GLC5        0.0000 
     55 CA         48.8760   44.1050   16.3680 C.3       4 GLP5        0.0000 
     56 CA         53.6432   38.6895   14.6065 C.3       2 GLC5        0.0000 
     57 CA         51.5810   39.2040   13.6630 C.3       6 GLL5        0.0000 
     58 CA         52.0795   37.3713   16.4540 C.3       2 GLC5        0.0000 
     59 CA         50.8630   38.3120   14.6960 C.3       6 GLL5        0.0000 
     60 CA         54.4400   37.1882   12.8080 C.3       2 GLC5        0.0000 
     61 CA         52.5840   37.1370   12.5950 C.3       6 GLL5        0.0000 
     62 CA         50.9898   31.3322   12.4450 C.3       2 GLC5        0.0000 
     63 CA         50.9080   33.8030   12.8010 C.3       6 GLL5        0.0000 
     64 CA         50.9340   29.4940   12.2300 C.3       4 GLP5        0.0000 
     65 CA         52.8063   32.2502   12.4693 C.3       2 GLC5        0.0000 
     66 CA         54.2760   31.1390   12.0960 C.3       4 GLP5        0.0000 
     67 CA         49.8246   32.1514   14.3850 C.3       2 GLC5        0.0000 
     68 CA         48.7268   33.8859   12.4695 C.3       2 GLC5        0.0000 
     69 CA         49.8170   33.8430   13.5680 C.3       6 GLL5        0.0000 
     70 CA         46.9470   33.8010   12.5620 C.3       4 GLP5        0.0000 
     71 CA         53.5473   32.2310   13.4815 C.3       2 GLC5        0.0000 
     72 CA         52.5760   33.9400   14.9170 C.3       6 GLL5        0.0000 
     73 CA         53.2297   32.4850   16.4141 C.3       2 GLC5        0.0000 
     74 CA         54.0360   31.0030   17.3030 C.3       4 GLP5        0.0000 
@<TRIPOS>BOND
@<TRIPOS>SUBSTRUCTURE
     1 SEC2        1 GROUP        1 X    SEC  0     ROOT SEC X 2
     2 GLC5        4 GROUP        1 X    GLC  0     **** GLC X 6
     3 SEP2        3 GROUP        1 Y    SEP  0     ROOT SEP Y 9
     4 GLP5        6 GROUP        1 Y    GLP  0     **** GLP Y 13
     5 SEL2        2 GROUP        1 Z    SEL  0     ROOT SEL Z 16
     6 GLL5        5 GROUP        1 Z    GLL  0     **** GLL Z 20
@<TRIPOS>SET

