#    Name: 2o9i_444_2_ligand
#    Modification time : Tue Mar 25 22:04:19 2014

@<TRIPOS>MOLECULE
2o9i_444_2_ligand
   43    44     1     0     0
SMALL
NO_CHARGES


@<TRIPOS>ATOM
      1 O13        50.4370   43.0790   12.6930 O.2       1 4441        0.0000 
      2 S12        50.3350   41.4800   12.6940 S.o2      1 4441        0.0000 
      3 O14        50.8020   41.0480   11.2320 O.2       1 4441        0.0000 
      4 C01        48.6000   41.0210   12.5530 C.ar      1 4441        0.0000 
      5 C02        47.5750   42.1320   12.4840 C.ar      1 4441        0.0000 
      6 C03        46.1340   41.7710   12.3700 C.ar      1 4441        0.0000 
      7 C04        45.7090   40.3420   12.3250 C.ar      1 4441        0.0000 
      8 C05        46.7360   39.2630   12.3960 C.ar      1 4441        0.0000 
      9 C06        48.1640   39.5940   12.5090 C.ar      1 4441        0.0000 
     10 N15        51.3200   40.8190   13.8080 N.pl3     1 4441        0.0000 
     11 C16        50.7570   41.3180   15.1600 C.3       1 4441        0.0000 
     12 C19        51.6240   41.4630   16.4380 C.3       1 4441        0.0000 
     13 F22        52.8040   40.7710   16.3770 F         1 4441        0.0000 
     14 F21        51.9220   42.7740   16.6670 F         1 4441        0.0000 
     15 F20        50.9010   40.9980   17.5120 F         1 4441        0.0000 
     16 C23        51.5810   39.2040   13.6630 C.ar      1 4441        0.0000 
     17 C24        50.8630   38.3120   14.6960 C.ar      1 4441        0.0000 
     18 C25        51.0250   36.8790   14.6460 C.ar      1 4441        0.0000 
     19 C28        52.4300   38.5620   12.6370 C.ar      1 4441        0.0000 
     20 C27        52.5840   37.1370   12.5950 C.ar      1 4441        0.0000 
     21 C26        51.8950   36.2150   13.5920 C.ar      1 4441        0.0000 
     22 C33        52.0720   34.5670   13.5310 C.3       1 4441        0.0000 
     23 C34        50.9080   33.8030   12.8010 C.3       1 4441        0.0000 
     24 F36        51.1830   32.5380   12.5190 F         1 4441        0.0000 
     25 F37        49.8170   33.8430   13.5680 F         1 4441        0.0000 
     26 F35        50.5820   34.4350   11.6400 F         1 4441        0.0000 
     27 O42        53.2250   34.4580   12.6400 O.3       1 4441        0.0000 
     28 C38        52.5760   33.9400   14.9170 C.3       1 4441        0.0000 
     29 F39        53.0610   32.7060   14.8170 F         1 4441        0.0000 
     30 F40        53.5830   34.6710   15.4500 F         1 4441        0.0000 
     31 F41        51.6460   33.9370   15.8920 F         1 4441        0.0000 
     32 H          47.8645   43.0696   12.5145 H         1 4441        0.0000 
     33 H          45.4443   42.4935   12.3231 H         1 4441        0.0000 
     34 H          44.7470   40.1103   12.2482 H         1 4441        0.0000 
     35 H          46.4405   38.3050   12.3657 H         1 4441        0.0000 
     36 H          48.8506   38.8705   12.5570 H         1 4441        0.0000 
     37 H          49.8653   40.6573   15.4260 H         1 4441        0.0000 
     38 H          50.2548   42.3255   14.9725 H         1 4441        0.0000 
     39 H          50.2988   38.7652   15.3785 H         1 4441        0.0000 
     40 H          50.5635   36.2762   15.3118 H         1 4441        0.0000 
     41 H          52.9014   39.1535   11.9629 H         1 4441        0.0000 
     42 H          53.1652   36.6914   11.8897 H         1 4441        0.0000 
     43 H          53.8052   34.0450   13.3421 H         1 4441        0.0000 
@<TRIPOS>BOND
     1    2    1 2    
     2    3    2 2    
     3    4    2 1    
     4   10    2 1    
     5    5    4 ar   
     6    9    4 ar   
     7    6    5 ar   
     8   32    5 1    
     9    7    6 ar   
    10   33    6 1    
    11    8    7 ar   
    12   34    7 1    
    13    9    8 ar   
    14   35    8 1    
    15   36    9 1    
    16   11   10 1    
    17   16   10 1    
    18   12   11 1    
    19   37   11 1    
    20   38   11 1    
    21   13   12 1    
    22   14   12 1    
    23   15   12 1    
    24   17   16 ar   
    25   19   16 ar   
    26   18   17 ar   
    27   39   17 1    
    28   21   18 ar   
    29   40   18 1    
    30   20   19 ar   
    31   41   19 1    
    32   21   20 ar   
    33   42   20 1    
    34   22   21 1    
    35   23   22 1    
    36   27   22 1    
    37   28   22 1    
    38   24   23 1    
    39   25   23 1    
    40   26   23 1    
    41   43   27 1    
    42   29   28 1    
    43   30   28 1    
    44   31   28 1    
@<TRIPOS>SUBSTRUCTURE
     1 4441        1 GROUP   
@<TRIPOS>SET

