#    Name: 4el9_AFE_1_INTS_M
#    Modification time : Mon Mar 24 18:08:43 2014

@<TRIPOS>MOLECULE
4el9_AFE_1_INTS_M
   64     0     6     0     0
SMALL
NO_CHARGES


@<TRIPOS>ATOM
      1 CA         31.0190    7.9430    6.1660 C.3       2 GLC5        0.0000 
      2 CA         32.2300    6.3950    6.8690 C.3       6 GLL5        0.0000 
      3 CA         29.8080    9.4910    5.4630 C.3       4 GLP5        0.0000 
      4 CA         32.4425    9.2210    9.8770 C.3       2 GLC5        0.0000 
      5 CA         33.3430    7.6080    8.6550 C.3       6 GLL5        0.0000 
      6 CA         31.5420   10.8340   11.0990 C.3       4 GLP5        0.0000 
      7 CA         33.6080    9.4095    7.7070 C.3       2 GLC5        0.0000 
      8 CA         33.8730   11.2110    6.7590 C.3       4 GLP5        0.0000 
      9 CA         34.5510    9.0360    9.3335 C.3       2 GLC5        0.0000 
     10 CA         35.7590   10.4640   10.0120 C.3       4 GLP5        0.0000 
     11 CA         34.5780    1.8200    8.5755 C.3       2 GLC5        0.0000 
     12 CA         34.6500    3.4860    9.0650 C.3       6 GLL5        0.0000 
     13 CA         34.5060    0.1540    8.0860 C.3       4 GLP5        0.0000 
     14 CA         34.0410    1.6145    9.8010 C.3       2 GLC5        0.0000 
     15 CA         33.9860    3.5180   10.2600 C.3       6 GLL5        0.0000 
     16 CA         34.0960   -0.2890    9.3420 C.3       4 GLP5        0.0000 
     17 CA         33.7860    2.2985   11.9360 C.3       2 GLC5        0.0000 
     18 CA         33.5860    1.0790   13.6120 C.3       4 GLP5        0.0000 
     19 O          28.0710    3.4740   12.3120 O.2       1 ALC1        0.0000 
     20 O          28.3600    3.4670   11.0730 O.2       5 ALL1        0.0000 
     21 O          27.7820    3.4810   13.5510 O.2       3 ALP1        0.0000 
     22 CA         32.7955    2.5475   12.6220 C.3       2 GLC5        0.0000 
     23 CA         32.0050    4.0160   11.6320 C.3       6 GLL5        0.0000 
     24 CA         36.2515    2.7960   14.8340 C.3       2 GLC5        0.0000 
     25 CA         36.6180    3.2140   12.8890 C.3       6 GLL5        0.0000 
     26 CA         35.8850    2.3780   16.7790 C.3       4 GLP5        0.0000 
     27 CA         37.1600    5.2505   13.2625 C.3       2 GLC5        0.0000 
     28 CA         37.7020    7.2870   13.6360 C.3       4 GLP5        0.0000 
     29 CA         37.6465    2.6645   15.1210 C.3       2 GLC5        0.0000 
     30 CA         37.9710    3.0860   13.0010 C.3       6 GLL5        0.0000 
     31 CA         37.3220    2.2430   17.2410 C.3       4 GLP5        0.0000 
     32 O          39.7870    2.8805   14.0660 O.2       1 ALC1        0.0000 
     33 O          38.4770    3.0230   14.2630 O.2       5 ALL1        0.0000 
     34 O          41.0970    2.7380   13.8690 O.2       3 ALP1        0.0000 
     35 CA         40.6865    3.4570   11.0515 C.3       2 GLC5        0.0000 
     36 CA         38.8410    3.0460   11.7810 C.3       6 GLL5        0.0000 
     37 CA         42.5320    3.8680   10.3220 C.3       4 GLP5        0.0000 
     38 CA         34.5228    2.7247    5.9125 C.3       2 GLC5        0.0000 
     39 CA         34.3640    4.5580    6.9870 C.3       6 GLL5        0.0000 
     40 CA         35.1620    0.9010    5.4170 C.3       4 GLP5        0.0000 
     41 CA         35.4282    5.4627    5.6640 C.3       2 GLC5        0.0000 
     42 CA         36.9730    6.3770    4.9200 C.3       4 GLP5        0.0000 
     43 CA         31.7632    1.7672   11.2377 C.3       2 GLC5        0.0000 
     44 CA         31.6420    2.9720    9.4090 C.3       6 GLL5        0.0000 
     45 CA         31.4490    0.2630   12.5460 C.3       4 GLP5        0.0000 
     46 CA         29.4678    4.9630   10.6725 C.3       2 GLC5        0.0000 
     47 CA         29.7190    3.4950   10.8720 C.3       6 GLL5        0.0000 
     48 CA         28.9310    6.7000   11.1070 C.3       4 GLP5        0.0000 
     49 CA         30.0818    1.5384    9.7946 C.3       2 GLC5        0.0000 
     50 CA         29.8210   -0.1530    9.4000 C.3       4 GLP5        0.0000 
     51 CA         30.8584    1.9383   11.7967 C.3       2 GLC5        0.0000 
     52 CA         30.2900    2.9570    9.6040 C.3       6 GLL5        0.0000 
     53 CA         31.7950    4.0218   13.7797 C.3       2 GLC5        0.0000 
     54 CA         30.5310    4.0010   11.8570 C.3       6 GLL5        0.0000 
     55 CA         32.3220    4.0350   15.8150 C.3       4 GLP5        0.0000 
     56 CA         30.0995    5.3543   11.4257 C.3       2 GLC5        0.0000 
     57 CA         37.4012    5.0830   11.1113 C.3       2 GLC5        0.0000 
     58 CA         36.0220    3.2960   11.5420 C.3       6 GLL5        0.0000 
     59 CA         38.4000    6.8880   11.2420 C.3       4 GLP5        0.0000 
     60 CA         34.9530    2.1670   12.9138 C.3       2 GLC5        0.0000 
     61 CA         39.1610    4.6570   12.7795 C.3       2 GLC5        0.0000 
     62 CA         39.9160    6.2480   13.1680 C.3       4 GLP5        0.0000 
     63 CA         38.7945    1.0135   12.7905 C.3       2 GLC5        0.0000 
     64 CA         39.1830   -1.0390   13.1900 C.3       4 GLP5        0.0000 
@<TRIPOS>BOND
@<TRIPOS>SUBSTRUCTURE
     1 ALC1       19 GROUP        1 X    ALC  0     ROOT ALC X 1
     2 GLC5        1 GROUP        1 X    GLC  0     **** GLC X 6
     3 ALP1       21 GROUP        1 Y    ALP  0     ROOT ALP Y 8
     4 GLP5        3 GROUP        1 Y    GLP  0     **** GLP Y 13
     5 ALL1       20 GROUP        1 Z    ALL  0     ROOT ALL Z 15
     6 GLL5        2 GROUP        1 Z    GLL  0     **** GLL Z 20
@<TRIPOS>SET

