#    Name: 4el9_AFE_1_ligand
#    Modification time : Mon Mar 24 18:08:43 2014

@<TRIPOS>MOLECULE
4el9_AFE_1_ligand
   50    53     1     0     0
SMALL
NO_CHARGES


@<TRIPOS>ATOM
      1 O9         31.2360    5.1950    5.1380 O.3       1 AFE400      0.0000 
      2 C23        32.0640    5.0630    6.2410 C.3       1 AFE400      0.0000 
      3 C22        33.4030    4.5390    5.8290 C.3       1 AFE400      0.0000 
      4 O22        33.8930    5.2960    4.7910 O.3       1 AFE400      0.0000 
      5 C24        32.2300    6.3950    6.8690 C.3       1 AFE400      0.0000 
      6 O61        31.0170    6.8500    7.3400 O.3       1 AFE400      0.0000 
      7 C25        33.1910    6.2720    8.0090 C.3       1 AFE400      0.0000 
      8 C51        33.3430    7.6080    8.6550 C.3       1 AFE400      0.0000 
      9 O7         34.4180    5.8120    7.5640 O.3       1 AFE400      0.0000 
     10 C21        34.3640    4.5580    6.9870 C.3       1 AFE400      0.0000 
     11 O8         33.9630    3.5480    7.8560 O.3       1 AFE400      0.0000 
     12 C3         34.6500    3.4860    9.0650 C.2       1 AFE400      0.0000 
     13 C4         36.1250    3.3520    9.0960 C.2       1 AFE400      0.0000 
     14 O2         36.8650    3.3240    7.9550 O.2       1 AFE400      0.0000 
     15 C2         33.9860    3.5180   10.2600 C.2       1 AFE400      0.0000 
     16 C11        32.5130    3.5710   10.4500 C.ar      1 AFE400      0.0000 
     17 C12        31.6420    2.9720    9.4090 C.ar      1 AFE400      0.0000 
     18 C13        30.2900    2.9570    9.6040 C.ar      1 AFE400      0.0000 
     19 C14        29.7190    3.4950   10.8720 C.ar      1 AFE400      0.0000 
     20 O5         28.3600    3.4670   11.0730 O.3       1 AFE400      0.0000 
     21 C15        30.5310    4.0010   11.8570 C.ar      1 AFE400      0.0000 
     22 C16        32.0050    4.0160   11.6320 C.ar      1 AFE400      0.0000 
     23 O1         34.6610    3.4200   11.4580 O.3       1 AFE400      0.0000 
     24 C9         36.0220    3.2960   11.5420 C.ar      1 AFE400      0.0000 
     25 C8         36.6180    3.2140   12.8890 C.ar      1 AFE400      0.0000 
     26 C7         37.9710    3.0860   13.0010 C.ar      1 AFE400      0.0000 
     27 O4         38.4770    3.0230   14.2630 O.3       1 AFE400      0.0000 
     28 C6         38.8410    3.0460   11.7810 C.ar      1 AFE400      0.0000 
     29 C5         38.2600    3.1330   10.5410 C.ar      1 AFE400      0.0000 
     30 C10        36.7830    3.2600   10.4190 C.ar      1 AFE400      0.0000 
     31 O3         39.0120    3.0890    9.4100 O.co2     1 AFE400      0.0000 
     32 H          31.6461    4.3886    6.9786 H         1 AFE400      0.0000 
     33 H          33.2704    3.4932    5.5293 H         1 AFE400      0.0000 
     34 H          32.6630    7.0679    6.1393 H         1 AFE400      0.0000 
     35 H          32.7492    5.5968    8.7428 H         1 AFE400      0.0000 
     36 H          35.3497    4.2882    6.5467 H         1 AFE400      0.0000 
     37 H          32.0936    2.5945    8.5867 H         1 AFE400      0.0000 
     38 H          29.6304    2.5933    8.9229 H         1 AFE400      0.0000 
     39 H          30.1910    4.3665   12.7308 H         1 AFE400      0.0000 
     40 H          32.5791    4.3679   12.3934 H         1 AFE400      0.0000 
     41 H          35.9921    3.2565   13.6818 H         1 AFE400      0.0000 
     42 H          39.8350    2.9550   11.9299 H         1 AFE400      0.0000 
     43 H          33.9759    7.5766    9.4286 H         1 AFE400      0.0000 
     44 H          33.6951    8.2917    8.0158 H         1 AFE400      0.0000 
     45 H          32.4715    7.9535    9.0031 H         1 AFE400      0.0000 
     46 H          30.8877    4.2738    4.9643 H         1 AFE400      0.0000 
     47 H          33.1017    5.7963    4.4396 H         1 AFE400      0.0000 
     48 H          31.2315    7.3186    8.1970 H         1 AFE400      0.0000 
     49 H          28.2175    3.9382   11.9435 H         1 AFE400      0.0000 
     50 H          39.4677    2.9606   14.1417 H         1 AFE400      0.0000 
@<TRIPOS>BOND
     1    2    1 1    
     2   46    1 1    
     3    3    2 1    
     4    5    2 1    
     5   32    2 1    
     6    4    3 1    
     7   10    3 1    
     8   33    3 1    
     9   47    4 1    
    10    6    5 1    
    11    7    5 1    
    12   34    5 1    
    13   48    6 1    
    14    8    7 1    
    15    9    7 1    
    16   35    7 1    
    17   43    8 1    
    18   44    8 1    
    19   45    8 1    
    20   10    9 1    
    21   11   10 1    
    22   36   10 1    
    23   12   11 1    
    24   13   12 1    
    25   15   12 2    
    26   14   13 2    
    27   30   13 1    
    28   16   15 1    
    29   23   15 1    
    30   17   16 ar   
    31   22   16 ar   
    32   18   17 ar   
    33   37   17 1    
    34   19   18 ar   
    35   38   18 1    
    36   20   19 1    
    37   21   19 ar   
    38   49   20 1    
    39   22   21 ar   
    40   39   21 1    
    41   40   22 1    
    42   24   23 1    
    43   25   24 ar   
    44   30   24 ar   
    45   26   25 ar   
    46   41   25 1    
    47   27   26 1    
    48   28   26 ar   
    49   50   27 1    
    50   29   28 ar   
    51   42   28 1    
    52   30   29 ar   
    53   31   29 ar   
@<TRIPOS>SUBSTRUCTURE
     1 AFE400      1 GROUP   
@<TRIPOS>SET

