#    Name: 4k4j_1O8_1_INTS_M
#    Modification time : Tue Mar 25 06:58:05 2014

@<TRIPOS>MOLECULE
4k4j_1O8_1_INTS_M
   83     0     9     0     0
SMALL
NO_CHARGES


@<TRIPOS>ATOM
      1 CA         66.8575   45.3140   28.5845 C.3       3 GLC5        0.0000 
      2 CA         66.0190   46.3520   29.8460 C.3       9 GLL5        0.0000 
      3 CA         67.6960   44.2760   27.3230 C.3       6 GLP5        0.0000 
      4 CA         67.8850   45.9310   28.7155 C.3       3 GLC5        0.0000 
      5 CA         67.4210   46.2460   30.4540 C.3       9 GLL5        0.0000 
      6 CA         68.3490   45.6160   26.9770 C.3       6 GLP5        0.0000 
      7 CA         68.0020   46.1725   35.4845 C.3       3 GLC5        0.0000 
      8 CA         66.5840   47.0020   34.0790 C.3       9 GLL5        0.0000 
      9 CA         69.4200   45.3430   36.8900 C.3       6 GLP5        0.0000 
     10 CA         65.9180   48.9510   36.6785 C.3       3 GLC5        0.0000 
     11 CA         65.7030   47.7800   34.8220 C.3       9 GLL5        0.0000 
     12 CA         66.1330   50.1220   38.5350 C.3       6 GLP5        0.0000 
     13 CA         63.5000   50.1840   29.7570 C.3       3 GLC5        0.0000 
     14 CA         64.1810   48.0770   30.0060 C.3       9 GLL5        0.0000 
     15 CA         62.8190   52.2910   29.5080 C.3       6 GLP5        0.0000 
     16 CA         62.2900   48.9915   30.6850 C.3       3 GLC5        0.0000 
     17 CA         60.3990   49.9060   31.3640 C.3       6 GLP5        0.0000 
     18 CA         64.5405   48.1430   25.6515 C.3       3 GLC5        0.0000 
     19 CA         65.0840   48.2970   27.5800 C.3       9 GLL5        0.0000 
     20 CA         63.9970   47.9890   23.7230 C.3       6 GLP5        0.0000 
     21 CA         65.0720   49.9595   26.1835 C.3       3 GLC5        0.0000 
     22 CA         65.0600   51.6220   24.7870 C.3       6 GLP5        0.0000 
     23 CA         66.3485   49.4210   28.7180 C.3       3 GLC5        0.0000 
     24 CA         67.6130   50.5450   29.8560 C.3       6 GLP5        0.0000 
     25 CA         66.2790   47.3650   26.8135 C.3       3 GLC5        0.0000 
     26 CA         67.4740   46.4330   26.0470 C.3       6 GLP5        0.0000 
     27 CA         61.2870   47.8675   26.3585 C.3       3 GLC5        0.0000 
     28 CA         62.7160   47.5710   28.0620 C.3       9 GLL5        0.0000 
     29 CA         59.8580   48.1640   24.6550 C.3       6 GLP5        0.0000 
     30 CA         62.3280   45.8575   30.2835 C.3       3 GLC5        0.0000 
     31 CA         61.5930   47.2640   28.9480 C.3       9 GLL5        0.0000 
     32 CA         63.0630   44.4510   31.6190 C.3       6 GLP5        0.0000 
     33 CA         60.9960   48.5850   30.1560 C.3       3 GLC5        0.0000 
     34 CA         60.1130   47.5300   26.5270 C.3       3 GLC5        0.0000 
     35 CA         60.3680   46.8960   28.3990 C.3       9 GLL5        0.0000 
     36 CA         61.2435   45.2255   31.1315 C.3       3 GLC5        0.0000 
     37 CA         59.4240   46.0000   30.6440 C.3       9 GLL5        0.0000 
     38 CA         58.8335   45.3030   32.3570 C.3       3 GLC5        0.0000 
     39 CA         58.2430   44.6060   34.0700 C.3       6 GLP5        0.0000 
     40 CA         56.5390   46.3030   27.5860 C.3       3 GLC5        0.0000 
     41 CA         57.9330   46.8380   28.7590 C.3       9 GLL5        0.0000 
     42 CA         55.1450   45.7680   26.4130 C.3       6 GLP5        0.0000 
     43 CA         58.6685   48.4850   27.4225 C.3       3 GLC5        0.0000 
     44 CA         59.4040   50.1320   26.0860 C.3       6 GLP5        0.0000 
     45 NZ         54.3470   47.8360   29.5255 N.4       2 LYC4        0.0000 
     46 NZ         55.7760   47.3810   29.4440 N.4       8 LYL4        0.0000 
     47 NZ         52.8680   48.1550   30.9230 N.4       5 LYP4        0.0000 
     48 N          54.8095   47.4450   30.4985 N.am      1 SEC2        0.0000 
     49 N          55.7760   47.3810   29.4440 N.am      7 SEL2        0.0000 
     50 N          53.8430   47.5090   31.5530 N.am      4 SEP2        0.0000 
     51 N          54.3470   47.8360   29.5255 N.am      1 SEC2        0.0000 
     52 N          52.9180   48.2910   29.6070 N.am      4 SEP2        0.0000 
     53 N          55.4095   45.0155   30.7915 N.am      1 SEC2        0.0000 
     54 N          56.6850   45.5480   30.2610 N.am      7 SEL2        0.0000 
     55 N          54.1340   44.4830   31.3220 N.am      4 SEP2        0.0000 
     56 CA         67.1665   48.4220   30.0030 C.3       3 GLC5        0.0000 
     57 CA         69.4905   46.3543   31.1318 C.3       3 GLC5        0.0000 
     58 CA         71.5670   46.6110   31.0580 C.3       6 GLP5        0.0000 
     59 CA         68.6840   44.5603   31.2568 C.3       3 GLC5        0.0000 
     60 CA         69.9540   43.0230   31.3080 C.3       6 GLP5        0.0000 
     61 CA         66.4178   48.9425   31.9615 C.3       3 GLC5        0.0000 
     62 CA         65.3440   47.4940   32.0990 C.3       9 GLL5        0.0000 
     63 CA         66.9560   50.7160   31.5200 C.3       6 GLP5        0.0000 
     64 CA         67.6668   48.2665   35.1093 C.3       3 GLC5        0.0000 
     65 CA         69.1900   49.1420   35.7680 C.3       6 GLP5        0.0000 
     66 CA         64.4484   46.0247   34.5281 C.3       3 GLC5        0.0000 
     67 CA         63.5080   44.1410   34.7280 C.3       6 GLP5        0.0000 
     68 CA         65.7520   49.5340   32.5205 C.3       3 GLC5        0.0000 
     69 CA         64.6340   48.4260   34.2060 C.3       9 GLL5        0.0000 
     70 CA         64.1169   46.0872   32.1192 C.3       3 GLC5        0.0000 
     71 CA         64.4620   48.2780   32.8360 C.3       9 GLL5        0.0000 
     72 CA         65.8143   49.2112   30.9232 C.3       3 GLC5        0.0000 
     73 CA         65.1640   47.3360   30.6470 C.3       9 GLL5        0.0000 
     74 CA         63.9746   45.9557   30.8726 C.3       3 GLC5        0.0000 
     75 CA         61.3856   45.8534   27.3955 C.3       3 GLC5        0.0000 
     76 CA         61.5100   44.5500   26.3390 C.3       6 GLP5        0.0000 
     77 CA         59.2960   45.5000   27.5852 C.3       3 GLC5        0.0000 
     78 CA         59.2110   46.5940   29.2500 C.3       9 GLL5        0.0000 
     79 CA         60.0200   44.2840   26.1660 C.3       6 GLP5        0.0000 
     80 CA         58.2381   44.5713   29.5250 C.3       3 GLC5        0.0000 
     81 CA         57.8510   42.5750   29.6970 C.3       6 GLP5        0.0000 
     82 CA         58.8969   48.1561   30.1933 C.3       3 GLC5        0.0000 
     83 CA         59.0240   49.7070   31.1400 C.3       6 GLP5        0.0000 
@<TRIPOS>BOND
@<TRIPOS>SUBSTRUCTURE
     1 SEC2       48 GROUP        1 X    SEC  0     ROOT SEC X 2
     2 LYC4       45 GROUP        1 X    LYC  0     **** LYC X 4
     3 GLC5        1 GROUP        1 X    GLC  0     **** GLC X 6
     4 SEP2       50 GROUP        1 Y    SEP  0     ROOT SEP Y 9
     5 LYP4       47 GROUP        1 Y    LYP  0     **** LYP Y 11
     6 GLP5        3 GROUP        1 Y    GLP  0     **** GLP Y 13
     7 SEL2       49 GROUP        1 Z    SEL  0     ROOT SEL Z 16
     8 LYL4       46 GROUP        1 Z    LYL  0     **** LYL Z 18
     9 GLL5        2 GROUP        1 Z    GLL  0     **** GLL Z 20
@<TRIPOS>SET

