#    Name: 4k4j_1O8_1_ligand
#    Modification time : Tue Mar 25 06:58:05 2014

@<TRIPOS>MOLECULE
4k4j_1O8_1_ligand
   43    44     1     0     0
SMALL
NO_CHARGES


@<TRIPOS>ATOM
      1 C2'        66.0190   46.3520   29.8460 C.3       1 1O8500      0.0000 
      2 C1'        67.4210   46.2460   30.4540 C.3       1 1O8500      0.0000 
      3 C18        67.4070   45.9490   31.9570 C.3       1 1O8500      0.0000 
      4 C5         66.4150   46.8440   32.7070 C.ar      1 1O8500      0.0000 
      5 C4         66.5840   47.0020   34.0790 C.ar      1 1O8500      0.0000 
      6 C3         65.7030   47.7800   34.8220 C.ar      1 1O8500      0.0000 
      7 C2         64.6340   48.4260   34.2060 C.ar      1 1O8500      0.0000 
      8 C1         64.4620   48.2780   32.8360 C.ar      1 1O8500      0.0000 
      9 C6         65.3440   47.4940   32.0990 C.ar      1 1O8500      0.0000 
     10 C7         65.1640   47.3360   30.6470 C.2       1 1O8500      0.0000 
     11 C8         64.1810   48.0770   30.0060 C.2       1 1O8500      0.0000 
     12 C9         63.9580   47.9580   28.5570 C.2       1 1O8500      0.0000 
     13 C19        65.0840   48.2970   27.5800 C.3       1 1O8500      0.0000 
     14 C10        62.7160   47.5710   28.0620 C.2       1 1O8500      0.0000 
     15 C11        61.5930   47.2640   28.9480 C.2       1 1O8500      0.0000 
     16 C12        60.3680   46.8960   28.3990 C.2       1 1O8500      0.0000 
     17 C13        59.2110   46.5940   29.2500 C.2       1 1O8500      0.0000 
     18 C20        59.4240   46.0000   30.6440 C.3       1 1O8500      0.0000 
     19 C14        57.9330   46.8380   28.7590 C.2       1 1O8500      0.0000 
     20 C15        56.7200   46.5670   29.5370 C.2       1 1O8500      0.0000 
     21 O1         55.7760   47.3810   29.4440 O.co2     1 1O8500      0.0000 
     22 O2         56.6850   45.5480   30.2610 O.co2     1 1O8500      0.0000 
     23 H          65.5481   45.3733   29.8593 H         1 1O8500      0.0000 
     24 H          66.0991   46.6984   28.8197 H         1 1O8500      0.0000 
     25 H          67.9574   47.1886   30.2814 H         1 1O8500      0.0000 
     26 H          67.9749   45.4503   29.9381 H         1 1O8500      0.0000 
     27 H          68.4089   46.1074   32.3624 H         1 1O8500      0.0000 
     28 H          67.1334   44.9030   32.1125 H         1 1O8500      0.0000 
     29 H          67.3759   46.5342   34.5524 H         1 1O8500      0.0000 
     30 H          65.8418   47.8803   35.8401 H         1 1O8500      0.0000 
     31 H          63.9899   48.9972   34.7530 H         1 1O8500      0.0000 
     32 H          63.6783   48.7503   32.3622 H         1 1O8500      0.0000 
     33 H          63.5804   48.7293   30.5206 H         1 1O8500      0.0000 
     34 H          62.5526   47.4896   27.0484 H         1 1O8500      0.0000 
     35 H          61.7379   47.3280   29.9483 H         1 1O8500      0.0000 
     36 H          60.2384   46.8252   27.3846 H         1 1O8500      0.0000 
     37 H          57.7993   47.2269   27.8083 H         1 1O8500      0.0000 
     38 H          65.3826   49.2469   27.6726 H         1 1O8500      0.0000 
     39 H          65.8884   47.7212   27.7262 H         1 1O8500      0.0000 
     40 H          64.8015   48.1700   26.6292 H         1 1O8500      0.0000 
     41 H          59.9003   45.1216   30.6046 H         1 1O8500      0.0000 
     42 H          59.9697   46.6035   31.2254 H         1 1O8500      0.0000 
     43 H          58.5571   45.8424   31.1170 H         1 1O8500      0.0000 
@<TRIPOS>BOND
     1    2    1 1    
     2   10    1 1    
     3   23    1 1    
     4   24    1 1    
     5    3    2 1    
     6   25    2 1    
     7   26    2 1    
     8    4    3 1    
     9   27    3 1    
    10   28    3 1    
    11    5    4 ar   
    12    9    4 ar   
    13    6    5 ar   
    14   29    5 1    
    15    7    6 ar   
    16   30    6 1    
    17    8    7 ar   
    18   31    7 1    
    19    9    8 ar   
    20   32    8 1    
    21   10    9 1    
    22   11   10 2    
    23   12   11 1    
    24   33   11 1    
    25   13   12 1    
    26   14   12 2    
    27   38   13 1    
    28   39   13 1    
    29   40   13 1    
    30   15   14 1    
    31   34   14 1    
    32   16   15 2    
    33   35   15 1    
    34   17   16 1    
    35   36   16 1    
    36   18   17 1    
    37   19   17 2    
    38   41   18 1    
    39   42   18 1    
    40   43   18 1    
    41   20   19 1    
    42   37   19 1    
    43   21   20 ar   
    44   22   20 ar   
@<TRIPOS>SUBSTRUCTURE
     1 1O8500      1 GROUP   
@<TRIPOS>SET

