#    Name: 4fsl_0VB_4_INTS_M
#    Modification time : Mon Mar 24 20:41:11 2014

@<TRIPOS>MOLECULE
4fsl_0VB_4_INTS_M
   85     0    12     0     0
SMALL
NO_CHARGES


@<TRIPOS>ATOM
      1 CA         34.4320   17.9885   73.2215 C.3       4 GLC5        0.0000 
      2 CA         35.2260   19.9340   73.6160 C.3      12 GLL5        0.0000 
      3 CA         33.6380   16.0430   72.8270 C.3       8 GLP5        0.0000 
      4 CA         34.3620   22.6655   74.1495 C.3       4 GLC5        0.0000 
      5 CA         33.0430   21.2900   74.4610 C.3      12 GLL5        0.0000 
      6 CA         35.6810   24.0410   73.8380 C.3       8 GLP5        0.0000 
      7 CA         34.0545   11.5120   76.2910 C.3       4 GLC5        0.0000 
      8 CA         34.6340   13.5300   77.0680 C.3      12 GLL5        0.0000 
      9 CA         33.4750    9.4940   75.5140 C.3       8 GLP5        0.0000 
     10 CA         34.2660   18.1385   71.7300 C.3       4 GLC5        0.0000 
     11 CA         34.8020   20.0830   72.1570 C.3      12 GLL5        0.0000 
     12 CA         33.7300   16.1940   71.3030 C.3       8 GLP5        0.0000 
     13 CA         35.2415   22.0620   72.9975 C.3       4 GLC5        0.0000 
     14 OD1        32.9700   18.8170   81.5415 O.co2     3 ASC3        0.0000 
     15 OD1        32.4460   18.8290   79.6920 O.co2    11 ASL3        0.0000 
     16 OD1        33.4940   18.8050   83.3910 O.co2     7 ASP3        0.0000 
     17 OD1        32.7515   17.8250   81.8815 O.co2     3 ASC3        0.0000 
     18 OD1        32.3850   17.0150   82.7740 O.co2     7 ASP3        0.0000 
     19 OD1        33.2285   20.6405   80.2455 O.co2     3 ASC3        0.0000 
     20 OD1        34.1030   21.1980   81.5460 O.co2     7 ASP3        0.0000 
     21 OD1        33.3150   22.2230   79.7690 O.co2     7 ASP3        0.0000 
     22 CA         36.2955   13.7305   80.7305 C.3       4 GLC5        0.0000 
     23 CA         36.5250   13.7560   78.9670 C.3      12 GLL5        0.0000 
     24 CA         36.0660   13.7050   82.4940 C.3       8 GLP5        0.0000 
     25 CA         38.0960   13.0105   78.1065 C.3       4 GLC5        0.0000 
     26 CA         39.6670   12.2650   77.2460 C.3       8 GLP5        0.0000 
     27 CA         37.1545   12.2670   79.7845 C.3       4 GLC5        0.0000 
     28 CA         37.7840   10.7780   80.6020 C.3       8 GLP5        0.0000 
     29 CA         28.4760   22.8120   79.6865 C.3       4 GLC5        0.0000 
     30 CA         29.8580   22.4810   78.8000 C.3      12 GLL5        0.0000 
     31 CA         27.0940   23.1430   80.5730 C.3       8 GLP5        0.0000 
     32 CA         38.3155   11.6675   75.4690 C.3       4 GLC5        0.0000 
     33 CA         37.3260   12.4670   74.1960 C.3      12 GLL5        0.0000 
     34 CA         39.3050   10.8680   76.7420 C.3       8 GLP5        0.0000 
     35 CA         35.2900   17.4240   71.3790 C.3       4 GLC5        0.0000 
     36 CA         36.8500   18.6540   71.4550 C.3      12 GLL5        0.0000 
     37 CA         30.0265   15.8620   78.9565 C.3       4 GLC5        0.0000 
     38 CA         31.7420   16.2550   79.5030 C.3      12 GLL5        0.0000 
     39 CA         28.3110   15.4690   78.4100 C.3       8 GLP5        0.0000 
     40 CA         31.8200   15.0300   81.0885 C.3       4 GLC5        0.0000 
     41 CA         31.8980   13.8050   82.6740 C.3       8 GLP5        0.0000 
     42 N          31.0365   24.1590   74.2530 N.am      2 SEC2        0.0000 
     43 N          31.6930   23.2130   75.2170 N.am     10 SEL2        0.0000 
     44 N          30.3800   25.1050   73.2890 N.am      6 SEP2        0.0000 
     45 O          33.2285   20.6405   80.2455 O.2       1 ALC1        0.0000 
     46 O          32.3540   20.0830   78.9450 O.2       9 ALL1        0.0000 
     47 O          34.1030   21.1980   81.5460 O.2       5 ALP1        0.0000 
     48 O          32.8345   21.1530   79.3570 O.2       1 ALC1        0.0000 
     49 O          33.3150   22.2230   79.7690 O.2       5 ALP1        0.0000 
     50 O          32.7515   17.8250   81.8815 O.2       1 ALC1        0.0000 
     51 O          33.1180   18.6350   80.9890 O.2       9 ALL1        0.0000 
     52 O          32.3850   17.0150   82.7740 O.2       5 ALP1        0.0000 
     53 O          35.3810   11.3870   76.5815 O.2       1 ALC1        0.0000 
     54 O          35.4750   12.6870   76.1950 O.2       9 ALL1        0.0000 
     55 O          35.2870   10.0870   76.9680 O.2       5 ALP1        0.0000 
     56 N          32.0385   18.1580   75.9185 N.am      2 SEC2        0.0000 
     57 N          31.0510   19.0210   77.0260 N.am     10 SEL2        0.0000 
     58 N          33.0260   17.2950   74.8110 N.am      6 SEP2        0.0000 
     59 CA         30.9880   24.5655   78.2675 C.3       4 GLC5        0.0000 
     60 CA         30.7080   23.8450   76.3650 C.3      12 GLL5        0.0000 
     61 CA         31.2680   25.2860   80.1700 C.3       8 GLP5        0.0000 
     62 CA         29.8755   24.7320   74.8070 C.3       4 GLC5        0.0000 
     63 CA         29.0430   25.6190   73.2490 C.3       8 GLP5        0.0000 
     64 CA         32.0610   25.0695   76.3815 C.3       4 GLC5        0.0000 
     65 CA         33.4140   26.2940   76.3980 C.3       8 GLP5        0.0000 
     66 CA         30.6085   14.0420   75.7140 C.3       4 GLC5        0.0000 
     67 CA         32.4150   13.4900   75.1950 C.3      12 GLL5        0.0000 
     68 CA         28.8020   14.5940   76.2330 C.3       8 GLP5        0.0000 
     69 CA         31.7430   12.8885   73.4910 C.3       4 GLC5        0.0000 
     70 CA         31.0710   12.2870   71.7870 C.3       8 GLP5        0.0000 
     71 CA         32.1160   12.1835   76.5485 C.3       4 GLC5        0.0000 
     72 CA         31.8170   10.8770   77.9020 C.3       8 GLP5        0.0000 
     73 CA         34.3685   22.5810   73.1347 C.3       4 GLC5        0.0000 
     74 CA         32.6200   21.4110   72.9920 C.3      12 GLL5        0.0000 
     75 CA         35.8880   21.0495   75.4930 C.3       4 GLC5        0.0000 
     76 CA         34.3360   20.5180   74.6980 C.3      12 GLL5        0.0000 
     77 CA         36.9950   21.8730   76.8290 C.3       8 GLP5        0.0000 
     78 CA         35.2310   22.1335   73.9975 C.3       4 GLC5        0.0000 
     79 CA         35.3720   14.1098   80.6617 C.3       4 GLC5        0.0000 
     80 CA         34.2200   14.9580   79.2490 C.3      12 GLL5        0.0000 
     81 CA         32.7005   14.4812   80.8748 C.3       4 GLC5        0.0000 
     82 CA         33.2300   14.8870   74.3855 C.3       4 GLC5        0.0000 
     83 CA         33.2290   13.9720   76.6930 C.3      12 GLL5        0.0000 
     84 CA         30.7628   23.8813   79.1590 C.3       4 GLC5        0.0000 
     85 CA         30.6570   22.4720   77.4960 C.3      12 GLL5        0.0000 
@<TRIPOS>BOND
@<TRIPOS>SUBSTRUCTURE
     1 ALC1       45 GROUP        1 X    ALC  0     ROOT ALC X 1
     2 SEC2       42 GROUP        1 X    SEC  0     **** SEC X 2
     3 ASC3       14 GROUP        1 X    ASC  0     **** ASC X 3
     4 GLC5        1 GROUP        1 X    GLC  0     **** GLC X 6
     5 ALP1       47 GROUP        1 Y    ALP  0     ROOT ALP Y 8
     6 SEP2       44 GROUP        1 Y    SEP  0     **** SEP Y 9
     7 ASP3       16 GROUP        1 Y    ASP  0     **** ASP Y 10
     8 GLP5        3 GROUP        1 Y    GLP  0     **** GLP Y 13
     9 ALL1       46 GROUP        1 Z    ALL  0     ROOT ALL Z 15
    10 SEL2       43 GROUP        1 Z    SEL  0     **** SEL Z 16
    11 ASL3       15 GROUP        1 Z    ASL  0     **** ASL Z 17
    12 GLL5        2 GROUP        1 Z    GLL  0     **** GLL Z 20
@<TRIPOS>SET

