#    Name: 4fsl_0VB_4_ligand
#    Modification time : Mon Mar 24 20:41:11 2014

@<TRIPOS>MOLECULE
4fsl_0VB_4_ligand
   57    59     1     0     0
SMALL
NO_CHARGES


@<TRIPOS>ATOM
      1 C01        32.6200   21.4110   72.9920 C.ar      1 0VB501      0.0000 
      2 C02        34.3360   20.5180   74.6980 C.ar      1 0VB501      0.0000 
      3 C03        33.4920   20.8310   71.8710 C.ar      1 0VB501      0.0000 
      4 C04        35.2260   19.9340   73.6160 C.ar      1 0VB501      0.0000 
      5 C05        34.2200   14.9580   79.2490 C.ar      1 0VB501      0.0000 
      6 C06        32.3200   14.8560   77.5340 C.ar      1 0VB501      0.0000 
      7 C07        33.0430   21.2900   74.4610 C.ar      1 0VB501      0.0000 
      8 C08        31.5290   21.4180   76.8500 C.2       1 0VB501      0.0000 
      9 C09        32.7860   15.3570   78.9020 C.ar      1 0VB501      0.0000 
     10 C10        35.1360   14.0710   78.4100 C.ar      1 0VB501      0.0000 
     11 C11        34.6340   13.5300   77.0680 C.ar      1 0VB501      0.0000 
     12 C12        34.8020   20.0830   72.1570 C.ar      1 0VB501      0.0000 
     13 C13        33.2290   13.9720   76.6930 C.ar      1 0VB501      0.0000 
     14 C14        32.1350   21.8320   75.5430 C.2       1 0VB501      0.0000 
     15 C15        30.6570   22.4720   77.4960 C.2       1 0VB501      0.0000 
     16 C16        31.6490   20.1560   77.6520 C.2       1 0VB501      0.0000 
     17 C17        36.4100   13.2100   75.1730 C.2       1 0VB501      0.0000 
     18 C18        32.4460   18.8290   79.6920 C.cat     1 0VB501      0.0000 
     19 C19        36.5250   13.7560   78.9670 C.3       1 0VB501      0.0000 
     20 C20        29.8580   22.4810   78.8000 C.3       1 0VB501      0.0000 
     21 C21        37.3260   12.4670   74.1960 C.3       1 0VB501      0.0000 
     22 C22        36.8500   18.6540   71.4550 C.3       1 0VB501      0.0000 
     23 C23        31.7420   16.2550   79.5030 C.3       1 0VB501      0.0000 
     24 N24        31.6930   23.2130   75.2170 N.2       1 0VB501      0.0000 
     25 N25        32.3540   20.0830   78.9450 N.am      1 0VB501      0.0000 
     26 N26        33.1180   18.6350   80.9890 N.pl3     1 0VB501      0.0000 
     27 N27        35.4750   12.6870   76.1950 N.am      1 0VB501      0.0000 
     28 N28        31.7730   17.6620   79.0810 N.pl3     1 0VB501      0.0000 
     29 O29        31.0510   19.0210   77.0260 O.2       1 0VB501      0.0000 
     30 O30        36.4880   14.6320   75.0590 O.2       1 0VB501      0.0000 
     31 O31        35.7120   19.5000   71.2240 O.3       1 0VB501      0.0000 
     32 S32        30.7080   23.8450   76.3650 S.3       1 0VB501      0.0000 
     33 CL1        32.4150   13.4900   75.1950 Cl        1 0VB501      0.0000 
     34 H          31.7750   21.8684   72.7643 H         1 0VB501      0.0000 
     35 H          34.6277   20.3828   75.6742 H         1 0VB501      0.0000 
     36 H          33.1986   20.9433   70.9244 H         1 0VB501      0.0000 
     37 H          36.0533   19.4719   73.8443 H         1 0VB501      0.0000 
     38 H          34.6041   15.3227   80.1332 H         1 0VB501      0.0000 
     39 H          31.4288   15.1081   77.1998 H         1 0VB501      0.0000 
     40 H          31.8291   16.1963   80.6199 H         1 0VB501      0.0000 
     41 H          30.7329   15.8185   79.2800 H         1 0VB501      0.0000 
     42 H          32.7815   20.9210   79.3191 H         1 0VB501      0.0000 
     43 H          35.4076   11.6622   76.3034 H         1 0VB501      0.0000 
     44 H          31.2176   17.8825   78.1831 H         1 0VB501      0.0000 
     45 H          37.0486   13.1693   78.3492 H         1 0VB501      0.0000 
     46 H          37.0644   14.5857   79.1107 H         1 0VB501      0.0000 
     47 H          36.4739   13.2836   79.8469 H         1 0VB501      0.0000 
     48 H          30.4454   22.3378   79.5965 H         1 0VB501      0.0000 
     49 H          29.3830   23.3500   78.9385 H         1 0VB501      0.0000 
     50 H          29.1635   21.7617   78.8150 H         1 0VB501      0.0000 
     51 H          37.8447   13.0986   73.6198 H         1 0VB501      0.0000 
     52 H          37.9908   11.8928   74.6738 H         1 0VB501      0.0000 
     53 H          36.8088   11.8691   73.5836 H         1 0VB501      0.0000 
     54 H          37.3008   18.3963   70.6004 H         1 0VB501      0.0000 
     55 H          37.5376   19.1038   72.0250 H         1 0VB501      0.0000 
     56 H          36.5942   17.8058   71.9188 H         1 0VB501      0.0000 
     57 H          32.5716   17.9442   81.4627 H         1 0VB501      0.0000 
@<TRIPOS>BOND
     1    3    1 ar   
     2    7    1 ar   
     3   34    1 1    
     4    4    2 ar   
     5    7    2 ar   
     6   35    2 1    
     7   12    3 ar   
     8   36    3 1    
     9   12    4 ar   
    10   37    4 1    
    11    9    5 ar   
    12   10    5 ar   
    13   38    5 1    
    14    9    6 ar   
    15   13    6 ar   
    16   39    6 1    
    17   14    7 1    
    18   14    8 1    
    19   15    8 2    
    20   16    8 1    
    21   23    9 1    
    22   11   10 ar   
    23   19   10 1    
    24   13   11 ar   
    25   27   11 1    
    26   31   12 1    
    27   33   13 1    
    28   24   14 2    
    29   20   15 1    
    30   32   15 1    
    31   25   16 am   
    32   29   16 2    
    33   21   17 1    
    34   27   17 am   
    35   30   17 2    
    36   25   18 1    
    37   26   18 ar   
    38   28   18 ar   
    39   45   19 1    
    40   46   19 1    
    41   47   19 1    
    42   48   20 1    
    43   49   20 1    
    44   50   20 1    
    45   51   21 1    
    46   52   21 1    
    47   53   21 1    
    48   31   22 1    
    49   54   22 1    
    50   55   22 1    
    51   56   22 1    
    52   28   23 1    
    53   40   23 1    
    54   41   23 1    
    55   32   24 1    
    56   42   25 1    
    57   57   26 1    
    58   43   27 1    
    59   44   28 1    
@<TRIPOS>SUBSTRUCTURE
     1 0VB501      1 GROUP   
@<TRIPOS>SET

