#    Name: 4j03_FVS_1_INTS_M
#    Modification time : Tue Mar 25 04:57:17 2014

@<TRIPOS>MOLECULE
4j03_FVS_1_INTS_M
  102     0     6     0     0
SMALL
NO_CHARGES


@<TRIPOS>ATOM
      1 CA         21.8070    6.7275   11.6480 C.3       2 GLC5        0.0000 
      2 CA         20.6950    8.1010   11.9250 C.3       6 GLL5        0.0000 
      3 CA         22.9190    5.3540   11.3710 C.3       4 GLP5        0.0000 
      4 CA         21.3420    9.3095   14.6925 C.3       2 GLC5        0.0000 
      5 CA         19.7410    8.2320   13.7950 C.3       6 GLL5        0.0000 
      6 CA         22.9430   10.3870   15.5900 C.3       4 GLP5        0.0000 
      7 CA         20.6560    7.5830   15.3150 C.3       2 GLC5        0.0000 
      8 CA         21.5710    6.9340   16.8350 C.3       4 GLP5        0.0000 
      9 CA         18.5665    6.3890   13.9450 C.3       2 GLC5        0.0000 
     10 CA         18.7700    7.1230   12.1550 C.3       6 GLL5        0.0000 
     11 CA         18.3630    5.6550   15.7350 C.3       4 GLP5        0.0000 
     12 CA         19.9855    5.3295   11.6320 C.3       2 GLC5        0.0000 
     13 CA         21.2010    3.5360   11.1090 C.3       4 GLP5        0.0000 
     14 CA         20.5475    9.1095   10.0075 C.3       2 GLC5        0.0000 
     15 CA         18.7340    9.4830   10.7490 C.3       6 GLL5        0.0000 
     16 CA         22.3610    8.7360    9.2660 C.3       4 GLP5        0.0000 
     17 CA         20.8325   10.9725   14.0325 C.3       2 GLC5        0.0000 
     18 CA         19.6540   10.5430   12.4230 C.3       6 GLL5        0.0000 
     19 CA         22.0110   11.4020   15.6420 C.3       4 GLP5        0.0000 
     20 CA         21.1870   11.8360   12.5465 C.3       2 GLC5        0.0000 
     21 CA         22.7200   13.1290   12.6700 C.3       4 GLP5        0.0000 
     22 CA         19.8595   11.8480   11.3325 C.3       2 GLC5        0.0000 
     23 CA         20.0650   13.1530   10.2420 C.3       4 GLP5        0.0000 
     24 CA         16.9055    8.2905   14.2570 C.3       2 GLC5        0.0000 
     25 CA         17.4960    9.6940   12.6750 C.3       6 GLL5        0.0000 
     26 CA         16.3150    6.8870   15.8390 C.3       4 GLP5        0.0000 
     27 CA         15.3980    9.3840   12.0520 C.3       2 GLC5        0.0000 
     28 CA         13.3000    9.0740   11.4290 C.3       4 GLP5        0.0000 
     29 CA         16.9895   12.2295   12.3055 C.3       2 GLC5        0.0000 
     30 CA         17.6630   10.7150   13.7930 C.3       6 GLL5        0.0000 
     31 CA         16.3160   13.7440   10.8180 C.3       4 GLP5        0.0000 
     32 CA         16.2935    8.8600   15.1525 C.3       2 GLC5        0.0000 
     33 CA         16.2720   10.8330   14.4660 C.3       6 GLL5        0.0000 
     34 CA         14.6185    9.4425   14.0830 C.3       2 GLC5        0.0000 
     35 CA         12.9650    8.0520   13.7000 C.3       4 GLP5        0.0000 
     36 N          16.3800    9.0270   16.5540 N.am      1 SEC2        0.0000 
     37 N          17.1260   10.0160   16.9300 N.am      5 SEL2        0.0000 
     38 N          15.6340    8.0380   16.1780 N.am      3 SEP2        0.0000 
     39 CA         12.7760   11.7430   16.5365 C.3       2 GLC5        0.0000 
     40 CA         14.8130   11.4720   17.0650 C.3       6 GLL5        0.0000 
     41 CA         10.7390   12.0140   16.0080 C.3       4 GLP5        0.0000 
     42 CA         16.9475   12.7870   19.0065 C.3       2 GLC5        0.0000 
     43 CA         15.2740   12.2480   18.3010 C.3       6 GLL5        0.0000 
     44 CA         18.6210   13.3260   19.7120 C.3       4 GLP5        0.0000 
     45 CA         15.9855   12.2965   20.4925 C.3       2 GLC5        0.0000 
     46 CA         14.2980   12.2020   19.4840 C.3       6 GLL5        0.0000 
     47 CA         17.6730   12.3910   21.5010 C.3       4 GLP5        0.0000 
     48 CA         11.8630   14.0445   19.1240 C.3       2 GLC5        0.0000 
     49 CA         12.8470   12.1800   19.0390 C.3       6 GLL5        0.0000 
     50 CA         10.8790   15.9090   19.2090 C.3       4 GLP5        0.0000 
     51 CA          9.1060    9.9365   18.8480 C.3       2 GLC5        0.0000 
     52 CA         11.2430   10.2770   19.3450 C.3       6 GLL5        0.0000 
     53 CA          6.9690    9.5960   18.3510 C.3       4 GLP5        0.0000 
     54 CA          9.0075   10.5450   21.6345 C.3       2 GLC5        0.0000 
     55 CA         10.6950    9.1110   21.3860 C.3       6 GLL5        0.0000 
     56 CA          7.3200   11.9790   21.8830 C.3       4 GLP5        0.0000 
     57 CA         10.2975    8.0320   19.6785 C.3       2 GLC5        0.0000 
     58 CA          9.9000    6.9530   17.9710 C.3       4 GLP5        0.0000 
     59 CA         12.3440    6.6500   23.0185 C.3       2 GLC5        0.0000 
     60 CA         11.4950    8.4970   22.5320 C.3       6 GLL5        0.0000 
     61 CA         13.1930    4.8030   23.5050 C.3       4 GLP5        0.0000 
     62 CA          5.2470    9.6805   23.4515 C.3       2 GLC5        0.0000 
     63 CA          6.4930    8.4940   23.5390 C.3       6 GLL5        0.0000 
     64 CA          4.0010   10.8670   23.3640 C.3       4 GLP5        0.0000 
     65 CA          7.0620    9.4190   28.0700 C.3       2 GLC5        0.0000 
     66 CA          7.9200    8.4720   26.3290 C.3       6 GLL5        0.0000 
     67 CA          6.2040   10.3660   29.8110 C.3       4 GLP5        0.0000 
     68 CA         10.3745    7.0075   26.8695 C.3       2 GLC5        0.0000 
     69 CA          9.3930    8.5300   25.8470 C.3       6 GLL5        0.0000 
     70 CA         11.3560    5.4850   27.8920 C.3       4 GLP5        0.0000 
     71 CA          7.9690   10.4070   28.6110 C.3       2 GLC5        0.0000 
     72 CA          9.7340   10.4480   27.4110 C.3       6 GLL5        0.0000 
     73 CA         10.0620   12.6510   29.6060 C.3       2 GLC5        0.0000 
     74 CA         10.6010   11.4310   27.8890 C.3       6 GLL5        0.0000 
     75 CA          9.5230   13.8710   31.3230 C.3       4 GLP5        0.0000 
     76 CA         13.4280   11.7805   28.6840 C.3       2 GLC5        0.0000 
     77 CA         11.8980   11.5520   27.3890 C.3       6 GLL5        0.0000 
     78 CA         14.9580   12.0090   29.9790 C.3       4 GLP5        0.0000 
     79 CA         13.9835    9.2105   26.0035 C.3       2 GLC5        0.0000 
     80 CA         12.3440   10.6900   26.4050 C.3       6 GLL5        0.0000 
     81 CA         15.6230    7.7310   25.6020 C.3       4 GLP5        0.0000 
     82 CA         11.6250    7.1630   26.4205 C.3       2 GLC5        0.0000 
     83 CA         11.8940    8.8410   24.9490 C.3       6 GLL5        0.0000 
     84 CA         12.5435    6.8220   24.2270 C.3       2 GLC5        0.0000 
     85 CA         13.7585    8.2860   25.2755 C.3       2 GLC5        0.0000 
     86 CA         21.2410    8.4458   10.7413 C.3       2 GLC5        0.0000 
     87 CA         19.5470    8.2100   12.5080 C.3       6 GLL5        0.0000 
     88 CA         18.6615    7.5150   14.6122 C.3       2 GLC5        0.0000 
     89 CA         17.6790    6.8090   16.0730 C.3       4 GLP5        0.0000 
     90 CA         19.1617   11.0075   10.2825 C.3       2 GLC5        0.0000 
     91 CA         18.8750    9.5230   12.0650 C.3       6 GLL5        0.0000 
     92 CA         19.5190   12.5120    9.1580 C.3       4 GLP5        0.0000 
     93 CA         11.3507   11.4404   17.5510 C.3       2 GLC5        0.0000 
     94 CA         11.4898    8.6973   18.7302 C.3       2 GLC5        0.0000 
     95 CA         12.5170   10.7330   18.6470 C.3       6 GLL5        0.0000 
     96 CA         11.2210    7.0660   17.5660 C.3       4 GLP5        0.0000 
     97 CA          8.7812    6.1050   20.3537 C.3       2 GLC5        0.0000 
     98 CA          8.7070    6.9700   22.3000 C.3       6 GLL5        0.0000 
     99 CA          9.4280    5.7470   18.4610 C.3       4 GLP5        0.0000 
    100 CA          7.5970    4.3133   23.9670 C.3       2 GLC5        0.0000 
    101 CA          7.5620    5.9560   22.1930 C.3       6 GLL5        0.0000 
    102 CA          7.9870    2.6540   25.0610 C.3       4 GLP5        0.0000 
@<TRIPOS>BOND
@<TRIPOS>SUBSTRUCTURE
     1 SEC2       36 GROUP        1 X    SEC  0     ROOT SEC X 2
     2 GLC5        1 GROUP        1 X    GLC  0     **** GLC X 6
     3 SEP2       38 GROUP        1 Y    SEP  0     ROOT SEP Y 9
     4 GLP5        3 GROUP        1 Y    GLP  0     **** GLP Y 13
     5 SEL2       37 GROUP        1 Z    SEL  0     ROOT SEL Z 16
     6 GLL5        2 GROUP        1 Z    GLL  0     **** GLL Z 20
@<TRIPOS>SET

