#    Name: 4j03_FVS_1_ligand
#    Modification time : Tue Mar 25 04:57:17 2014

@<TRIPOS>MOLECULE
4j03_FVS_1_ligand
   88    91     1     0     0
SMALL
NO_CHARGES


@<TRIPOS>ATOM
      1 FAE        20.6950    8.1010   11.9250 F         1 FVS603      0.0000 
      2 CBM        19.5470    8.2100   12.5080 C.3       1 FVS603      0.0000 
      3 FAF        19.7410    8.2320   13.7950 F         1 FVS603      0.0000 
      4 FAG        18.7700    7.1230   12.1550 F         1 FVS603      0.0000 
      5 CBO        18.8750    9.5230   12.0650 C.3       1 FVS603      0.0000 
      6 FAH        18.7340    9.4830   10.7490 F         1 FVS603      0.0000 
      7 FAI        19.6540   10.5430   12.4230 F         1 FVS603      0.0000 
      8 CBA        17.4960    9.6940   12.6750 C.3       1 FVS603      0.0000 
      9 CAT        17.6630   10.7150   13.7930 C.3       1 FVS603      0.0000 
     10 CAY        16.2720   10.8330   14.4660 C.3       1 FVS603      0.0000 
     11 SBI        16.5910   11.3090   16.3280 S.o       1 FVS603      0.0000 
     12 OAB        17.1260   10.0160   16.9300 O.2       1 FVS603      0.0000 
     13 CAX        14.8130   11.4720   17.0650 C.3       1 FVS603      0.0000 
     14 CAS        15.2740   12.2480   18.3010 C.3       1 FVS603      0.0000 
     15 CAQ        14.2980   12.2020   19.4840 C.3       1 FVS603      0.0000 
     16 CAO        12.8470   12.1800   19.0390 C.3       1 FVS603      0.0000 
     17 CAM        12.5170   10.7330   18.6470 C.3       1 FVS603      0.0000 
     18 CAN        11.2430   10.2770   19.3450 C.3       1 FVS603      0.0000 
     19 CAP        11.6370   10.1520   20.7930 C.3       1 FVS603      0.0000 
     20 CAR        10.6950    9.1110   21.3860 C.3       1 FVS603      0.0000 
     21 CAU        11.4950    8.4970   22.5320 C.3       1 FVS603      0.0000 
     22 CBH        10.8960    9.0750   23.8200 C.3       1 FVS603      0.0000 
     23 CBN         9.4320    8.6430   24.2910 C.3       1 FVS603      0.0000 
     24 CBK         8.7900    7.2980   23.8060 C.3       1 FVS603      0.0000 
     25 CAZ         8.7070    6.9700   22.3000 C.3       1 FVS603      0.0000 
     26 CAV         7.5620    5.9560   22.1930 C.3       1 FVS603      0.0000 
     27 CBG         6.8520    5.9890   23.5530 C.3       1 FVS603      0.0000 
     28 OAD         5.4270    5.9160   23.3600 O.3       1 FVS603      0.0000 
     29 CBL         7.2890    7.3250   24.1770 C.3       1 FVS603      0.0000 
     30 CAA         6.4930    8.4940   23.5390 C.3       1 FVS603      0.0000 
     31 CBC         7.0980    7.3100   25.6690 C.3       1 FVS603      0.0000 
     32 CBB         7.9200    8.4720   26.3290 C.3       1 FVS603      0.0000 
     33 CBJ         9.3930    8.5300   25.8470 C.3       1 FVS603      0.0000 
     34 CBF        10.1740    9.5710   26.4150 C.ar      1 FVS603      0.0000 
     35 CAK         9.7340   10.4480   27.4110 C.ar      1 FVS603      0.0000 
     36 CAJ        10.6010   11.4310   27.8890 C.ar      1 FVS603      0.0000 
     37 CBD        11.8980   11.5520   27.3890 C.ar      1 FVS603      0.0000 
     38 OAC        12.7370   12.5090   27.8490 O.3       1 FVS603      0.0000 
     39 CAL        12.3440   10.6900   26.4050 C.ar      1 FVS603      0.0000 
     40 CBE        11.4840    9.7010   25.9440 C.ar      1 FVS603      0.0000 
     41 CAW        11.8940    8.8410   24.9490 C.3       1 FVS603      0.0000 
     42 H          17.1615    8.7643   13.0841 H         1 FVS603      0.0000 
     43 H          16.8178   10.0731   11.9402 H         1 FVS603      0.0000 
     44 H          17.9351   11.6625   13.3873 H         1 FVS603      0.0000 
     45 H          18.3681   10.3620   14.5103 H         1 FVS603      0.0000 
     46 H          15.7699    9.9353   14.6023 H         1 FVS603      0.0000 
     47 H          15.7083   11.6535   14.1736 H         1 FVS603      0.0000 
     48 H          14.6210   10.5055   17.2237 H         1 FVS603      0.0000 
     49 H          14.3984   12.0306   16.3493 H         1 FVS603      0.0000 
     50 H          15.4405   13.3025   18.0194 H         1 FVS603      0.0000 
     51 H          16.2494   11.8490   18.6303 H         1 FVS603      0.0000 
     52 H          14.4714   13.0788   20.1188 H         1 FVS603      0.0000 
     53 H          14.5097   11.3076   20.0815 H         1 FVS603      0.0000 
     54 H          12.7161   12.8169   18.1847 H         1 FVS603      0.0000 
     55 H          12.2106   12.4812   19.8495 H         1 FVS603      0.0000 
     56 H          13.3417   10.0896   18.9386 H         1 FVS603      0.0000 
     57 H          12.3814   10.6791   17.5710 H         1 FVS603      0.0000 
     58 H          10.9450    9.3292   18.9606 H         1 FVS603      0.0000 
     59 H          10.4880   11.0198   19.2309 H         1 FVS603      0.0000 
     60 H          11.4975   11.0865   21.2958 H         1 FVS603      0.0000 
     61 H          12.6465    9.8056   20.8726 H         1 FVS603      0.0000 
     62 H          10.4771    8.3666   20.6608 H         1 FVS603      0.0000 
     63 H           9.8263    9.5867   21.7688 H         1 FVS603      0.0000 
     64 H          12.5200    8.7869   22.4538 H         1 FVS603      0.0000 
     65 H          11.3762    7.4356   22.5283 H         1 FVS603      0.0000 
     66 H          10.8617   10.1948   23.6974 H         1 FVS603      0.0000 
     67 H           8.7332    9.4537   24.0499 H         1 FVS603      0.0000 
     68 H           9.2075    6.4657   24.3293 H         1 FVS603      0.0000 
     69 H           9.6153    6.5227   21.9853 H         1 FVS603      0.0000 
     70 H           8.4619    7.8489   21.7600 H         1 FVS603      0.0000 
     71 H           7.9601    4.9822   22.0207 H         1 FVS603      0.0000 
     72 H           6.8843    6.2594   21.4281 H         1 FVS603      0.0000 
     73 H           7.2400    5.1985   24.1436 H         1 FVS603      0.0000 
     74 H           7.4474    6.3734   26.0881 H         1 FVS603      0.0000 
     75 H           6.0535    7.4546   25.9205 H         1 FVS603      0.0000 
     76 H           7.9032    8.3344   27.4124 H         1 FVS603      0.0000 
     77 H           7.4290    9.4189   26.0937 H         1 FVS603      0.0000 
     78 H           9.8395    7.5406   26.0727 H         1 FVS603      0.0000 
     79 H           8.7862   10.3687   27.7844 H         1 FVS603      0.0000 
     80 H          10.2772   12.0805   28.6258 H         1 FVS603      0.0000 
     81 H          13.2866   10.7756   26.0221 H         1 FVS603      0.0000 
     82 H          12.8790    9.0644   24.5635 H         1 FVS603      0.0000 
     83 H          11.8319    7.7980   25.2266 H         1 FVS603      0.0000 
     84 H           6.8573    9.3842   23.8125 H         1 FVS603      0.0000 
     85 H           6.5206    8.4604   22.5399 H         1 FVS603      0.0000 
     86 H           5.5296    8.4768   23.8064 H         1 FVS603      0.0000 
     87 H           6.1552    5.2331   23.3007 H         1 FVS603      0.0000 
     88 H          12.1442   13.2752   28.0971 H         1 FVS603      0.0000 
@<TRIPOS>BOND
     1    2    1 1    
     2    3    2 1    
     3    4    2 1    
     4    5    2 1    
     5    6    5 1    
     6    7    5 1    
     7    8    5 1    
     8    9    8 1    
     9   42    8 1    
    10   43    8 1    
    11   10    9 1    
    12   44    9 1    
    13   45    9 1    
    14   11   10 1    
    15   46   10 1    
    16   47   10 1    
    17   12   11 2    
    18   13   11 1    
    19   14   13 1    
    20   48   13 1    
    21   49   13 1    
    22   15   14 1    
    23   50   14 1    
    24   51   14 1    
    25   16   15 1    
    26   52   15 1    
    27   53   15 1    
    28   17   16 1    
    29   54   16 1    
    30   55   16 1    
    31   18   17 1    
    32   56   17 1    
    33   57   17 1    
    34   19   18 1    
    35   58   18 1    
    36   59   18 1    
    37   20   19 1    
    38   60   19 1    
    39   61   19 1    
    40   21   20 1    
    41   62   20 1    
    42   63   20 1    
    43   22   21 1    
    44   64   21 1    
    45   65   21 1    
    46   23   22 1    
    47   41   22 1    
    48   66   22 1    
    49   24   23 1    
    50   33   23 1    
    51   67   23 1    
    52   25   24 1    
    53   29   24 1    
    54   68   24 1    
    55   26   25 1    
    56   69   25 1    
    57   70   25 1    
    58   27   26 1    
    59   71   26 1    
    60   72   26 1    
    61   28   27 1    
    62   29   27 1    
    63   73   27 1    
    64   87   28 1    
    65   30   29 1    
    66   31   29 1    
    67   84   30 1    
    68   85   30 1    
    69   86   30 1    
    70   32   31 1    
    71   74   31 1    
    72   75   31 1    
    73   33   32 1    
    74   76   32 1    
    75   77   32 1    
    76   34   33 1    
    77   78   33 1    
    78   35   34 ar   
    79   40   34 ar   
    80   36   35 ar   
    81   79   35 1    
    82   37   36 ar   
    83   80   36 1    
    84   38   37 1    
    85   39   37 ar   
    86   88   38 1    
    87   40   39 ar   
    88   81   39 1    
    89   41   40 1    
    90   82   41 1    
    91   83   41 1    
@<TRIPOS>SUBSTRUCTURE
     1 FVS603      1 GROUP   
@<TRIPOS>SET

