#    Name: 2vxo_XMP_1_INTS_M
#    Modification time : Tue Mar 25 03:14:10 2014

@<TRIPOS>MOLECULE
2vxo_XMP_1_INTS_M
   57     0    12     0     0
SMALL
NO_CHARGES


@<TRIPOS>ATOM
      1 NZ         20.1010   -7.4675  -16.0125 N.4       3 LYC4        0.0000 
      2 NZ         21.1590   -6.5260  -16.9800 N.4      11 LYL4        0.0000 
      3 NZ         19.0430   -8.4090  -15.0450 N.4       7 LYP4        0.0000 
      4 N          20.1010   -7.4675  -16.0125 N.am      2 SEC2        0.0000 
      5 N          21.1590   -6.5260  -16.9800 N.am     10 SEL2        0.0000 
      6 N          19.0430   -8.4090  -15.0450 N.am      6 SEP2        0.0000 
      7 NZ         20.2515   -7.7485  -14.7945 N.4       3 LYC4        0.0000 
      8 NZ         21.4600   -7.0880  -14.5440 N.4      11 LYL4        0.0000 
      9 N          20.2515   -7.7485  -14.7945 N.am      2 SEC2        0.0000 
     10 N          21.4600   -7.0880  -14.5440 N.am     10 SEL2        0.0000 
     11 N          21.5990   -6.2195  -13.3840 N.am      2 SEC2        0.0000 
     12 N          21.7380   -5.3510  -12.2240 N.am      6 SEP2        0.0000 
     13 N          22.2105   -7.4210  -13.5150 N.am      2 SEC2        0.0000 
     14 N          22.9610   -7.7540  -12.4860 N.am      6 SEP2        0.0000 
     15 N          23.0825   -4.2915  -14.3135 N.am      2 SEC2        0.0000 
     16 N          22.3300   -4.8870  -15.4350 N.am     10 SEL2        0.0000 
     17 N          23.8350   -3.6960  -13.1920 N.am      6 SEP2        0.0000 
     18 CA         23.6005   -7.5670  -14.3075 C.3       4 GLC5        0.0000 
     19 CA         23.3720   -8.5120  -16.1970 C.3      12 GLL5        0.0000 
     20 CA         23.8290   -6.6220  -12.4180 C.3       8 GLP5        0.0000 
     21 CA         26.3685   -8.1340  -20.8730 C.3       4 GLC5        0.0000 
     22 CA         26.9480   -6.5970  -19.6630 C.3      12 GLL5        0.0000 
     23 CA         25.7890   -9.6710  -22.0830 C.3       8 GLP5        0.0000 
     24 N          30.5735   -6.9005  -21.5600 N.am      2 SEC2        0.0000 
     25 N          29.3690   -7.7520  -21.8710 N.am     10 SEL2        0.0000 
     26 N          31.7780   -6.0490  -21.2490 N.am      6 SEP2        0.0000 
     27 N          25.8200   -3.0005  -22.2350 N.am      2 SEC2        0.0000 
     28 N          26.7470   -4.0970  -22.3270 N.am     10 SEL2        0.0000 
     29 N          24.8930   -1.9040  -22.1430 N.am      6 SEP2        0.0000 
     30 CA         25.0145   -5.4470  -21.4520 C.3       4 GLC5        0.0000 
     31 CA         26.4640   -5.4060  -20.3700 C.3      12 GLL5        0.0000 
     32 CA         23.5650   -5.4880  -22.5340 C.3       8 GLP5        0.0000 
     33 CA         26.0770   -6.9880  -21.7500 C.3       4 GLC5        0.0000 
     34 CA         25.6900   -8.5700  -23.1300 C.3       8 GLP5        0.0000 
     35 CA         27.1145   -3.6050  -19.2195 C.3       4 GLC5        0.0000 
     36 CA         27.7650   -1.8040  -18.0690 C.3       8 GLP5        0.0000 
     37 N          25.0455   -3.3165  -19.7405 N.am      2 SEC2        0.0000 
     38 N          25.5140   -4.8470  -19.6160 N.am     10 SEL2        0.0000 
     39 N          24.5770   -1.7860  -19.8650 N.am      6 SEP2        0.0000 
     40 CA         26.1720   -5.4495  -15.7395 C.3       4 GLC5        0.0000 
     41 CA         26.3500   -7.2420  -16.1360 C.3      12 GLL5        0.0000 
     42 CA         25.9940   -3.6570  -15.3430 C.3       8 GLP5        0.0000 
     43 N          28.5770   -7.0910  -14.5700 N.am      2 SEC2        0.0000 
     44 N          27.6680   -6.8730  -15.7660 N.am     10 SEL2        0.0000 
     45 N          29.4860   -7.3090  -13.3740 N.am      6 SEP2        0.0000 
     46 O          27.9180   -5.6640  -15.2565 O.2       1 ALC1        0.0000 
     47 O          27.6680   -6.8730  -15.7660 O.2       9 ALL1        0.0000 
     48 O          28.1680   -4.4550  -14.7470 O.2       5 ALP1        0.0000 
     49 CA         24.8185   -7.5460  -13.9160 C.3       4 GLC5        0.0000 
     50 CA         25.8080   -8.4700  -15.4140 C.3      12 GLL5        0.0000 
     51 O          27.3625   -9.1305  -14.0890 O.2       1 ALC1        0.0000 
     52 O          26.8480   -9.4420  -15.2420 O.2       9 ALL1        0.0000 
     53 O          27.8770   -8.8190  -12.9360 O.2       5 ALP1        0.0000 
     54 CA         28.3625   -5.5842  -19.2818 C.3       4 GLC5        0.0000 
     55 CA         30.0190   -5.1670  -18.5470 C.3       8 GLP5        0.0000 
     56 CA         24.6159   -9.8350  -14.4219 C.3       4 GLC5        0.0000 
     57 CA         24.2850  -11.0450  -12.9890 C.3       8 GLP5        0.0000 
@<TRIPOS>BOND
@<TRIPOS>SUBSTRUCTURE
     1 ALC1       46 GROUP        1 X    ALC  0     ROOT ALC X 1
     2 SEC2        4 GROUP        1 X    SEC  0     **** SEC X 2
     3 LYC4        1 GROUP        1 X    LYC  0     **** LYC X 4
     4 GLC5       18 GROUP        1 X    GLC  0     **** GLC X 6
     5 ALP1       48 GROUP        1 Y    ALP  0     ROOT ALP Y 8
     6 SEP2        6 GROUP        1 Y    SEP  0     **** SEP Y 9
     7 LYP4        3 GROUP        1 Y    LYP  0     **** LYP Y 11
     8 GLP5       20 GROUP        1 Y    GLP  0     **** GLP Y 13
     9 ALL1       47 GROUP        1 Z    ALL  0     ROOT ALL Z 15
    10 SEL2        5 GROUP        1 Z    SEL  0     **** SEL Z 16
    11 LYL4        2 GROUP        1 Z    LYL  0     **** LYL Z 18
    12 GLL5       19 GROUP        1 Z    GLL  0     **** GLL Z 20
@<TRIPOS>SET

