#    Name: 2vxo_XMP_1_ligand
#    Modification time : Tue Mar 25 03:14:11 2014

@<TRIPOS>MOLECULE
2vxo_XMP_1_ligand
   35    37     1     0     0
SMALL
NO_CHARGES


@<TRIPOS>ATOM
      1 P          21.9810   -6.3250  -15.7420 P.3       1 XMP1694     0.0000 
      2 O1P        21.1590   -6.5260  -16.9800 O.co2     1 XMP1694     0.0000 
      3 O2P        21.4600   -7.0880  -14.5440 O.co2     1 XMP1694     0.0000 
      4 O5'        23.3480   -7.0780  -16.0830 O.3       1 XMP1694     0.0000 
      5 O3P        22.3300   -4.8870  -15.4350 O.co2     1 XMP1694     0.0000 
      6 C5'        23.3720   -8.5120  -16.1970 C.3       1 XMP1694     0.0000 
      7 C4'        24.7990   -9.0480  -16.3940 C.3       1 XMP1694     0.0000 
      8 O4'        25.3030   -8.6720  -17.6830 O.3       1 XMP1694     0.0000 
      9 C1'        26.3960   -7.7410  -17.5520 C.3       1 XMP1694     0.0000 
     10 N9         26.2380   -6.6550  -18.5400 N.pl3     1 XMP1694     0.0000 
     11 C4         26.9480   -6.5970  -19.6630 C.2       1 XMP1694     0.0000 
     12 N3         27.9120   -7.3580  -20.2060 N.am      1 XMP1694     0.0000 
     13 N1         28.0580   -5.9410  -22.1010 N.am      1 XMP1694     0.0000 
     14 C2         28.4640   -7.0260  -21.3970 C.2       1 XMP1694     0.0000 
     15 O2         29.3690   -7.7520  -21.8710 O.2       1 XMP1694     0.0000 
     16 C6         27.0990   -5.1060  -21.6680 C.2       1 XMP1694     0.0000 
     17 O6         26.7470   -4.0970  -22.3270 O.2       1 XMP1694     0.0000 
     18 C5         26.4640   -5.4060  -20.3700 C.2       1 XMP1694     0.0000 
     19 N7         25.5140   -4.8470  -19.6160 N.2       1 XMP1694     0.0000 
     20 C8         25.3710   -5.6170  -18.5080 C.2       1 XMP1694     0.0000 
     21 C2'        26.3500   -7.2420  -16.1360 C.3       1 XMP1694     0.0000 
     22 O2'        27.6680   -6.8730  -15.7660 O.3       1 XMP1694     0.0000 
     23 C3'        25.8080   -8.4700  -15.4140 C.3       1 XMP1694     0.0000 
     24 O3'        26.8480   -9.4420  -15.2420 O.3       1 XMP1694     0.0000 
     25 H          22.7671   -8.8581  -17.0519 H         1 XMP1694     0.0000 
     26 H          22.9583   -8.9945  -15.2955 H         1 XMP1694     0.0000 
     27 H          24.7995  -10.1158  -16.2911 H         1 XMP1694     0.0000 
     28 H          27.3299   -8.2537  -17.7054 H         1 XMP1694     0.0000 
     29 H          28.2432   -8.2168  -19.7079 H         1 XMP1694     0.0000 
     30 H          28.5222   -5.7468  -23.0365 H         1 XMP1694     0.0000 
     31 H          24.7320   -5.4444  -17.7903 H         1 XMP1694     0.0000 
     32 H          25.6400   -6.4696  -16.0845 H         1 XMP1694     0.0000 
     33 H          25.3270   -8.1909  -14.5423 H         1 XMP1694     0.0000 
     34 H          27.5823   -5.9506  -15.3894 H         1 XMP1694     0.0000 
     35 H          26.9153   -9.5768  -14.2534 H         1 XMP1694     0.0000 
@<TRIPOS>BOND
     1    2    1 ar   
     2    3    1 ar   
     3    4    1 1    
     4    5    1 ar   
     5    6    4 1    
     6    7    6 1    
     7   25    6 1    
     8   26    6 1    
     9    8    7 1    
    10   23    7 1    
    11   27    7 1    
    12    9    8 1    
    13   10    9 1    
    14   21    9 1    
    15   28    9 1    
    16   11   10 1    
    17   20   10 1    
    18   12   11 1    
    19   18   11 2    
    20   14   12 am   
    21   29   12 1    
    22   14   13 1    
    23   16   13 am   
    24   30   13 1    
    25   15   14 2    
    26   17   16 2    
    27   18   16 1    
    28   19   18 1    
    29   20   19 2    
    30   31   20 1    
    31   22   21 1    
    32   23   21 1    
    33   32   21 1    
    34   34   22 1    
    35   24   23 1    
    36   33   23 1    
    37   35   24 1    
@<TRIPOS>SUBSTRUCTURE
     1 XMP1694     1 GROUP   
@<TRIPOS>SET

