#    Name: 3uzz_TES_1_INTS_M
#    Modification time : Mon Mar 24 23:48:23 2014

@<TRIPOS>MOLECULE
3uzz_TES_1_INTS_M
   63     0     6     0     0
SMALL
NO_CHARGES


@<TRIPOS>ATOM
      1 CA         16.6680  -12.9410   -6.5885 C.3       2 GLC5        0.0000 
      2 CA         15.5290  -14.0070   -5.2730 C.3       6 GLL5        0.0000 
      3 CA         17.8070  -11.8750   -7.9040 C.3       4 GLP5        0.0000 
      4 CA         15.8050  -11.8390   -6.2210 C.3       2 GLC5        0.0000 
      5 CA         14.7230  -12.8520   -4.6880 C.3       6 GLL5        0.0000 
      6 CA         16.8870  -10.8260   -7.7540 C.3       4 GLP5        0.0000 
      7 CA         14.4910  -10.8780   -5.0940 C.3       2 GLC5        0.0000 
      8 CA         14.2590   -8.9040   -5.5000 C.3       4 GLP5        0.0000 
      9 CA         13.6645  -12.3935   -2.8745 C.3       2 GLC5        0.0000 
     10 CA         12.6060  -11.9350   -1.0610 C.3       4 GLP5        0.0000 
     11 N          11.1230  -11.8705   -4.8520 N.am      1 SEC2        0.0000 
     12 N          12.3880  -12.3390   -4.8090 N.am      5 SEL2        0.0000 
     13 N           9.8580  -11.4020   -4.8950 N.am      3 SEP2        0.0000 
     14 N          12.8785  -11.1440   -5.1490 N.am      1 SEC2        0.0000 
     15 N          13.3690   -9.9490   -5.4890 N.am      3 SEP2        0.0000 
     16 CA         11.1310  -15.6630   -5.0440 C.3       2 GLC5        0.0000 
     17 CA         12.8550  -14.5560   -4.2700 C.3       6 GLL5        0.0000 
     18 CA          9.4070  -16.7700   -5.8180 C.3       4 GLP5        0.0000 
     19 CA         11.4965  -13.7110   -5.5255 C.3       2 GLC5        0.0000 
     20 CA         10.1380  -12.8660   -6.7810 C.3       4 GLP5        0.0000 
     21 CA         12.2740  -13.7255   -2.4590 C.3       2 GLC5        0.0000 
     22 CA         11.6930  -12.8950   -0.6480 C.3       4 GLP5        0.0000 
     23 CA         13.9050  -16.3115   -2.2250 C.3       2 GLC5        0.0000 
     24 CA         13.7460  -15.5350   -4.2880 C.3       6 GLL5        0.0000 
     25 CA         14.0640  -17.0880   -0.1620 C.3       4 GLP5        0.0000 
     26 CA         12.8615  -17.7895   -2.4620 C.3       2 GLC5        0.0000 
     27 CA         13.2710  -16.9220   -3.8800 C.3       6 GLL5        0.0000 
     28 CA         12.4520  -18.6570   -1.0440 C.3       4 GLP5        0.0000 
     29 CA         13.6350  -18.6915   -3.1885 C.3       2 GLC5        0.0000 
     30 CA         13.7420  -17.9270   -4.9330 C.3       6 GLL5        0.0000 
     31 CA         13.5280  -19.4560   -1.4440 C.3       4 GLP5        0.0000 
     32 CA         15.0660  -18.4625   -3.1270 C.3       2 GLC5        0.0000 
     33 CA         15.2610  -17.8330   -5.0450 C.3       6 GLL5        0.0000 
     34 CA         14.8710  -19.0920   -1.2090 C.3       4 GLP5        0.0000 
     35 CA         16.0730  -17.8325   -7.8315 C.3       2 GLC5        0.0000 
     36 CA         15.7890  -18.8900   -6.0270 C.3       6 GLL5        0.0000 
     37 CA         16.3570  -16.7750   -9.6360 C.3       4 GLP5        0.0000 
     38 CA         19.6980  -18.8420   -3.9995 C.3       2 GLC5        0.0000 
     39 CA         17.8760  -18.8940   -4.5670 C.3       6 GLL5        0.0000 
     40 CA         21.5200  -18.7900   -3.4320 C.3       4 GLP5        0.0000 
     41 CA         15.5520  -16.6805   -1.9680 C.3       2 GLC5        0.0000 
     42 CA         15.9680  -15.4790   -3.3790 C.3       6 GLL5        0.0000 
     43 CA         15.1360  -17.8820   -0.5570 C.3       4 GLP5        0.0000 
     44 CA         17.7830  -15.0305   -2.4815 C.3       2 GLC5        0.0000 
     45 CA         19.5980  -14.5820   -1.5840 C.3       4 GLP5        0.0000 
     46 CA         11.9743  -18.1268   -4.8068 C.3       2 GLC5        0.0000 
     47 CA         10.4420  -18.8290   -5.2070 C.3       4 GLP5        0.0000 
     48 CA         16.9080  -16.1965   -7.4527 C.3       2 GLC5        0.0000 
     49 CA         15.6440  -16.4580   -5.6180 C.3       6 GLL5        0.0000 
     50 CA         17.4170  -16.0010   -9.2050 C.3       4 GLP5        0.0000 
     51 CA         18.8995  -15.5710   -6.1377 C.3       2 GLC5        0.0000 
     52 CA         17.1540  -16.3260   -5.7830 C.3       6 GLL5        0.0000 
     53 CA         20.3470  -14.2380   -6.0800 C.3       4 GLP5        0.0000 
     54 CA         17.4818  -17.0742   -7.7545 C.3       2 GLC5        0.0000 
     55 CA         17.7500  -17.4820   -6.6080 C.3       6 GLL5        0.0000 
     56 CA         17.4078  -19.5267   -3.5172 C.3       2 GLC5        0.0000 
     57 CA         17.3430  -18.8130   -6.0000 C.3       6 GLL5        0.0000 
     58 CA         17.2060  -20.2000   -1.7510 C.3       4 GLP5        0.0000 
     59 CA         15.2515  -20.3445   -4.0585 C.3       2 GLC5        0.0000 
     60 CA         15.5290  -20.3600   -5.6630 C.3       6 GLL5        0.0000 
     61 CA         14.8440  -21.0640   -2.2720 C.3       4 GLP5        0.0000 
     62 CA         15.8705  -22.7225   -5.3663 C.3       2 GLC5        0.0000 
     63 CA         15.6540  -24.7050   -4.6820 C.3       4 GLP5        0.0000 
@<TRIPOS>BOND
@<TRIPOS>SUBSTRUCTURE
     1 SEC2       11 GROUP        1 X    SEC  0     ROOT SEC X 2
     2 GLC5        1 GROUP        1 X    GLC  0     **** GLC X 6
     3 SEP2       13 GROUP        1 Y    SEP  0     ROOT SEP Y 9
     4 GLP5        3 GROUP        1 Y    GLP  0     **** GLP Y 13
     5 SEL2       12 GROUP        1 Z    SEL  0     ROOT SEL Z 16
     6 GLL5        2 GROUP        1 Z    GLL  0     **** GLL Z 20
@<TRIPOS>SET

