#    Name: 3uzz_TES_1_ligand
#    Modification time : Mon Mar 24 23:48:24 2014

@<TRIPOS>MOLECULE
3uzz_TES_1_ligand
   49    52     1     0     0
SMALL
NO_CHARGES


@<TRIPOS>ATOM
      1 C1         15.5290  -14.0070   -5.2730 C.3       1 TES501      0.0000 
      2 C2         14.7230  -12.8520   -4.6880 C.3       1 TES501      0.0000 
      3 C3         13.2390  -13.1880   -4.6260 C.2       1 TES501      0.0000 
      4 O3         12.3880  -12.3390   -4.8090 O.2       1 TES501      0.0000 
      5 C4         12.8550  -14.5560   -4.2700 C.2       1 TES501      0.0000 
      6 C5         13.7460  -15.5350   -4.2880 C.2       1 TES501      0.0000 
      7 C6         13.2710  -16.9220   -3.8800 C.3       1 TES501      0.0000 
      8 C7         13.7420  -17.9270   -4.9330 C.3       1 TES501      0.0000 
      9 C8         15.2610  -17.8330   -5.0450 C.3       1 TES501      0.0000 
     10 C9         15.6440  -16.4580   -5.6180 C.3       1 TES501      0.0000 
     11 C10        15.1670  -15.3530   -4.6740 C.3       1 TES501      0.0000 
     12 C11        17.1540  -16.3260   -5.7830 C.3       1 TES501      0.0000 
     13 C12        17.7500  -17.4820   -6.6080 C.3       1 TES501      0.0000 
     14 C13        17.3430  -18.8130   -6.0000 C.3       1 TES501      0.0000 
     15 C14        15.7890  -18.8900   -6.0270 C.3       1 TES501      0.0000 
     16 C15        15.5290  -20.3600   -5.6630 C.3       1 TES501      0.0000 
     17 C16        16.6450  -21.1200   -6.4380 C.3       1 TES501      0.0000 
     18 C17        17.7430  -20.0630   -6.7800 C.3       1 TES501      0.0000 
     19 O17        19.0440  -20.5280   -6.4030 O.3       1 TES501      0.0000 
     20 C18        17.8760  -18.8940   -4.5670 C.3       1 TES501      0.0000 
     21 C19        15.9680  -15.4790   -3.3790 C.3       1 TES501      0.0000 
     22 H          16.5999  -13.8136   -5.1085 H         1 TES501      0.0000 
     23 H          15.3671  -14.0395   -6.3611 H         1 TES501      0.0000 
     24 H          14.8662  -11.9644   -5.3072 H         1 TES501      0.0000 
     25 H          15.0858  -12.6345   -3.6816 H         1 TES501      0.0000 
     26 H          11.8636  -14.6949   -4.0110 H         1 TES501      0.0000 
     27 H          12.1926  -16.9363   -3.8295 H         1 TES501      0.0000 
     28 H          13.6943  -17.1836   -2.9219 H         1 TES501      0.0000 
     29 H          13.2941  -17.6858   -5.8843 H         1 TES501      0.0000 
     30 H          13.4634  -18.9233   -4.6274 H         1 TES501      0.0000 
     31 H          15.7148  -17.9605   -4.1052 H         1 TES501      0.0000 
     32 H          15.1708  -16.3258   -6.5685 H         1 TES501      0.0000 
     33 H          17.6275  -16.3160   -4.7977 H         1 TES501      0.0000 
     34 H          17.3835  -15.3815   -6.2834 H         1 TES501      0.0000 
     35 H          18.8307  -17.3936   -6.6073 H         1 TES501      0.0000 
     36 H          17.3803  -17.4150   -7.6251 H         1 TES501      0.0000 
     37 H          15.4854  -18.6974   -7.0143 H         1 TES501      0.0000 
     38 H          14.5871  -20.6613   -6.0266 H         1 TES501      0.0000 
     39 H          15.6642  -20.5055   -4.6282 H         1 TES501      0.0000 
     40 H          16.2440  -21.5135   -7.3410 H         1 TES501      0.0000 
     41 H          17.0637  -21.8700   -5.8110 H         1 TES501      0.0000 
     42 H          17.6569  -19.8483   -7.8233 H         1 TES501      0.0000 
     43 H          18.8730  -18.8221   -4.5369 H         1 TES501      0.0000 
     44 H          17.5118  -18.1604   -3.9933 H         1 TES501      0.0000 
     45 H          17.6311  -19.7584   -4.1280 H         1 TES501      0.0000 
     46 H          16.9530  -15.4355   -3.5459 H         1 TES501      0.0000 
     47 H          15.7475  -14.7479   -2.7333 H         1 TES501      0.0000 
     48 H          15.7875  -16.3454   -2.9135 H         1 TES501      0.0000 
     49 H          19.6214  -19.9506   -5.8256 H         1 TES501      0.0000 
@<TRIPOS>BOND
     1    2    1 1    
     2   11    1 1    
     3   22    1 1    
     4   23    1 1    
     5    3    2 1    
     6   24    2 1    
     7   25    2 1    
     8    4    3 2    
     9    5    3 1    
    10    6    5 2    
    11   26    5 1    
    12    7    6 1    
    13   11    6 1    
    14    8    7 1    
    15   27    7 1    
    16   28    7 1    
    17    9    8 1    
    18   29    8 1    
    19   30    8 1    
    20   10    9 1    
    21   15    9 1    
    22   31    9 1    
    23   11   10 1    
    24   12   10 1    
    25   32   10 1    
    26   21   11 1    
    27   13   12 1    
    28   33   12 1    
    29   34   12 1    
    30   14   13 1    
    31   35   13 1    
    32   36   13 1    
    33   15   14 1    
    34   18   14 1    
    35   20   14 1    
    36   16   15 1    
    37   37   15 1    
    38   17   16 1    
    39   38   16 1    
    40   39   16 1    
    41   18   17 1    
    42   40   17 1    
    43   41   17 1    
    44   19   18 1    
    45   42   18 1    
    46   49   19 1    
    47   43   20 1    
    48   44   20 1    
    49   45   20 1    
    50   46   21 1    
    51   47   21 1    
    52   48   21 1    
@<TRIPOS>SUBSTRUCTURE
     1 TES501      1 GROUP   
@<TRIPOS>SET

