#    Name: 1AWB_1_CAVITY_N1_ALL.mol2
#    Modification time : Mon Mar 10 13:52:50 2014

@<TRIPOS>MOLECULE
1AWB_1_CAVITY_N1_ALL.mol2
  148     0     7     0     0
SMALL
NO_CHARGES


@<TRIPOS>ATOM
      1 CZ         11.6280   50.1466    4.9426 C.ar      5 PHE5        0.0000 
      2 CZ         11.0208   51.2892    4.1838 C.ar      5 PHE5        0.0000 
      3 N          11.1882   48.0819    5.1508 N.2       2 ALA2        0.0000 
      4 DU         10.5810   49.2245    4.3919 H         7 CUB7        0.0000 
      5 DU          9.9738   50.3670    3.6331 H         7 CUB7        0.0000 
      6 DU         10.1411   47.1597    4.6001 H         7 CUB7        0.0000 
      7 DU          9.5339   48.3023    3.8412 H         7 CUB7        0.0000 
      8 DU          8.9267   49.4449    3.0824 H         7 CUB7        0.0000 
      9 CZ         10.7420   50.4534    6.1135 C.ar      5 PHE5        0.0000 
     10 CZ         10.1348   51.5960    5.3546 C.ar      5 PHE5        0.0000 
     11 N          10.3022   48.3887    6.3216 N.2       2 ALA2        0.0000 
     12 N           9.6950   49.5313    5.5628 N.2       2 ALA2        0.0000 
     13 OD1         9.0878   50.6738    4.8039 O.3       3 ASP3        0.0000 
     14 N           9.2551   47.4665    5.7709 N.2       2 ALA2        0.0000 
     15 DU          8.6479   48.6091    5.0121 H         7 CUB7        0.0000 
     16 NZ          8.0407   49.7516    4.2533 N.2       4 LYS4        0.0000 
     17 N           9.8561   50.7602    7.2843 N.2       2 ALA2        0.0000 
     18 NZ          9.2489   51.9028    6.5255 N.2       4 LYS4        0.0000 
     19 N           8.8090   49.8380    6.7336 N.2       2 ALA2        0.0000 
     20 NZ          8.2018   50.9806    5.9748 N.2       4 LYS4        0.0000 
     21 N           8.3691   47.7733    6.9418 N.2       2 ALA2        0.0000 
     22 NZ          7.7619   48.9159    6.1830 N.2       4 LYS4        0.0000 
     23 NZ          7.1547   50.0584    5.4241 N.2       4 LYS4        0.0000 
     24 CA          8.9701   51.0670    8.4552 C.3       6 GLY6        0.0000 
     25 N           7.9230   50.1448    7.9045 N.2       2 ALA2        0.0000 
     26 NZ          7.3158   51.2874    7.1457 N.2       4 LYS4        0.0000 
     27 N           8.0903   46.9375    8.8715 N.2       2 ALA2        0.0000 
     28 N           7.4831   48.0801    8.1127 N.2       2 ALA2        0.0000 
     29 NZ          6.8759   49.2226    7.3538 N.2       4 LYS4        0.0000 
     30 NZ          6.2687   50.3652    6.5950 N.2       4 LYS4        0.0000 
     31 CA          6.4361   47.1579    7.5620 C.3       6 GLY6        0.0000 
     32 NZ          5.8289   48.3005    6.8031 N.2       4 LYS4        0.0000 
     33 CA          5.3890   46.2357    7.0113 C.3       6 GLY6        0.0000 
     34 CA          8.0841   51.3738    9.6260 C.3       6 GLY6        0.0000 
     35 N           8.2514   48.1665   10.5930 N.2       2 ALA2        0.0000 
     36 N           7.6442   49.3090    9.8342 N.2       2 ALA2        0.0000 
     37 CA          7.0370   50.4516    9.0754 C.3       6 GLY6        0.0000 
     38 NZ          6.4298   51.5942    8.3165 N.2       4 LYS4        0.0000 
     39 OG          7.2044   47.2443   10.0424 O.2       1 SER1        0.0000 
     40 OG          6.5972   48.3868    9.2835 O.2       1 SER1        0.0000 
     41 OG          5.9900   49.5294    8.5247 O.2       1 SER1        0.0000 
     42 NZ          5.3828   50.6720    7.7658 N.2       4 LYS4        0.0000 
     43 NZ          4.7756   51.8146    7.0070 N.2       4 LYS4        0.0000 
     44 NZ          4.9429   48.6072    7.9740 N.2       4 LYS4        0.0000 
     45 NZ          7.6380   53.7453   10.5888 N.2       4 LYS4        0.0000 
     46 NZ          7.0308   54.8879    9.8299 N.2       4 LYS4        0.0000 
     47 NZ          7.8053   50.5380   11.5557 N.2       4 LYS4        0.0000 
     48 NZ          7.1981   51.6806   10.7969 N.2       4 LYS4        0.0000 
     49 NZ          6.5909   52.8231   10.0381 N.2       4 LYS4        0.0000 
     50 NZ          5.9837   53.9657    9.2792 N.2       4 LYS4        0.0000 
     51 NZ          5.3765   55.1083    8.5204 N.2       4 LYS4        0.0000 
     52 OG          7.3654   48.4732   11.7639 O.2       1 SER1        0.0000 
     53 OG          6.7582   49.6158   11.0051 O.2       1 SER1        0.0000 
     54 OG          6.1510   50.7584   10.2462 O.2       1 SER1        0.0000 
     55 NZ          5.5438   51.9010    9.4874 N.2       4 LYS4        0.0000 
     56 NZ          4.9366   53.0435    8.7285 N.2       4 LYS4        0.0000 
     57 OG          4.3294   54.1861    7.9697 O.2       1 SER1        0.0000 
     58 OG          6.9256   46.4085   11.9721 O.2       1 SER1        0.0000 
     59 OG          5.1040   49.8362    9.6955 O.2       1 SER1        0.0000 
     60 NZ          4.4968   50.9788    8.9367 N.2       4 LYS4        0.0000 
     61 NZ          3.8896   52.1214    8.1779 N.2       4 LYS4        0.0000 
     62 N           3.2824   53.2639    7.4190 N.2       2 ALA2        0.0000 
     63 NZ          3.4497   50.0566    8.3860 N.2       4 LYS4        0.0000 
     64 NZ          2.8425   51.1992    7.6272 N.2       4 LYS4        0.0000 
     65 CA          2.4027   49.1344    7.8353 C.3       6 GLY6        0.0000 
     66 NZ          6.7520   54.0521   11.7596 N.2       4 LYS4        0.0000 
     67 NZ          6.1448   55.1947   11.0008 N.2       4 LYS4        0.0000 
     68 CA          7.5265   49.7022   13.4854 C.3       6 GLY6        0.0000 
     69 NZ          6.9193   50.8448   12.7266 N.2       4 LYS4        0.0000 
     70 NZ          6.3121   51.9873   11.9678 N.2       4 LYS4        0.0000 
     71 NZ          5.7049   53.1299   11.2089 N.2       4 LYS4        0.0000 
     72 O           5.0977   54.2725   10.4501 O.2       2 ALA2        0.0000 
     73 OG          4.4905   55.4151    9.6913 O.2       1 SER1        0.0000 
     74 NZ          7.0867   47.6374   13.6936 N.2       4 LYS4        0.0000 
     75 OG          6.4795   48.7800   12.9348 O.2       1 SER1        0.0000 
     76 OG          5.8723   49.9226   12.1759 O.2       1 SER1        0.0000 
     77 OG          5.2650   51.0652   11.4171 O.2       1 SER1        0.0000 
     78 DU          4.6578   52.2077   10.6582 H         7 CUB7        0.0000 
     79 DU          4.0506   53.3503    9.8994 H         7 CUB7        0.0000 
     80 OG          3.4434   54.4929    9.1406 O.2       1 SER1        0.0000 
     81 OG          4.2180   50.1430   10.8664 O.2       1 SER1        0.0000 
     82 DU          3.6108   51.2856   10.1076 H         7 CUB7        0.0000 
     83 DU          3.0036   52.4281    9.3487 H         7 CUB7        0.0000 
     84 CA          2.3964   53.5707    8.5899 C.3       6 GLY6        0.0000 
     85 OG          2.5637   50.3634    9.5569 O.2       1 SER1        0.0000 
     86 OG          1.9565   51.5060    8.7980 O.2       1 SER1        0.0000 
     87 CA          2.1239   48.2986    9.7650 C.3       6 GLY6        0.0000 
     88 CA          7.0804   52.0737   14.4481 C.3       6 GLY6        0.0000 
     89 NZ          6.4732   53.2163   13.6893 N.2       4 LYS4        0.0000 
     90 NZ          6.6405   50.0090   14.6563 N.2       4 LYS4        0.0000 
     91 DU          6.0333   51.1516   13.8975 H         7 CUB7        0.0000 
     92 DU          5.4261   52.2941   13.1386 H         7 CUB7        0.0000 
     93 NZ          4.8189   53.4367   12.3798 N.2       4 LYS4        0.0000 
     94 O           4.2117   54.5793   11.6209 O.2       2 ALA2        0.0000 
     95 NZ          5.5935   49.0868   14.1056 N.2       4 LYS4        0.0000 
     96 OG          4.9863   50.2294   13.3468 O.2       1 SER1        0.0000 
     97 DU          4.3791   51.3719   12.5879 H         7 CUB7        0.0000 
     98 DU          3.7719   52.5145   11.8291 H         7 CUB7        0.0000 
     99 O           3.1647   53.6571   11.0703 O.2       2 ALA2        0.0000 
    100 OG          4.5464   48.1646   13.5549 O.2       1 SER1        0.0000 
    101 OG          3.9392   49.3072   12.7961 O.2       1 SER1        0.0000 
    102 OG          3.3320   50.4498   12.0373 O.2       1 SER1        0.0000 
    103 DU          2.7248   51.5923   11.2784 H         7 CUB7        0.0000 
    104 OG          2.1176   52.7349   10.5196 O.2       1 SER1        0.0000 
    105 OG          2.2849   49.5276   11.4866 O.2       1 SER1        0.0000 
    106 OG          1.6777   50.6702   10.7277 O.2       1 SER1        0.0000 
    107 CA          1.2379   48.6054   10.9359 C.3       6 GLY6        0.0000 
    108 N           0.6307   49.7480   10.1771 N.2       2 ALA2        0.0000 
    109 O           6.1944   52.3805   15.6190 O.2       2 ALA2        0.0000 
    110 O           5.5872   53.5231   14.8602 O.2       2 ALA2        0.0000 
    111 NZ          5.7545   50.3158   15.8272 N.2       4 LYS4        0.0000 
    112 DU          5.1473   51.4583   15.0683 H         7 CUB7        0.0000 
    113 N           4.5401   52.6009   14.3095 N.2       2 ALA2        0.0000 
    114 N           3.9329   53.7435   13.5506 N.2       2 ALA2        0.0000 
    115 NZ          4.7075   49.3936   15.2765 N.2       4 LYS4        0.0000 
    116 DU          4.1003   50.5362   14.5176 H         7 CUB7        0.0000 
    117 DU          3.4931   51.6787   13.7588 H         7 CUB7        0.0000 
    118 N           2.8859   52.8213   13.0000 N.2       2 ALA2        0.0000 
    119 CA          2.2787   53.9639   12.2411 C.3       6 GLY6        0.0000 
    120 CA          3.6604   48.4714   14.7258 C.3       6 GLY6        0.0000 
    121 OG          3.0532   49.6140   13.9670 O.2       1 SER1        0.0000 
    122 DU          2.4460   50.7566   13.2081 H         7 CUB7        0.0000 
    123 OG          1.8388   51.8991   12.4493 O.2       1 SER1        0.0000 
    124 OG          1.2316   53.0417   11.6904 O.2       1 SER1        0.0000 
    125 N           2.0062   48.6918   13.4163 N.2       2 ALA2        0.0000 
    126 DU          1.3990   49.8344   12.6574 H         7 CUB7        0.0000 
    127 OG          0.7918   50.9769   11.8986 O.2       1 SER1        0.0000 
    128 N           0.3519   48.9122   12.1068 N.2       2 ALA2        0.0000 
    129 OG         -0.2553   50.0548   11.3479 O.2       1 SER1        0.0000 
    130 CA          4.2614   51.7651   16.2392 C.3       6 GLY6        0.0000 
    131 N           3.6542   52.9077   15.4803 N.2       2 ALA2        0.0000 
    132 CA          3.2143   50.8429   15.6885 C.3       6 GLY6        0.0000 
    133 N           2.6071   51.9855   14.9297 N.2       2 ALA2        0.0000 
    134 CA          2.7744   48.7782   15.8967 C.3       6 GLY6        0.0000 
    135 NZ          2.1672   49.9208   15.1378 N.2       4 LYS4        0.0000 
    136 N           1.5600   51.0633   14.3790 N.2       2 ALA2        0.0000 
    137 O           0.9528   52.2059   13.6201 O.2       2 ALA2        0.0000 
    138 O           1.7274   47.8560   15.3460 O.2       2 ALA2        0.0000 
    139 N           1.1202   48.9986   14.5871 N.2       2 ALA2        0.0000 
    140 O           0.5130   50.1412   13.8283 O.2       2 ALA2        0.0000 
    141 O          -0.0942   51.2837   13.0695 O.2       2 ALA2        0.0000 
    142 N           0.0731   48.0764   14.0364 N.2       2 ALA2        0.0000 
    143 N          -0.5341   49.2190   13.2776 N.2       2 ALA2        0.0000 
    144 O           0.6740   51.3701   15.5498 O.2       2 ALA2        0.0000 
    145 NZ          0.8414   48.1628   16.5168 N.2       4 LYS4        0.0000 
    146 O           0.2342   49.3054   15.7580 O.2       2 ALA2        0.0000 
    147 CA         -0.2057   47.2406   15.9661 C.3       6 GLY6        0.0000 
    148 O          -0.8129   48.3832   15.2073 O.2       2 ALA2        0.0000 
@<TRIPOS>BOND
@<TRIPOS>SUBSTRUCTURE
     1 SER1       39 GROUP   
     2 ALA2        3 GROUP   
     3 ASP3       13 GROUP   
     4 LYS4       16 GROUP   
     5 PHE5        1 GROUP   
     6 GLY6       24 GROUP   
     7 CUB7        4 GROUP   
@<TRIPOS>SET

