#    Name: 1awb_IPD_1_INTS_M
#    Modification time : Mon Mar 24 18:53:30 2014

@<TRIPOS>MOLECULE
1awb_IPD_1_INTS_M
   30     0     9     0     0
SMALL
NO_CHARGES


@<TRIPOS>ATOM
      1 CA          7.5565   50.2695   15.5235 C.3       3 GLC5        0.0000 
      2 CA          5.4130   50.7280   15.1300 C.3       9 GLL5        0.0000 
      3 CA          9.7000   49.8110   15.9170 C.3       6 GLP5        0.0000 
      4 N           6.1785   54.0500   16.2060 N.am      2 SEC2        0.0000 
      5 N           6.2300   53.5330   14.8220 N.am      8 SEL2        0.0000 
      6 N           6.1270   54.5670   17.5900 N.am      5 SEP2        0.0000 
      7 O           6.6360   54.7760   14.1975 O.2       1 ALC1        0.0000 
      8 O           6.2300   53.5330   14.8220 O.2       7 ALL1        0.0000 
      9 O           7.0420   56.0190   13.5730 O.2       4 ALP1        0.0000 
     10 O           2.8750   53.4135   16.1630 O.2       1 ALC1        0.0000 
     11 O           4.1110   52.3480   16.3580 O.2       7 ALL1        0.0000 
     12 O           1.6390   54.4790   15.9680 O.2       4 ALP1        0.0000 
     13 O           5.8470   49.3685   17.1670 O.2       1 ALC1        0.0000 
     14 O           4.8690   49.6450   15.9120 O.2       7 ALL1        0.0000 
     15 O           6.8250   49.0920   18.4220 O.2       4 ALP1        0.0000 
     16 O           5.7620   48.7350   16.2720 O.2       1 ALC1        0.0000 
     17 O           6.6550   47.8250   16.6320 O.2       4 ALP1        0.0000 
     18 O           6.7175   48.5190   15.2290 O.2       1 ALC1        0.0000 
     19 O           6.7800   49.2130   13.8260 O.2       7 ALL1        0.0000 
     20 N           3.6400   55.9440   11.8380 N.am      2 SEC2        0.0000 
     21 N           3.8770   54.7370   11.1080 N.am      8 SEL2        0.0000 
     22 N           3.4030   57.1510   12.5680 N.am      5 SEP2        0.0000 
     23 N           2.7020   55.6945   10.8890 N.am      2 SEC2        0.0000 
     24 N           1.5270   56.6520   10.6700 N.am      5 SEP2        0.0000 
     25 CA          4.2848   53.9348   15.9680 C.3       3 GLC5        0.0000 
     26 CA          4.9960   53.0560   14.2250 C.3       9 GLL5        0.0000 
     27 CA          3.8690   55.3970   17.3030 C.3       6 GLP5        0.0000 
     28 CA          4.1845   50.7743   17.0003 C.3       3 GLC5        0.0000 
     29 CA          4.4050   51.8890   15.0410 C.3       9 GLL5        0.0000 
     30 CA          3.4600   50.2400   18.9150 C.3       6 GLP5        0.0000 
@<TRIPOS>BOND
@<TRIPOS>SUBSTRUCTURE
     1 ALC1        7 GROUP        1 X    ALC  0     ROOT ALC X 1
     2 SEC2        4 GROUP        1 X    SEC  0     **** SEC X 2
     3 GLC5        1 GROUP        1 X    GLC  0     **** GLC X 6
     4 ALP1        9 GROUP        1 Y    ALP  0     ROOT ALP Y 8
     5 SEP2        6 GROUP        1 Y    SEP  0     **** SEP Y 9
     6 GLP5        3 GROUP        1 Y    GLP  0     **** GLP Y 13
     7 ALL1        8 GROUP        1 Z    ALL  0     ROOT ALL Z 15
     8 SEL2        5 GROUP        1 Z    SEL  0     **** SEL Z 16
     9 GLL5        2 GROUP        1 Z    GLL  0     **** GLL Z 20
@<TRIPOS>SET

