#    Name: 1awb_IPD_1_ligand
#    Modification time : Mon Mar 24 18:53:31 2014

@<TRIPOS>MOLECULE
1awb_IPD_1_ligand
   27    27     1     0     0
SMALL
NO_CHARGES


@<TRIPOS>ATOM
      1 C1          5.2690   52.5610   12.7990 C.3       1 IPD281      0.0000 
      2 C2          4.9960   53.0560   14.2250 C.3       1 IPD281      0.0000 
      3 C3          4.4050   51.8890   15.0410 C.3       1 IPD281      0.0000 
      4 C4          5.4130   50.7280   15.1300 C.3       1 IPD281      0.0000 
      5 C5          5.7510   50.2250   13.7150 C.3       1 IPD281      0.0000 
      6 C6          6.2800   51.4050   12.8760 C.3       1 IPD281      0.0000 
      7 P1          5.2420   54.2630   10.7520 P.3       1 IPD281      0.0000 
      8 O1          5.8640   53.6750   12.0630 O.3       1 IPD281      0.0000 
      9 O2          6.2300   53.5330   14.8220 O.3       1 IPD281      0.0000 
     10 O3          4.1110   52.3480   16.3580 O.3       1 IPD281      0.0000 
     11 O4          4.8690   49.6450   15.9120 O.3       1 IPD281      0.0000 
     12 O5          6.7800   49.2130   13.8260 O.3       1 IPD281      0.0000 
     13 O6          6.5770   50.9680   11.5540 O.3       1 IPD281      0.0000 
     14 O7          6.1190   55.3180   10.2380 O.co2     1 IPD281      0.0000 
     15 O8          5.0350   53.1420    9.7990 O.co2     1 IPD281      0.0000 
     16 O9          3.8770   54.7370   11.1080 O.co2     1 IPD281      0.0000 
     17 H           4.3761   52.2291   12.3658 H         1 IPD281      0.0000 
     18 H           4.2584   53.8346   14.1720 H         1 IPD281      0.0000 
     19 H           3.5268   51.5369   14.5389 H         1 IPD281      0.0000 
     20 H           6.3217   51.1081   15.5709 H         1 IPD281      0.0000 
     21 H           4.8689   49.8478   13.2656 H         1 IPD281      0.0000 
     22 H           7.1755   51.7837   13.3630 H         1 IPD281      0.0000 
     23 H           6.4202   54.4013   14.3639 H         1 IPD281      0.0000 
     24 H           3.3423   52.9779   16.2468 H         1 IPD281      0.0000 
     25 H           5.6530   49.0636   16.1293 H         1 IPD281      0.0000 
     26 H           6.7712   48.9395   14.7879 H         1 IPD281      0.0000 
     27 H           5.9766   51.5063   10.9626 H         1 IPD281      0.0000 
@<TRIPOS>BOND
     1    2    1 1    
     2    6    1 1    
     3    8    1 1    
     4   17    1 1    
     5    3    2 1    
     6    9    2 1    
     7   18    2 1    
     8    4    3 1    
     9   10    3 1    
    10   19    3 1    
    11    5    4 1    
    12   11    4 1    
    13   20    4 1    
    14    6    5 1    
    15   12    5 1    
    16   21    5 1    
    17   13    6 1    
    18   22    6 1    
    19    8    7 1    
    20   14    7 ar   
    21   15    7 ar   
    22   16    7 ar   
    23   23    9 1    
    24   24   10 1    
    25   25   11 1    
    26   26   12 1    
    27   27   13 1    
@<TRIPOS>SUBSTRUCTURE
     1 IPD281      1 GROUP   
@<TRIPOS>SET

