#    Name: 3el1_DR7_1_INTS_M
#    Modification time : Tue Mar 25 02:04:00 2014

@<TRIPOS>MOLECULE
3el1_DR7_1_INTS_M
  117     0     9     0     0
SMALL
NO_CHARGES


@<TRIPOS>ATOM
      1 CA         22.8255   23.0570   10.2165 C.3       3 GLC5        0.0000 
      2 CA         21.4750   24.0530    8.9880 C.3       9 GLL5        0.0000 
      3 CA         24.1760   22.0610   11.4450 C.3       6 GLP5        0.0000 
      4 N          22.8335   24.3840   12.4835 N.am      2 SEC2        0.0000 
      5 N          21.8660   25.1620   11.6120 N.am      8 SEL2        0.0000 
      6 N          23.8010   23.6060   13.3550 N.am      5 SEP2        0.0000 
      7 O          21.7960   27.9000    9.2425 O.2       1 ALC1        0.0000 
      8 O          21.8790   27.2110   10.5900 O.2       7 ALL1        0.0000 
      9 O          21.7130   28.5890    7.8950 O.2       4 ALP1        0.0000 
     10 CA         22.8340   26.7460   13.2560 C.3       3 GLC5        0.0000 
     11 CA         22.4320   28.1380   11.5540 C.3       9 GLL5        0.0000 
     12 CA         23.2360   25.3540   14.9580 C.3       6 GLP5        0.0000 
     13 CA         24.3405   31.0135   10.9910 C.3       3 GLC5        0.0000 
     14 CA         24.4310   29.2030   10.6690 C.3       9 GLL5        0.0000 
     15 CA         24.2500   32.8240   11.3130 C.3       6 GLP5        0.0000 
     16 CA         26.4685   29.1950   11.2855 C.3       3 GLC5        0.0000 
     17 CA         28.5060   29.1870   11.9020 C.3       6 GLP5        0.0000 
     18 CA         25.9730   29.3190    9.5970 C.3       3 GLC5        0.0000 
     19 CA         27.5150   29.4350    8.5250 C.3       6 GLP5        0.0000 
     20 CA         26.3835   25.7510   11.4170 C.3       3 GLC5        0.0000 
     21 CA         24.6550   26.9290   11.6700 C.3       9 GLL5        0.0000 
     22 CA         28.1120   24.5730   11.1640 C.3       6 GLP5        0.0000 
     23 CA         26.5805   28.0580   11.7860 C.3       3 GLC5        0.0000 
     24 CA         24.2500   30.8680   12.2145 C.3       3 GLC5        0.0000 
     25 CA         24.2500   28.9120   13.1160 C.3       9 GLL5        0.0000 
     26 CA         26.3780   29.0495   12.5090 C.3       3 GLC5        0.0000 
     27 CA         25.0570   30.3540   14.2160 C.3       3 GLC5        0.0000 
     28 CA         25.8640   31.7960   15.3160 C.3       6 GLP5        0.0000 
     29 O          20.6490   27.1580   13.9605 O.2       1 ALC1        0.0000 
     30 O          20.8200   28.6540   13.3250 O.2       7 ALL1        0.0000 
     31 O          20.4780   25.6620   14.5960 O.2       4 ALP1        0.0000 
     32 CA         17.5965   26.5195   14.4115 C.3       3 GLC5        0.0000 
     33 CA         18.4470   28.4750   13.8000 C.3       9 GLL5        0.0000 
     34 CA         16.7460   24.5640   15.0230 C.3       6 GLP5        0.0000 
     35 CA         17.6545   25.7585   13.4085 C.3       3 GLC5        0.0000 
     36 CA         18.5630   26.9530   11.7940 C.3       9 GLL5        0.0000 
     37 N          20.9940   28.1230   17.3310 N.am      2 SEC2        0.0000 
     38 N          20.2070   28.4870   16.1560 N.am      8 SEL2        0.0000 
     39 N          21.7810   27.7590   18.5060 N.am      5 SEP2        0.0000 
     40 O          18.9330   28.5125   16.6760 O.2       1 ALC1        0.0000 
     41 O          20.2070   28.4870   16.1560 O.2       7 ALL1        0.0000 
     42 O          17.6590   28.5380   17.1960 O.2       4 ALP1        0.0000 
     43 O          19.6240   28.1200   17.4235 O.2       1 ALC1        0.0000 
     44 O          19.0410   27.7530   18.6910 O.2       4 ALP1        0.0000 
     45 O          20.0415   32.3990   17.5575 O.2       1 ALC1        0.0000 
     46 O          19.9490   32.6100   15.9460 O.2       7 ALL1        0.0000 
     47 O          20.1340   32.1880   19.1690 O.2       4 ALP1        0.0000 
     48 CA         17.6920   32.9140   18.0910 C.3       3 GLC5        0.0000 
     49 CA         17.9580   33.9140   16.3200 C.3       9 GLL5        0.0000 
     50 CA         17.4260   31.9140   19.8620 C.3       6 GLP5        0.0000 
     51 CA         14.5030   35.6575   14.3150 C.3       3 GLC5        0.0000 
     52 CA         16.3870   34.8830   14.5860 C.3       9 GLL5        0.0000 
     53 CA         12.6190   36.4320   14.0440 C.3       6 GLP5        0.0000 
     54 CA         18.1170   35.3780   13.4180 C.3       3 GLC5        0.0000 
     55 CA         19.8470   35.8730   12.2500 C.3       6 GLP5        0.0000 
     56 CA         13.9215   33.0430   15.5100 C.3       3 GLC5        0.0000 
     57 CA         16.0200   32.5850   15.4520 C.3       9 GLL5        0.0000 
     58 CA         11.8230   33.5010   15.5680 C.3       6 GLP5        0.0000 
     59 CA         15.2555   30.9865   14.7150 C.3       3 GLC5        0.0000 
     60 CA         14.4910   29.3880   13.9780 C.3       6 GLP5        0.0000 
     61 CA         14.0465   35.1065   18.2860 C.3       3 GLC5        0.0000 
     62 CA         15.6310   34.5710   16.9140 C.3       9 GLL5        0.0000 
     63 CA         12.4620   35.6420   19.6580 C.3       6 GLP5        0.0000 
     64 CA         13.7270   34.0360   16.2410 C.3       3 GLC5        0.0000 
     65 O          18.5505   36.2950   15.4115 O.2       1 ALC1        0.0000 
     66 O          18.4860   35.2380   16.5560 O.2       7 ALL1        0.0000 
     67 O          18.6150   37.3520   14.2670 O.2       4 ALP1        0.0000 
     68 N          17.5300   34.6490   19.9125 N.am      2 SEC2        0.0000 
     69 N          18.1830   35.3140   18.8020 N.am      8 SEL2        0.0000 
     70 N          16.8770   33.9840   21.0230 N.am      5 SEP2        0.0000 
     71 CA         18.0750   37.0150   20.4155 C.3       3 GLC5        0.0000 
     72 CA         19.6090   37.7430   18.9590 C.3       9 GLL5        0.0000 
     73 CA         16.5410   36.2870   21.8720 C.3       6 GLP5        0.0000 
     74 CA         23.2690   32.7380   13.3320 C.3       3 GLC5        0.0000 
     75 CA         22.2880   32.6520   15.3510 C.3       9 GLL5        0.0000 
     76 CA         23.1040   33.3885   18.7715 C.3       3 GLC5        0.0000 
     77 CA         22.2600   34.4410   17.1290 C.3       9 GLL5        0.0000 
     78 CA         23.9480   32.3360   20.4140 C.3       6 GLP5        0.0000 
     79 CA         24.3645   39.6705   16.9485 C.3       3 GLC5        0.0000 
     80 CA         22.9130   39.8500   18.4980 C.3       9 GLL5        0.0000 
     81 CA         25.8160   39.4910   15.3990 C.3       6 GLP5        0.0000 
     82 N          22.5235   38.0035   19.5620 N.am      2 SEC2        0.0000 
     83 N          22.8900   38.5860   18.0540 N.am      8 SEL2        0.0000 
     84 N          22.1570   37.4210   21.0700 N.am      5 SEP2        0.0000 
     85 CA         24.2931   27.2849   13.9220 C.3       3 GLC5        0.0000 
     86 CA         24.3150   26.3150   15.4260 C.3       6 GLP5        0.0000 
     87 CA         16.3940   26.9055   11.7093 C.3       3 GLC5        0.0000 
     88 CA         18.1730   28.1730   12.3410 C.3       9 GLL5        0.0000 
     89 CA         14.4200   26.2480   11.3510 C.3       6 GLP5        0.0000 
     90 CA         16.2050   26.6925   10.7018 C.3       3 GLC5        0.0000 
     91 CA         18.3150   26.6700   10.4520 C.3       9 GLL5        0.0000 
     92 CA         16.0912   28.2223    8.6600 C.3       3 GLC5        0.0000 
     93 CA         17.6650   27.6040    9.6530 C.3       9 GLL5        0.0000 
     94 CA         14.7140   28.2310    7.3960 C.3       6 GLP5        0.0000 
     95 CA         15.9078   27.6062   11.1088 C.3       3 GLC5        0.0000 
     96 CA         17.2720   28.8230   10.1950 C.3       9 GLL5        0.0000 
     97 CA         16.5687   30.6852   10.8493 C.3       3 GLC5        0.0000 
     98 CA         15.7420   32.4060   10.8320 C.3       6 GLP5        0.0000 
     99 CA         16.2028   29.0515   13.1411 C.3       3 GLC5        0.0000 
    100 CA         17.5190   29.1060   11.5380 C.3       9 GLL5        0.0000 
    101 CA         18.8879   29.7604    9.6900 C.3       3 GLC5        0.0000 
    102 CA         20.2820   30.8610    8.6490 C.3       6 GLP5        0.0000 
    103 CA         15.6624   33.0733   13.7489 C.3       3 GLC5        0.0000 
    104 CA         15.0890   32.6370   12.1730 C.3       6 GLP5        0.0000 
    105 CA         16.1342   32.5085   17.7376 C.3       3 GLC5        0.0000 
    106 CA         16.3190   31.0890   19.2030 C.3       6 GLP5        0.0000 
    107 CA         24.0617   32.5868   15.4408 C.3       3 GLC5        0.0000 
    108 CA         22.2310   34.1030   15.7800 C.3       9 GLL5        0.0000 
    109 CA         24.1183   34.7245   17.1148 C.3       3 GLC5        0.0000 
    110 CA         25.9910   35.1770   17.7750 C.3       6 GLP5        0.0000 
    111 CA         21.0065   35.8257   13.6320 C.3       3 GLC5        0.0000 
    112 CA         22.1840   35.1100   14.8210 C.3       9 GLL5        0.0000 
    113 CA         23.6085   37.0588   14.9655 C.3       3 GLC5        0.0000 
    114 CA         25.0510   38.3390   14.9170 C.3       6 GLP5        0.0000 
    115 CA         24.0910   35.7295   17.4060 C.3       3 GLC5        0.0000 
    116 CA         22.1610   36.7870   16.5570 C.3       9 GLL5        0.0000 
    117 CA         23.4014   38.3341   15.7338 C.3       3 GLC5        0.0000 
@<TRIPOS>BOND
@<TRIPOS>SUBSTRUCTURE
     1 ALC1        7 GROUP        1 X    ALC  0     ROOT ALC X 1
     2 SEC2        4 GROUP        1 X    SEC  0     **** SEC X 2
     3 GLC5        1 GROUP        1 X    GLC  0     **** GLC X 6
     4 ALP1        9 GROUP        1 Y    ALP  0     ROOT ALP Y 8
     5 SEP2        6 GROUP        1 Y    SEP  0     **** SEP Y 9
     6 GLP5        3 GROUP        1 Y    GLP  0     **** GLP Y 13
     7 ALL1        8 GROUP        1 Z    ALL  0     ROOT ALL Z 15
     8 SEL2        5 GROUP        1 Z    SEL  0     **** SEL Z 16
     9 GLL5        2 GROUP        1 Z    GLL  0     **** GLL Z 20
@<TRIPOS>SET

