#    Name: 3el1_DR7_1_ligand
#    Modification time : Tue Mar 25 02:04:00 2014

@<TRIPOS>MOLECULE
3el1_DR7_1_ligand
  104   106     1     0     0
SMALL
NO_CHARGES


@<TRIPOS>ATOM
      1 CAA        21.4750   24.0530    8.9880 C.3       1 DR7100      0.0000 
      2 OBI        21.1020   25.3620    9.4340 O.3       1 DR7100      0.0000 
      3 CBK        21.6540   25.9040   10.6610 C.2       1 DR7100      0.0000 
      4 OAI        21.8660   25.1620   11.6120 O.2       1 DR7100      0.0000 
      5 N          21.8790   27.2110   10.5900 N.am      1 DR7100      0.0000 
      6 CA         22.4320   28.1380   11.5540 C.3       1 DR7100      0.0000 
      7 CB         23.9300   28.2660   11.7700 C.3       1 DR7100      0.0000 
      8 CAE        24.4310   29.2030   10.6690 C.3       1 DR7100      0.0000 
      9 CG2        24.6550   26.9290   11.6700 C.3       1 DR7100      0.0000 
     10 CG1        24.2500   28.9120   13.1160 C.3       1 DR7100      0.0000 
     11 C          21.4950   29.1090   12.2540 C.2       1 DR7100      0.0000 
     12 O          21.3450   30.2100   11.7620 O.2       1 DR7100      0.0000 
     13 NBG        20.8200   28.6540   13.3250 N.am      1 DR7100      0.0000 
     14 CBT        19.6970   29.3480   13.9410 C.3       1 DR7100      0.0000 
     15 CBA        18.4470   28.4750   13.8000 C.3       1 DR7100      0.0000 
     16 CBO        18.1730   28.1730   12.3410 C.ar      1 DR7100      0.0000 
     17 CAT        18.5630   26.9530   11.7940 C.ar      1 DR7100      0.0000 
     18 CAP        18.3150   26.6700   10.4520 C.ar      1 DR7100      0.0000 
     19 CAN        17.6650   27.6040    9.6530 C.ar      1 DR7100      0.0000 
     20 CAQ        17.2720   28.8230   10.1950 C.ar      1 DR7100      0.0000 
     21 CAU        17.5190   29.1060   11.5380 C.ar      1 DR7100      0.0000 
     22 CBS        19.9610   29.6870   15.4110 C.3       1 DR7100      0.0000 
     23 OAM        20.2070   28.4870   16.1560 O.3       1 DR7100      0.0000 
     24 CBC        21.1580   30.5960   15.6350 C.3       1 DR7100      0.0000 
     25 NBW        20.9710   31.9840   15.1870 N.4       1 DR7100      0.0000 
     26 NBH        19.9490   32.6100   15.9460 N.am      1 DR7100      0.0000 
     27 CBN        18.9190   33.2460   15.3720 C.2       1 DR7100      0.0000 
     28 OAL        18.7720   33.3410   14.1660 O.2       1 DR7100      0.0000 
     29 CBV        17.9580   33.9140   16.3200 C.3       1 DR7100      0.0000 
     30 CBY        16.5160   33.9850   15.8090 C.3       1 DR7100      0.0000 
     31 CAH        16.3870   34.8830   14.5860 C.3       1 DR7100      0.0000 
     32 CAF        16.0200   32.5850   15.4520 C.3       1 DR7100      0.0000 
     33 CAG        15.6310   34.5710   16.9140 C.3       1 DR7100      0.0000 
     34 NBF        18.4860   35.2380   16.5560 N.am      1 DR7100      0.0000 
     35 CBL        18.5690   35.8170   17.7480 C.2       1 DR7100      0.0000 
     36 OAJ        18.1830   35.3140   18.8020 O.2       1 DR7100      0.0000 
     37 OBJ        19.1720   37.1370   17.7390 O.3       1 DR7100      0.0000 
     38 CAB        19.6090   37.7430   18.9590 C.3       1 DR7100      0.0000 
     39 CBB        22.2880   32.6520   15.3510 C.3       1 DR7100      0.0000 
     40 CBP        22.2310   34.1030   15.7800 C.ar      1 DR7100      0.0000 
     41 CAW        22.1840   35.1100   14.8210 C.ar      1 DR7100      0.0000 
     42 CAY        22.1480   36.4470   15.2070 C.ar      1 DR7100      0.0000 
     43 CAX        22.2600   34.4410   17.1290 C.ar      1 DR7100      0.0000 
     44 CAZ        22.2210   35.7770   17.5170 C.ar      1 DR7100      0.0000 
     45 CBQ        22.1610   36.7870   16.5570 C.ar      1 DR7100      0.0000 
     46 CBR        22.1340   38.2140   16.9910 C.ar      1 DR7100      0.0000 
     47 CAV        21.3560   39.1580   16.3270 C.ar      1 DR7100      0.0000 
     48 CAR        21.3680   40.4780   16.7660 C.ar      1 DR7100      0.0000 
     49 CAO        22.1510   40.8260   17.8610 C.ar      1 DR7100      0.0000 
     50 CAS        22.9130   39.8500   18.4980 C.ar      1 DR7100      0.0000 
     51 NBD        22.8900   38.5860   18.0540 N.ar      1 DR7100      0.0000 
     52 H          21.6085   27.7190    9.6395 H         1 DR7100      0.0000 
     53 H          22.3135   27.2134   12.6103 H         1 DR7100      0.0000 
     54 H          21.0866   27.7396   13.7810 H         1 DR7100      0.0000 
     55 H          19.5007   30.2794   13.4085 H         1 DR7100      0.0000 
     56 H          17.5970   29.0006   14.2310 H         1 DR7100      0.0000 
     57 H          18.6010   27.5449   14.3438 H         1 DR7100      0.0000 
     58 H          19.0378   26.2550   12.3847 H         1 DR7100      0.0000 
     59 H          18.6132   25.7704   10.0543 H         1 DR7100      0.0000 
     60 H          17.4756   27.3945    8.6657 H         1 DR7100      0.0000 
     61 H          16.7973   29.5195    9.6046 H         1 DR7100      0.0000 
     62 H          17.2180   30.0046   11.9363 H         1 DR7100      0.0000 
     63 H          19.0803   30.1882   15.8117 H         1 DR7100      0.0000 
     64 H          22.0357   30.1445   15.1198 H         1 DR7100      0.0000 
     65 H          21.4083   30.5764   16.7197 H         1 DR7100      0.0000 
     66 H          20.7284   31.9677   14.1297 H         1 DR7100      0.0000 
     67 H          20.0328   32.5544   16.9898 H         1 DR7100      0.0000 
     68 H          17.9663   33.3565   17.2575 H         1 DR7100      0.0000 
     69 H          18.8199   35.7470   15.6833 H         1 DR7100      0.0000 
     70 H          22.8577   32.5905   14.3947 H         1 DR7100      0.0000 
     71 H          22.9001   32.0898   16.0940 H         1 DR7100      0.0000 
     72 H          22.1758   34.8653   13.8204 H         1 DR7100      0.0000 
     73 H          22.1117   37.1866   14.4922 H         1 DR7100      0.0000 
     74 H          22.3105   33.7010   17.8428 H         1 DR7100      0.0000 
     75 H          22.2364   36.0222   18.5167 H         1 DR7100      0.0000 
     76 H          20.7825   38.8842   15.5260 H         1 DR7100      0.0000 
     77 H          20.8052   41.1867   16.2868 H         1 DR7100      0.0000 
     78 H          22.1678   41.7937   18.1976 H         1 DR7100      0.0000 
     79 H          23.4904   40.1251   19.3139 H         1 DR7100      0.0000 
     80 H          22.4593   23.9822    8.8262 H         1 DR7100      0.0000 
     81 H          21.2369   23.3503    9.6585 H         1 DR7100      0.0000 
     82 H          21.0190   23.8082    8.1324 H         1 DR7100      0.0000 
     83 H          25.4186   29.3491   10.7266 H         1 DR7100      0.0000 
     84 H          24.2413   28.8393    9.7570 H         1 DR7100      0.0000 
     85 H          23.9980   30.1028   10.7216 H         1 DR7100      0.0000 
     86 H          25.6393   27.0284   11.8158 H         1 DR7100      0.0000 
     87 H          24.3227   26.2746   12.3492 H         1 DR7100      0.0000 
     88 H          24.5330   26.5066   10.7718 H         1 DR7100      0.0000 
     89 H          25.2355   29.0010   13.2603 H         1 DR7100      0.0000 
     90 H          23.8589   29.8294   13.1900 H         1 DR7100      0.0000 
     91 H          23.8891   28.3770   13.8799 H         1 DR7100      0.0000 
     92 H          16.6728   35.8210   14.7822 H         1 DR7100      0.0000 
     93 H          16.9495   34.5582   13.8257 H         1 DR7100      0.0000 
     94 H          15.4443   34.9269   14.2552 H         1 DR7100      0.0000 
     95 H          16.5818   32.1620   14.7410 H         1 DR7100      0.0000 
     96 H          16.0369   31.9723   16.2421 H         1 DR7100      0.0000 
     97 H          15.0795   32.5996   15.1124 H         1 DR7100      0.0000 
     98 H          15.6477   34.0085   17.7406 H         1 DR7100      0.0000 
     99 H          15.9260   35.4892   17.1783 H         1 DR7100      0.0000 
    100 H          14.6758   34.6414   16.6266 H         1 DR7100      0.0000 
    101 H          20.3054   37.1920   19.4188 H         1 DR7100      0.0000 
    102 H          20.0066   38.6472   18.8030 H         1 DR7100      0.0000 
    103 H          18.8553   37.8618   19.6054 H         1 DR7100      0.0000 
    104 H          19.3458   28.2931   16.6258 H         1 DR7100      0.0000 
@<TRIPOS>BOND
     1    2    1 1    
     2   80    1 1    
     3   81    1 1    
     4   82    1 1    
     5    3    2 1    
     6    4    3 2    
     7    5    3 am   
     8    6    5 1    
     9   52    5 1    
    10    7    6 1    
    11   11    6 1    
    12   53    6 1    
    13    8    7 1    
    14    9    7 1    
    15   10    7 1    
    16   83    8 1    
    17   84    8 1    
    18   85    8 1    
    19   86    9 1    
    20   87    9 1    
    21   88    9 1    
    22   89   10 1    
    23   90   10 1    
    24   91   10 1    
    25   12   11 2    
    26   13   11 am   
    27   14   13 1    
    28   54   13 1    
    29   15   14 1    
    30   22   14 1    
    31   55   14 1    
    32   16   15 1    
    33   56   15 1    
    34   57   15 1    
    35   17   16 ar   
    36   21   16 ar   
    37   18   17 ar   
    38   58   17 1    
    39   19   18 ar   
    40   59   18 1    
    41   20   19 ar   
    42   60   19 1    
    43   21   20 ar   
    44   61   20 1    
    45   62   21 1    
    46   23   22 1    
    47   24   22 1    
    48   63   22 1    
    49  104   23 1    
    50   25   24 1    
    51   64   24 1    
    52   65   24 1    
    53   26   25 1    
    54   39   25 1    
    55   66   25 1    
    56   27   26 am   
    57   67   26 1    
    58   28   27 2    
    59   29   27 1    
    60   30   29 1    
    61   34   29 1    
    62   68   29 1    
    63   31   30 1    
    64   32   30 1    
    65   33   30 1    
    66   92   31 1    
    67   93   31 1    
    68   94   31 1    
    69   95   32 1    
    70   96   32 1    
    71   97   32 1    
    72   98   33 1    
    73   99   33 1    
    74  100   33 1    
    75   35   34 am   
    76   69   34 1    
    77   36   35 2    
    78   37   35 1    
    79   38   37 1    
    80  101   38 1    
    81  102   38 1    
    82  103   38 1    
    83   40   39 1    
    84   70   39 1    
    85   71   39 1    
    86   41   40 ar   
    87   43   40 ar   
    88   42   41 ar   
    89   72   41 1    
    90   45   42 ar   
    91   73   42 1    
    92   44   43 ar   
    93   74   43 1    
    94   45   44 ar   
    95   75   44 1    
    96   46   45 1    
    97   47   46 ar   
    98   51   46 ar   
    99   48   47 ar   
   100   76   47 1    
   101   49   48 ar   
   102   77   48 1    
   103   50   49 ar   
   104   78   49 1    
   105   51   50 ar   
   106   79   50 1    
@<TRIPOS>SUBSTRUCTURE
     1 DR7100      1 GROUP   
@<TRIPOS>SET

