#    Name: 4BDT_1_CAVITY_N1_ALL.mol2
#    Modification time : Tue Mar 11 19:35:23 2014

@<TRIPOS>MOLECULE
4BDT_1_CAVITY_N1_ALL.mol2
   66     0     6     0     0
SMALL
NO_CHARGES


@<TRIPOS>ATOM
      1 CZ         -2.5082  -34.2846  -50.5500 C.ar      4 PHE5        0.0000 
      2 OG         -3.9430  -34.6405  -50.8045 O.2       1 SER1        0.0000 
      3 CA         -5.4952  -33.8427  -52.0103 C.3       5 GLY6        0.0000 
      4 DU         -5.3777  -34.9965  -51.0591 H         6 CUB7        0.0000 
      5 OG         -5.2602  -36.1503  -50.1079 O.2       1 SER1        0.0000 
      6 CA         -6.9300  -34.1986  -52.2649 C.3       5 GLY6        0.0000 
      7 CA         -6.8125  -35.3525  -51.3137 C.3       5 GLY6        0.0000 
      8 NZ         -6.6950  -36.5063  -50.3624 N.2       3 LYS4        0.0000 
      9 N          -8.3647  -34.5546  -52.5195 N.2       2 ALA2        0.0000 
     10 CA         -8.2472  -35.7084  -51.5682 C.3       5 GLY6        0.0000 
     11 N          -9.7994  -34.9106  -52.7740 N.2       2 ALA2        0.0000 
     12 N          -0.7694  -33.6647  -52.3782 N.2       2 ALA2        0.0000 
     13 N          -0.6519  -34.8185  -51.4269 N.2       2 ALA2        0.0000 
     14 CZ         -2.2042  -34.0207  -52.6327 C.ar      4 PHE5        0.0000 
     15 OG         -2.0867  -35.1745  -51.6815 O.2       1 SER1        0.0000 
     16 CZ         -3.6389  -34.3766  -52.8873 C.ar      4 PHE5        0.0000 
     17 OG         -3.5214  -35.5305  -51.9361 O.2       1 SER1        0.0000 
     18 CA         -5.0737  -34.7326  -53.1419 C.3       5 GLY6        0.0000 
     19 OG         -4.9562  -35.8864  -52.1906 O.2       1 SER1        0.0000 
     20 OG         -4.8387  -37.0403  -51.2394 O.2       1 SER1        0.0000 
     21 CA         -6.6259  -33.9347  -54.3477 C.3       5 GLY6        0.0000 
     22 OG         -6.5084  -35.0886  -53.3964 O.2       1 SER1        0.0000 
     23 OG         -6.3909  -36.2424  -52.4452 O.2       1 SER1        0.0000 
     24 N          -8.0606  -34.2907  -54.6022 N.2       2 ALA2        0.0000 
     25 OG         -7.9432  -35.4445  -53.6510 O.2       1 SER1        0.0000 
     26 N          -0.3479  -34.5546  -53.5097 N.2       2 ALA2        0.0000 
     27 CA         -0.2304  -35.7085  -52.5585 C.3       5 GLY6        0.0000 
     28 CZ         -1.9001  -33.7568  -54.7155 C.ar      4 PHE5        0.0000 
     29 CZ         -1.7826  -34.9106  -53.7643 C.ar      4 PHE5        0.0000 
     30 CA         -1.6651  -36.0644  -52.8130 C.3       5 GLY6        0.0000 
     31 OG         -1.5476  -37.2183  -51.8618 O.2       1 SER1        0.0000 
     32 CZ         -3.3349  -34.1127  -54.9701 C.ar      4 PHE5        0.0000 
     33 CZ         -3.2174  -35.2666  -54.0188 C.ar      4 PHE5        0.0000 
     34 OG         -3.0999  -36.4204  -53.0676 O.2       1 SER1        0.0000 
     35 OG         -2.9824  -37.5742  -52.1163 O.2       1 SER1        0.0000 
     36 CZ         -4.8871  -33.3149  -56.1759 C.ar      4 PHE5        0.0000 
     37 CZ         -4.7696  -34.4687  -55.2246 C.ar      4 PHE5        0.0000 
     38 CA         -4.6521  -35.6225  -54.2734 C.3       5 GLY6        0.0000 
     39 CA         -4.5346  -36.7764  -53.3221 C.3       5 GLY6        0.0000 
     40 OG         -4.4171  -37.9302  -52.3709 O.2       1 SER1        0.0000 
     41 N          -6.3219  -33.6708  -56.4304 N.2       2 ALA2        0.0000 
     42 OG         -6.2044  -34.8247  -55.4792 O.2       1 SER1        0.0000 
     43 CA         -7.7566  -34.0268  -56.6850 C.3       5 GLY6        0.0000 
     44 OG         -7.6391  -35.1806  -55.7337 O.2       1 SER1        0.0000 
     45 OG         -6.2208  -33.2167  -48.7961 O.2       1 SER1        0.0000 
     46 CA         -5.9168  -32.9528  -50.8788 C.3       5 GLY6        0.0000 
     47 CA         -5.7993  -34.1066  -49.9276 C.3       5 GLY6        0.0000 
     48 CA         -7.3515  -33.3087  -51.1334 C.3       5 GLY6        0.0000 
     49 CA         -7.2340  -34.4626  -50.1821 C.3       5 GLY6        0.0000 
     50 NZ          0.0737  -35.4445  -54.6412 N.2       3 LYS4        0.0000 
     51 NZ         -1.4786  -34.6467  -55.8470 N.2       3 LYS4        0.0000 
     52 NZ         -1.3611  -35.8005  -54.8958 N.2       3 LYS4        0.0000 
     53 OG         -1.2436  -36.9543  -53.9445 O.2       1 SER1        0.0000 
     54 CA         -1.1261  -38.1082  -52.9933 C.3       5 GLY6        0.0000 
     55 CZ         -1.0086  -39.2620  -52.0421 C.ar      4 PHE5        0.0000 
     56 N          -2.9133  -35.0026  -56.1016 N.2       2 ALA2        0.0000 
     57 O          -2.7958  -36.1565  -55.1503 O.2       2 ALA2        0.0000 
     58 CA         -2.6783  -37.3103  -54.1991 C.3       5 GLY6        0.0000 
     59 CA         -2.5608  -38.4641  -53.2479 C.3       5 GLY6        0.0000 
     60 OG         -2.4433  -39.6180  -52.2966 O.2       1 SER1        0.0000 
     61 N          -4.4656  -34.2048  -57.3074 N.2       2 ALA2        0.0000 
     62 N          -4.3481  -35.3586  -56.3561 N.2       2 ALA2        0.0000 
     63 CA         -3.9956  -38.8201  -53.5024 C.3       5 GLY6        0.0000 
     64 CA         -5.9003  -34.5607  -57.5619 C.3       5 GLY6        0.0000 
     65 N          -5.7828  -35.7146  -56.6107 N.2       2 ALA2        0.0000 
     66 O          -2.1393  -39.3541  -54.3794 O.2       2 ALA2        0.0000 
@<TRIPOS>BOND
@<TRIPOS>SUBSTRUCTURE
     1 SER1        2 GROUP   
     2 ALA2        9 GROUP   
     3 LYS4        8 GROUP   
     4 PHE5        1 GROUP   
     5 GLY6        3 GROUP   
     6 CUB7        4 GROUP   
@<TRIPOS>SET

