#    Name: 4bdt_HUW_1_INTS_M
#    Modification time : Tue Mar 25 07:33:59 2014

@<TRIPOS>MOLECULE
4bdt_HUW_1_INTS_M
   56     0     9     0     0
SMALL
NO_CHARGES


@<TRIPOS>ATOM
      1 N          -2.7645  -40.4185  -55.1895 N.am      2 SEC2        0.0000 
      2 N          -1.5090  -40.0070  -54.5220 N.am      8 SEL2        0.0000 
      3 N          -4.0200  -40.8300  -55.8570 N.am      5 SEP2        0.0000 
      4 O          -0.5785  -39.6300  -55.1165 O.2       1 ALC1        0.0000 
      5 O          -1.5090  -40.0070  -54.5220 O.2       7 ALL1        0.0000 
      6 O           0.3520  -39.2530  -55.7110 O.2       4 ALP1        0.0000 
      7 CA         -0.9605  -30.8985  -46.2980 C.3       3 GLC5        0.0000 
      8 CA          0.1030  -32.1370  -46.8300 C.3       9 GLL5        0.0000 
      9 CA         -2.0240  -29.6600  -45.7660 C.3       6 GLP5        0.0000 
     10 CA          0.8545  -32.1145  -44.8715 C.3       3 GLC5        0.0000 
     11 CA          1.6060  -32.0920  -42.9130 C.3       6 GLP5        0.0000 
     12 CA          2.1225  -32.3615  -47.1025 C.3       3 GLC5        0.0000 
     13 CA          4.1420  -32.5860  -47.3750 C.3       6 GLP5        0.0000 
     14 CA          0.6005  -30.9385  -48.4305 C.3       3 GLC5        0.0000 
     15 CA          1.0980  -29.7400  -50.0310 C.3       6 GLP5        0.0000 
     16 O           0.7015  -33.8395  -51.4440 O.2       1 ALC1        0.0000 
     17 O          -0.7180  -33.8940  -51.4490 O.2       7 ALL1        0.0000 
     18 O           2.1210  -33.7850  -51.4390 O.2       4 ALP1        0.0000 
     19 O          -5.9140  -34.1105  -49.7285 O.2       1 ALC1        0.0000 
     20 O          -4.7220  -34.4970  -50.9430 O.2       7 ALL1        0.0000 
     21 O          -7.1060  -33.7240  -48.5140 O.2       4 ALP1        0.0000 
     22 CA          1.0815  -33.7720  -53.8605 C.3       3 GLC5        0.0000 
     23 CA         -0.7050  -34.6970  -53.7590 C.3       9 GLL5        0.0000 
     24 CA          2.8680  -32.8470  -53.9620 C.3       6 GLP5        0.0000 
     25 CA         -0.3195  -39.0725  -54.9885 C.3       3 GLC5        0.0000 
     26 CA         -1.3780  -39.6610  -53.1380 C.3       9 GLL5        0.0000 
     27 CA          0.7390  -38.4840  -56.8390 C.3       6 GLP5        0.0000 
     28 CA         -1.9330  -41.5860  -52.7455 C.3       3 GLC5        0.0000 
     29 CA         -2.4880  -43.5110  -52.3530 C.3       6 GLP5        0.0000 
     30 CA          0.1735  -38.6015  -52.7535 C.3       3 GLC5        0.0000 
     31 CA          1.7250  -37.5420  -52.3690 C.3       6 GLP5        0.0000 
     32 CA          0.3140  -36.0457  -52.7465 C.3       3 GLC5        0.0000 
     33 CA         -1.4890  -34.4020  -52.4890 C.3       9 GLL5        0.0000 
     34 CA         -4.5107  -33.0392  -52.5225 C.3       3 GLC5        0.0000 
     35 CA         -2.8160  -34.6100  -52.3590 C.3       9 GLL5        0.0000 
     36 CA         -5.9210  -31.6180  -53.2910 C.3       6 GLP5        0.0000 
     37 CA         -0.1823  -34.0101  -46.9008 C.3       3 GLC5        0.0000 
     38 CA         -0.4210  -33.0930  -49.2740 C.3       9 GLL5        0.0000 
     39 CA          1.0000  -35.1630  -45.7330 C.3       6 GLP5        0.0000 
     40 CA         -1.3735  -33.2345  -54.6578 C.3       3 GLC5        0.0000 
     41 CA         -1.6620  -31.2800  -55.1070 C.3       6 GLP5        0.0000 
     42 CA         -3.0055  -37.4242  -55.2602 C.3       3 GLC5        0.0000 
     43 CA         -1.4650  -35.6810  -54.6580 C.3       9 GLL5        0.0000 
     44 CA         -4.5170  -38.4890  -56.2050 C.3       6 GLP5        0.0000 
     45 CA         -0.3775  -37.4217  -55.5772 C.3       3 GLC5        0.0000 
     46 CA         -1.5230  -37.0380  -53.9730 C.3       9 GLL5        0.0000 
     47 CA         -3.1218  -33.2913  -54.4640 C.3       3 GLC5        0.0000 
     48 CA         -2.8750  -35.0820  -54.8450 C.3       9 GLL5        0.0000 
     49 CA         -2.9860  -31.4510  -54.7510 C.3       6 GLP5        0.0000 
     50 CA         -3.8872  -36.8102  -55.1910 C.3       3 GLC5        0.0000 
     51 CA         -0.1600  -37.2329  -53.0949 C.3       3 GLC5        0.0000 
     52 CA         -2.5960  -37.4880  -53.3260 C.3       9 GLL5        0.0000 
     53 CA         -3.7181  -38.2275  -54.5860 C.3       3 GLC5        0.0000 
     54 CA         -2.6010  -38.8490  -52.6670 C.3       9 GLL5        0.0000 
     55 CA         -0.8217  -39.6235  -51.2648 C.3       3 GLC5        0.0000 
     56 CA          0.3460  -39.9920  -49.6270 C.3       6 GLP5        0.0000 
@<TRIPOS>BOND
@<TRIPOS>SUBSTRUCTURE
     1 ALC1        4 GROUP        1 X    ALC  0     ROOT ALC X 1
     2 SEC2        1 GROUP        1 X    SEC  0     **** SEC X 2
     3 GLC5        7 GROUP        1 X    GLC  0     **** GLC X 6
     4 ALP1        6 GROUP        1 Y    ALP  0     ROOT ALP Y 8
     5 SEP2        3 GROUP        1 Y    SEP  0     **** SEP Y 9
     6 GLP5        9 GROUP        1 Y    GLP  0     **** GLP Y 13
     7 ALL1        5 GROUP        1 Z    ALL  0     ROOT ALL Z 15
     8 SEL2        2 GROUP        1 Z    SEL  0     **** SEL Z 16
     9 GLL5        8 GROUP        1 Z    GLL  0     **** GLL Z 20
@<TRIPOS>SET

