#    Name: 4bdt_HUW_1_ligand
#    Modification time : Tue Mar 25 07:33:59 2014

@<TRIPOS>MOLECULE
4bdt_HUW_1_ligand
   42    45     1     0     0
SMALL
NO_CHARGES


@<TRIPOS>ATOM
      1 O1         -1.5090  -40.0070  -54.5220 O.3       1 HUW701      0.0000 
      2 CL1         0.1030  -32.1370  -46.8300 Cl        1 HUW701      0.0000 
      3 C1         -0.9500  -32.7670  -48.0350 C.ar      1 HUW701      0.0000 
      4 N1         -0.7180  -33.8940  -51.4490 N.pl3     1 HUW701      0.0000 
      5 C3         -1.2590  -33.5940  -50.2580 C.ar      1 HUW701      0.0000 
      6 C4         -1.4890  -34.4020  -52.4890 C.ar      1 HUW701      0.0000 
      7 N2         -4.7220  -34.4970  -50.9430 N.pl3     1 HUW701      0.0000 
      8 C14        -3.3850  -34.3110  -51.1490 C.ar      1 HUW701      0.0000 
      9 C2         -0.4210  -33.0930  -49.2740 C.ar      1 HUW701      0.0000 
     10 C17        -2.3070  -32.9420  -47.7840 C.ar      1 HUW701      0.0000 
     11 C15        -2.6230  -33.7830  -50.0390 C.ar      1 HUW701      0.0000 
     12 C5         -0.7050  -34.6970  -53.7590 C.3       1 HUW701      0.0000 
     13 C13        -2.8160  -34.6100  -52.3590 C.ar      1 HUW701      0.0000 
     14 C6         -1.4650  -35.6810  -54.6580 C.3       1 HUW701      0.0000 
     15 C7         -1.5230  -37.0380  -53.9730 C.2       1 HUW701      0.0000 
     16 C12        -2.8750  -35.0820  -54.8450 C.3       1 HUW701      0.0000 
     17 C8         -2.5960  -37.4880  -53.3260 C.2       1 HUW701      0.0000 
     18 C9         -3.8790  -36.6780  -53.2080 C.3       1 HUW701      0.0000 
     19 C18        -2.6010  -38.8490  -52.6670 C.3       1 HUW701      0.0000 
     20 C11        -3.6400  -35.1810  -53.5090 C.3       1 HUW701      0.0000 
     21 C10        -1.3780  -39.6610  -53.1380 C.3       1 HUW701      0.0000 
     22 C16        -3.1490  -33.4470  -48.7790 C.ar      1 HUW701      0.0000 
     23 H           0.3045  -33.7501  -51.6199 H         1 HUW701      0.0000 
     24 H          -5.2456  -34.8314  -51.7266 H         1 HUW701      0.0000 
     25 H          -5.0601  -34.2824  -50.0267 H         1 HUW701      0.0000 
     26 H           0.5783  -32.9651  -49.4605 H         1 HUW701      0.0000 
     27 H          -2.6958  -32.6995  -46.8625 H         1 HUW701      0.0000 
     28 H           0.2608  -35.1284  -53.4983 H         1 HUW701      0.0000 
     29 H          -0.5397  -33.7706  -54.3079 H         1 HUW701      0.0000 
     30 H          -0.9813  -35.7435  -55.5899 H         1 HUW701      0.0000 
     31 H          -0.6378  -37.5861  -54.0583 H         1 HUW701      0.0000 
     32 H          -3.4021  -35.6409  -55.5999 H         1 HUW701      0.0000 
     33 H          -2.7873  -34.0469  -55.1298 H         1 HUW701      0.0000 
     34 H          -4.2790  -36.7712  -52.1969 H         1 HUW701      0.0000 
     35 H          -4.6200  -37.0615  -53.9114 H         1 HUW701      0.0000 
     36 H          -3.5027  -39.3878  -52.9368 H         1 HUW701      0.0000 
     37 H          -2.5528  -38.7387  -51.5891 H         1 HUW701      0.0000 
     38 H          -4.5665  -34.6920  -53.5818 H         1 HUW701      0.0000 
     39 H          -0.4863  -39.0487  -52.9536 H         1 HUW701      0.0000 
     40 H          -1.3092  -40.5511  -52.5001 H         1 HUW701      0.0000 
     41 H          -4.1481  -33.5735  -48.5942 H         1 HUW701      0.0000 
     42 H          -1.0084  -39.2955  -55.0150 H         1 HUW701      0.0000 
@<TRIPOS>BOND
     1   21    1 1    
     2   42    1 1    
     3    3    2 1    
     4    9    3 ar   
     5   10    3 ar   
     6    5    4 ar   
     7    6    4 ar   
     8   23    4 1    
     9    9    5 ar   
    10   11    5 ar   
    11   12    6 1    
    12   13    6 ar   
    13    8    7 1    
    14   24    7 1    
    15   25    7 1    
    16   11    8 ar   
    17   13    8 ar   
    18   26    9 1    
    19   22   10 ar   
    20   27   10 1    
    21   22   11 ar   
    22   14   12 1    
    23   28   12 1    
    24   29   12 1    
    25   20   13 1    
    26   15   14 1    
    27   16   14 1    
    28   30   14 1    
    29   17   15 2    
    30   31   15 1    
    31   20   16 1    
    32   32   16 1    
    33   33   16 1    
    34   18   17 1    
    35   19   17 1    
    36   20   18 1    
    37   34   18 1    
    38   35   18 1    
    39   21   19 1    
    40   36   19 1    
    41   37   19 1    
    42   38   20 1    
    43   39   21 1    
    44   40   21 1    
    45   41   22 1    
@<TRIPOS>SUBSTRUCTURE
     1 HUW701      1 GROUP   
@<TRIPOS>SET

