#    Name: 2izs_BRQ_1_INTS_M
#    Modification time : Tue Mar 25 19:01:50 2014

@<TRIPOS>MOLECULE
2izs_BRQ_1_INTS_M
   64     0     9     0     0
SMALL
NO_CHARGES


@<TRIPOS>ATOM
      1 CA         32.3645  -17.9425   29.4095 C.3       3 GLC5        0.0000 
      2 CA         33.9120  -18.9520   28.4720 C.3       9 GLL5        0.0000 
      3 CA         30.8170  -16.9330   30.3470 C.3       6 GLP5        0.0000 
      4 CA         30.8725  -19.7040   27.7080 C.3       3 GLC5        0.0000 
      5 CA         32.1270  -20.9810   28.3560 C.3       9 GLL5        0.0000 
      6 CA         29.6180  -18.4270   27.0600 C.3       6 GLP5        0.0000 
      7 CA         31.0195  -22.4140   27.8760 C.3       3 GLC5        0.0000 
      8 CA         29.9120  -23.8470   27.3960 C.3       6 GLP5        0.0000 
      9 CA         32.2545  -22.1085   29.7555 C.3       3 GLC5        0.0000 
     10 CA         32.3820  -23.2360   31.1550 C.3       6 GLP5        0.0000 
     11 CA         36.3590  -17.7400   29.7535 C.3       3 GLC5        0.0000 
     12 CA         35.1240  -18.3530   28.1770 C.3       9 GLL5        0.0000 
     13 CA         37.5940  -17.1270   31.3300 C.3       6 GLP5        0.0000 
     14 O          34.4675  -16.8770   29.7230 O.2       1 ALC1        0.0000 
     15 O          35.3210  -17.1590   28.6640 O.2       7 ALL1        0.0000 
     16 O          33.6140  -16.5950   30.7820 O.2       4 ALP1        0.0000 
     17 CA         37.7850  -17.1455   25.6620 C.3       3 GLC5        0.0000 
     18 CA         36.4640  -16.1760   26.3380 C.3       9 GLL5        0.0000 
     19 CA         39.1060  -18.1150   24.9860 C.3       6 GLP5        0.0000 
     20 N          35.4270  -14.6825   29.9105 N.am      2 SEC2        0.0000 
     21 N          36.0470  -14.9840   28.6120 N.am      8 SEL2        0.0000 
     22 N          34.8070  -14.3810   31.2090 N.am      5 SEP2        0.0000 
     23 CA         34.8880  -13.6950   28.8090 C.3       3 GLC5        0.0000 
     24 CA         36.6090  -14.0930   27.7960 C.3       9 GLL5        0.0000 
     25 CA         33.1670  -13.2970   29.8220 C.3       6 GLP5        0.0000 
     26 O          37.0725  -12.4315   29.5555 O.2       1 ALC1        0.0000 
     27 O          36.8330  -12.8850   28.2410 O.2       7 ALL1        0.0000 
     28 O          37.3120  -11.9780   30.8700 O.2       4 ALP1        0.0000 
     29 CA         38.8660  -15.5235   26.2285 C.3       3 GLC5        0.0000 
     30 CA         36.9030  -14.5610   26.4860 C.3       9 GLL5        0.0000 
     31 CA         40.8290  -16.4860   25.9710 C.3       6 GLP5        0.0000 
     32 CA         35.8335  -13.4795   25.0300 C.3       3 GLC5        0.0000 
     33 CA         34.7640  -12.3980   23.5740 C.3       6 GLP5        0.0000 
     34 CA         40.6860  -13.3290   22.2505 C.3       3 GLC5        0.0000 
     35 CA         39.5390  -15.0420   22.3890 C.3       9 GLL5        0.0000 
     36 CA         41.8330  -11.6160   22.1120 C.3       6 GLP5        0.0000 
     37 CA         40.0385  -15.4540   24.7810 C.3       3 GLC5        0.0000 
     38 CA         39.2480  -14.4220   23.5910 C.3       9 GLL5        0.0000 
     39 CA         40.8005  -13.5265   23.9930 C.3       3 GLC5        0.0000 
     40 CA         42.3530  -12.6310   24.3950 C.3       6 GLP5        0.0000 
     41 CA         33.7888  -20.9463   29.9637 C.3       3 GLC5        0.0000 
     42 CA         33.6520  -20.2220   27.9990 C.3       9 GLL5        0.0000 
     43 CA         34.6880  -21.2910   31.7500 C.3       6 GLP5        0.0000 
     44 CA         36.2417  -21.4010   25.4967 C.3       3 GLC5        0.0000 
     45 CA         34.6080  -20.8600   27.2320 C.3       9 GLL5        0.0000 
     46 CA         37.2630  -22.2350   23.9090 C.3       6 GLP5        0.0000 
     47 CA         35.6752  -21.6845   28.8008 C.3       3 GLC5        0.0000 
     48 CA         35.8330  -20.2740   26.9370 C.3       9 GLL5        0.0000 
     49 CA         36.1300  -22.8020   30.5170 C.3       6 GLP5        0.0000 
     50 CA         37.6650  -19.7223   27.9845 C.3       3 GLC5        0.0000 
     51 CA         39.3650  -19.8050   28.7870 C.3       6 GLP5        0.0000 
     52 CA         37.5355  -18.8772   26.0840 C.3       3 GLC5        0.0000 
     53 CA         36.0970  -19.0050   27.4270 C.3       9 GLL5        0.0000 
     54 CA         35.6442  -19.7074   29.6259 C.3       3 GLC5        0.0000 
     55 CA         35.9810  -20.5860   31.3760 C.3       6 GLP5        0.0000 
     56 CA         38.3945  -14.3735   28.2245 C.3       3 GLC5        0.0000 
     57 CA         40.0330  -14.4200   29.3080 C.3       6 GLP5        0.0000 
     58 CA         34.8351  -14.5424   26.7245 C.3       3 GLC5        0.0000 
     59 CA         33.0240  -14.3540   26.3450 C.3       6 GLP5        0.0000 
     60 CA         38.2677  -16.4585   24.3583 C.3       3 GLC5        0.0000 
     61 CA         36.9220  -15.1360   23.3780 C.3       9 GLL5        0.0000 
     62 CA         36.0469  -13.8448   23.2671 C.3       3 GLC5        0.0000 
     63 CA         37.2300  -15.7810   22.1900 C.3       9 GLL5        0.0000 
     64 CA         38.9085  -16.7560   23.5764 C.3       3 GLC5        0.0000 
@<TRIPOS>BOND
@<TRIPOS>SUBSTRUCTURE
     1 ALC1       14 GROUP        1 X    ALC  0     ROOT ALC X 1
     2 SEC2       20 GROUP        1 X    SEC  0     **** SEC X 2
     3 GLC5        1 GROUP        1 X    GLC  0     **** GLC X 6
     4 ALP1       16 GROUP        1 Y    ALP  0     ROOT ALP Y 8
     5 SEP2       22 GROUP        1 Y    SEP  0     **** SEP Y 9
     6 GLP5        3 GROUP        1 Y    GLP  0     **** GLP Y 13
     7 ALL1       15 GROUP        1 Z    ALL  0     ROOT ALL Z 15
     8 SEL2       21 GROUP        1 Z    SEL  0     **** SEL Z 16
     9 GLL5        2 GROUP        1 Z    GLL  0     **** GLL Z 20
@<TRIPOS>SET

