#    Name: 2izs_BRQ_1_ligand
#    Modification time : Tue Mar 25 19:01:50 2014

@<TRIPOS>MOLECULE
2izs_BRQ_1_ligand
   34    36     1     0     0
SMALL
NO_CHARGES


@<TRIPOS>ATOM
      1 CAL        33.9120  -18.9520   28.4720 C.ar      1 BRQ1334     0.0000 
      2 CAS        33.6520  -20.2220   27.9990 C.ar      1 BRQ1334     0.0000 
      3 CL         32.1270  -20.9810   28.3560 Cl        1 BRQ1334     0.0000 
      4 CAF        34.6080  -20.8600   27.2320 C.ar      1 BRQ1334     0.0000 
      5 CAE        35.8330  -20.2740   26.9370 C.ar      1 BRQ1334     0.0000 
      6 CAI        36.0970  -19.0050   27.4270 C.ar      1 BRQ1334     0.0000 
      7 CAT        35.1240  -18.3530   28.1770 C.ar      1 BRQ1334     0.0000 
      8 NAN        35.3210  -17.1590   28.6640 N.pl3     1 BRQ1334     0.0000 
      9 CAV        35.8660  -16.1630   27.9990 C.2       1 BRQ1334     0.0000 
     10 SAO        36.4640  -16.1760   26.3380 S.3       1 BRQ1334     0.0000 
     11 NAM        36.0470  -14.9840   28.6120 N.2       1 BRQ1334     0.0000 
     12 CAR        36.6090  -14.0930   27.7960 C.2       1 BRQ1334     0.0000 
     13 NAA        36.8330  -12.8850   28.2410 N.pl3     1 BRQ1334     0.0000 
     14 CAW        36.9030  -14.5610   26.4860 C.2       1 BRQ1334     0.0000 
     15 CAP        37.6230  -13.7680   25.3890 C.2       1 BRQ1334     0.0000 
     16 OAB        38.0200  -12.6220   25.5850 O.2       1 BRQ1334     0.0000 
     17 CAU        37.9370  -14.4680   24.0830 C.ar      1 BRQ1334     0.0000 
     18 CAJ        36.9220  -15.1360   23.3780 C.ar      1 BRQ1334     0.0000 
     19 CAG        37.2300  -15.7810   22.1900 C.ar      1 BRQ1334     0.0000 
     20 CAQ        38.5360  -15.7230   21.6990 C.ar      1 BRQ1334     0.0000 
     21 F          38.8150  -16.3350   20.5360 F         1 BRQ1334     0.0000 
     22 CAH        39.5390  -15.0420   22.3890 C.ar      1 BRQ1334     0.0000 
     23 CAK        39.2480  -14.4220   23.5910 C.ar      1 BRQ1334     0.0000 
     24 H          33.2140  -18.4548   29.0375 H         1 BRQ1334     0.0000 
     25 H          34.4061  -21.8157   26.8596 H         1 BRQ1334     0.0000 
     26 H          36.5221  -20.7690   26.3715 H         1 BRQ1334     0.0000 
     27 H          36.9949  -18.5517   27.2408 H         1 BRQ1334     0.0000 
     28 H          35.0159  -16.9694   29.6881 H         1 BRQ1334     0.0000 
     29 H          37.2461  -12.2464   27.5917 H         1 BRQ1334     0.0000 
     30 H          36.5708  -12.7100   29.1900 H         1 BRQ1334     0.0000 
     31 H          35.9676  -15.1417   23.7445 H         1 BRQ1334     0.0000 
     32 H          36.5110  -16.2955   21.6749 H         1 BRQ1334     0.0000 
     33 H          40.4898  -15.0039   22.0012 H         1 BRQ1334     0.0000 
     34 H          39.9744  -13.9346   24.1193 H         1 BRQ1334     0.0000 
@<TRIPOS>BOND
     1    2    1 ar   
     2    7    1 ar   
     3   24    1 1    
     4    3    2 1    
     5    4    2 ar   
     6    5    4 ar   
     7   25    4 1    
     8    6    5 ar   
     9   26    5 1    
    10    7    6 ar   
    11   27    6 1    
    12    8    7 1    
    13    9    8 1    
    14   28    8 1    
    15   10    9 1    
    16   11    9 2    
    17   14   10 1    
    18   12   11 1    
    19   13   12 1    
    20   14   12 2    
    21   29   13 1    
    22   30   13 1    
    23   15   14 1    
    24   16   15 2    
    25   17   15 1    
    26   18   17 ar   
    27   23   17 ar   
    28   19   18 ar   
    29   31   18 1    
    30   20   19 ar   
    31   32   19 1    
    32   21   20 1    
    33   22   20 ar   
    34   23   22 ar   
    35   33   22 1    
    36   34   23 1    
@<TRIPOS>SUBSTRUCTURE
     1 BRQ1334     1 GROUP   
@<TRIPOS>SET

