#    Name: 4dyb_0MH_1_INTS_M
#    Modification time : Tue Mar 25 10:22:12 2014

@<TRIPOS>MOLECULE
4dyb_0MH_1_INTS_M
   69     0     6     0     0
SMALL
NO_CHARGES


@<TRIPOS>ATOM
      1 CA         22.3225  -34.1945   21.7780 C.3       2 GLC5        0.0000 
      2 CA         24.5270  -34.1000   21.5790 C.3       6 GLL5        0.0000 
      3 CA         20.1180  -34.2890   21.9770 C.3       4 GLP5        0.0000 
      4 CA         24.7470  -32.9725   12.5580 C.3       2 GLC5        0.0000 
      5 CA         26.0990  -32.7790   14.1470 C.3       6 GLL5        0.0000 
      6 CA         23.3950  -33.1660   10.9690 C.3       4 GLP5        0.0000 
      7 CA         28.6380  -37.1825   13.0215 C.3       2 GLC5        0.0000 
      8 CA         29.9930  -35.6240   13.8780 C.3       6 GLL5        0.0000 
      9 CA         27.2830  -38.7410   12.1650 C.3       4 GLP5        0.0000 
     10 CA         24.7355  -33.2100   18.0925 C.3       2 GLC5        0.0000 
     11 CA         23.8890  -34.9000   18.0080 C.3       6 GLL5        0.0000 
     12 CA         25.5820  -31.5200   18.1770 C.3       4 GLP5        0.0000 
     13 CA         22.5225  -33.2695   18.7240 C.3       2 GLC5        0.0000 
     14 CA         21.1560  -31.6390   19.4400 C.3       4 GLP5        0.0000 
     15 CA         21.3955  -38.1655   17.6350 C.3       2 GLC5        0.0000 
     16 CA         23.3270  -37.6480   17.3800 C.3       6 GLL5        0.0000 
     17 CA         19.4640  -38.6830   17.8900 C.3       4 GLP5        0.0000 
     18 CA         21.5350  -34.5835   19.7590 C.3       2 GLC5        0.0000 
     19 CA         22.8620  -35.6880   18.8180 C.3       6 GLL5        0.0000 
     20 CA         20.2080  -33.4790   20.7000 C.3       4 GLP5        0.0000 
     21 CA         20.8375  -36.5890   18.4785 C.3       2 GLC5        0.0000 
     22 CA         18.8130  -37.4900   18.1390 C.3       4 GLP5        0.0000 
     23 CA         20.3640  -36.4450   21.9410 C.3       2 GLC5        0.0000 
     24 CA         20.6100  -38.6010   21.9050 C.3       6 GLL5        0.0000 
     25 CA         20.3600  -40.2200   23.1015 C.3       2 GLC5        0.0000 
     26 CA         20.1100  -41.8390   24.2980 C.3       4 GLP5        0.0000 
     27 CA         21.9055  -38.7315   23.4990 C.3       2 GLC5        0.0000 
     28 CA         23.2010  -38.8620   25.0930 C.3       4 GLP5        0.0000 
     29 CA         19.6320  -39.0815   20.9495 C.3       2 GLC5        0.0000 
     30 CA         18.6540  -39.5620   19.9940 C.3       4 GLP5        0.0000 
     31 CA         22.1490  -40.2140   21.8245 C.3       2 GLC5        0.0000 
     32 CA         23.6880  -41.8270   21.7440 C.3       4 GLP5        0.0000 
     33 CA         27.1970  -37.4120   22.0260 C.3       2 GLC5        0.0000 
     34 CA         27.0090  -37.9960   20.3130 C.3       6 GLL5        0.0000 
     35 CA         27.3850  -36.8280   23.7390 C.3       4 GLP5        0.0000 
     36 N          23.7765  -39.9200   20.5830 N.am      1 SEC2        0.0000 
     37 N          23.1390  -39.1200   19.9210 N.am      5 SEL2        0.0000 
     38 N          24.4140  -40.7200   21.2450 N.am      3 SEP2        0.0000 
     39 N          27.9925  -37.7495   14.3270 N.am      1 SEC2        0.0000 
     40 N          28.1920  -36.4060   15.1660 N.am      5 SEL2        0.0000 
     41 N          27.7930  -39.0930   13.4880 N.am      3 SEP2        0.0000 
     42 CA         31.5725  -39.1015   14.2035 C.3       2 GLC5        0.0000 
     43 CA         30.9100  -37.0260   14.2200 C.3       6 GLL5        0.0000 
     44 CA         32.2350  -41.1770   14.1870 C.3       4 GLP5        0.0000 
     45 CA         24.0635  -32.1925   17.0300 C.3       2 GLC5        0.0000 
     46 CA         22.5450  -32.8650   15.8830 C.3       6 GLL5        0.0000 
     47 CA         22.5350  -31.7310   14.1735 C.3       2 GLC5        0.0000 
     48 CA         22.5250  -30.5970   12.4640 C.3       4 GLP5        0.0000 
     49 CA         21.4675  -32.4315   17.1100 C.3       2 GLC5        0.0000 
     50 CA         20.3900  -31.9980   18.3370 C.3       4 GLP5        0.0000 
     51 CA         27.0733  -35.7395   22.1593 C.3       2 GLC5        0.0000 
     52 CA         26.7480  -33.9590   20.6530 C.3       6 GLL5        0.0000 
     53 CA         30.2900  -34.1305   11.2925 C.3       2 GLC5        0.0000 
     54 CA         31.9630  -35.2210   12.7170 C.3       6 GLL5        0.0000 
     55 CA         29.2650  -33.2820    9.6950 C.3       4 GLP5        0.0000 
     56 CA         26.3165  -36.0010   13.6015 C.3       2 GLC5        0.0000 
     57 CA         26.6750  -33.9800   14.5430 C.3       6 GLL5        0.0000 
     58 CA         26.3070  -37.5820   12.2490 C.3       4 GLP5        0.0000 
     59 CA         23.4988  -31.7433   13.7228 C.3       2 GLC5        0.0000 
     60 CA         24.1250  -33.3280   15.3920 C.3       6 GLL5        0.0000 
     61 CA         26.2485  -36.3125   22.4537 C.3       2 GLC5        0.0000 
     62 CA         25.6780  -36.1090   20.8990 C.3       6 GLL5        0.0000 
     63 CA         21.1605  -35.8610   21.7790 C.3       2 GLC5        0.0000 
     64 CA         22.7200  -37.2620   21.1670 C.3       6 GLL5        0.0000 
     65 CA         21.9025  -34.3137   15.0107 C.3       2 GLC5        0.0000 
     66 CA         20.4700  -35.5310   14.3840 C.3       4 GLP5        0.0000 
     67 CA         31.5926  -36.3130   11.5994 C.3       2 GLC5        0.0000 
     68 CA         30.6670  -34.7370   13.0630 C.3       6 GLL5        0.0000 
     69 CA         31.7440  -36.7670    9.8780 C.3       4 GLP5        0.0000 
@<TRIPOS>BOND
@<TRIPOS>SUBSTRUCTURE
     1 SEC2       36 GROUP        1 X    SEC  0     ROOT SEC X 2
     2 GLC5        1 GROUP        1 X    GLC  0     **** GLC X 6
     3 SEP2       38 GROUP        1 Y    SEP  0     ROOT SEP Y 9
     4 GLP5        3 GROUP        1 Y    GLP  0     **** GLP Y 13
     5 SEL2       37 GROUP        1 Z    SEL  0     ROOT SEL Z 16
     6 GLL5        2 GROUP        1 Z    GLL  0     **** GLL Z 20
@<TRIPOS>SET

