#    Name: 4dyb_0MH_1_ligand
#    Modification time : Tue Mar 25 10:22:12 2014

@<TRIPOS>MOLECULE
4dyb_0MH_1_ligand
   64    68     1     0     0
SMALL
NO_CHARGES


@<TRIPOS>ATOM
      1 C1         25.6240  -33.3370   21.1890 C.ar      1 0MH601      0.0000 
      2 C2         26.7480  -33.9590   20.6530 C.ar      1 0MH601      0.0000 
      3 C3         31.9630  -35.2210   12.7170 C.2       1 0MH601      0.0000 
      4 C4         24.5270  -34.1000   21.5790 C.ar      1 0MH601      0.0000 
      5 C5         26.7750  -35.3430   20.5060 C.ar      1 0MH601      0.0000 
      6 C6         30.6670  -34.7370   13.0630 C.2       1 0MH601      0.0000 
      7 C7         25.9770  -34.8600   15.3650 C.ar      1 0MH601      0.0000 
      8 C8         24.8200  -32.4510   14.5710 C.ar      1 0MH601      0.0000 
      9 C9         32.2250  -36.4520   13.2830 C.2       1 0MH601      0.0000 
     10 C10        24.5460  -35.4850   21.4380 C.ar      1 0MH601      0.0000 
     11 C11        22.7200  -37.2620   21.1670 C.2       1 0MH601      0.0000 
     12 C12        24.6920  -34.5340   15.7880 C.ar      1 0MH601      0.0000 
     13 C13        26.6750  -33.9800   14.5430 C.ar      1 0MH601      0.0000 
     14 C14        26.0990  -32.7790   14.1470 C.ar      1 0MH601      0.0000 
     15 C15        25.6780  -36.1090   20.8990 C.ar      1 0MH601      0.0000 
     16 C16        24.1250  -33.3280   15.3920 C.ar      1 0MH601      0.0000 
     17 C17        23.3800  -36.2260   21.8550 C.2       1 0MH601      0.0000 
     18 C18        29.9930  -35.6240   13.8780 C.2       1 0MH601      0.0000 
     19 C19        21.6860  -37.6040   21.9950 C.2       1 0MH601      0.0000 
     20 C20        22.9960  -37.9040   19.8800 C.2       1 0MH601      0.0000 
     21 C21        28.6470  -35.5160   14.4560 C.2       1 0MH601      0.0000 
     22 C22        24.3700  -36.8380   16.6150 C.3       1 0MH601      0.0000 
     23 C23        23.8890  -34.9000   18.0080 C.3       1 0MH601      0.0000 
     24 C24        23.3270  -37.6480   17.3800 C.3       1 0MH601      0.0000 
     25 C25        22.8620  -35.6880   18.8180 C.3       1 0MH601      0.0000 
     26 C26        20.6100  -38.6010   21.9050 C.3       1 0MH601      0.0000 
     27 C27        27.0090  -37.9960   20.3130 C.3       1 0MH601      0.0000 
     28 N28        22.7840  -35.9450   23.0180 N.2       1 0MH601      0.0000 
     29 N29        24.0160  -35.4170   16.6370 N.3       1 0MH601      0.0000 
     30 N30        23.0710  -37.1280   18.7270 N.am      1 0MH601      0.0000 
     31 N31        27.9540  -34.3400   14.1310 N.am      1 0MH601      0.0000 
     32 N32        26.7850  -31.8670   13.3080 N.pl3     1 0MH601      0.0000 
     33 O33        26.1170  -30.9940   12.7030 O.2       1 0MH601      0.0000 
     34 O34        23.1390  -39.1200   19.9210 O.2       1 0MH601      0.0000 
     35 O35        28.1920  -36.4060   15.1660 O.2       1 0MH601      0.0000 
     36 O36        28.0390  -31.8130   13.3660 O.2       1 0MH601      0.0000 
     37 O37        21.7090  -36.8230   23.1050 O.3       1 0MH601      0.0000 
     38 O38        25.7560  -37.4650   20.7400 O.3       1 0MH601      0.0000 
     39 S39        30.9100  -37.0260   14.2200 S.3       1 0MH601      0.0000 
     40 CL4        22.5450  -32.8650   15.8830 Cl        1 0MH601      0.0000 
     41 H          25.6040  -32.3154   21.2967 H         1 0MH601      0.0000 
     42 H          27.5587  -33.3960   20.3655 H         1 0MH601      0.0000 
     43 H          32.5713  -34.7244   12.1484 H         1 0MH601      0.0000 
     44 H          23.6956  -33.6370   21.9746 H         1 0MH601      0.0000 
     45 H          27.6039  -35.8019   20.1074 H         1 0MH601      0.0000 
     46 H          30.3248  -33.8881   12.7522 H         1 0MH601      0.0000 
     47 H          26.4074  -35.7436   15.6572 H         1 0MH601      0.0000 
     48 H          24.3899  -31.5659   14.2799 H         1 0MH601      0.0000 
     49 H          32.9539  -37.0275   13.2636 H         1 0MH601      0.0000 
     50 H          24.4121  -37.2123   15.5892 H         1 0MH601      0.0000 
     51 H          25.3443  -37.0032   17.0816 H         1 0MH601      0.0000 
     52 H          24.8547  -34.9537   18.5308 H         1 0MH601      0.0000 
     53 H          23.5809  -33.8447   17.9946 H         1 0MH601      0.0000 
     54 H          23.6761  -38.6957   17.4306 H         1 0MH601      0.0000 
     55 H          22.3950  -37.6553   16.7855 H         1 0MH601      0.0000 
     56 H          21.8574  -35.4151   18.4522 H         1 0MH601      0.0000 
     57 H          22.9229  -35.3498   19.8665 H         1 0MH601      0.0000 
     58 H          28.4719  -33.6440   13.4937 H         1 0MH601      0.0000 
     59 H          20.9705  -39.5307   21.8297 H         1 0MH601      0.0000 
     60 H          20.0168  -38.5810   22.7098 H         1 0MH601      0.0000 
     61 H          20.0269  -38.4472   21.1073 H         1 0MH601      0.0000 
     62 H          27.7422  -37.7826   20.9586 H         1 0MH601      0.0000 
     63 H          26.9790  -38.9914   20.2221 H         1 0MH601      0.0000 
     64 H          27.2846  -37.6288   19.4246 H         1 0MH601      0.0000 
@<TRIPOS>BOND
     1    2    1 ar   
     2    4    1 ar   
     3   41    1 1    
     4    5    2 ar   
     5   42    2 1    
     6    6    3 1    
     7    9    3 2    
     8   43    3 1    
     9   10    4 ar   
    10   44    4 1    
    11   15    5 ar   
    12   45    5 1    
    13   18    6 2    
    14   46    6 1    
    15   12    7 ar   
    16   13    7 ar   
    17   47    7 1    
    18   14    8 ar   
    19   16    8 ar   
    20   48    8 1    
    21   39    9 1    
    22   49    9 1    
    23   15   10 ar   
    24   17   10 1    
    25   17   11 1    
    26   19   11 2    
    27   20   11 1    
    28   16   12 ar   
    29   29   12 1    
    30   14   13 ar   
    31   31   13 1    
    32   32   14 1    
    33   38   15 1    
    34   40   16 1    
    35   28   17 2    
    36   21   18 1    
    37   39   18 1    
    38   26   19 1    
    39   37   19 1    
    40   30   20 am   
    41   34   20 2    
    42   31   21 am   
    43   35   21 2    
    44   24   22 1    
    45   29   22 1    
    46   50   22 1    
    47   51   22 1    
    48   25   23 1    
    49   29   23 1    
    50   52   23 1    
    51   53   23 1    
    52   30   24 1    
    53   54   24 1    
    54   55   24 1    
    55   30   25 1    
    56   56   25 1    
    57   57   25 1    
    58   59   26 1    
    59   60   26 1    
    60   61   26 1    
    61   38   27 1    
    62   62   27 1    
    63   63   27 1    
    64   64   27 1    
    65   37   28 1    
    66   58   31 1    
    67   33   32 2    
    68   36   32 2    
@<TRIPOS>SUBSTRUCTURE
     1 0MH601      1 GROUP   
@<TRIPOS>SET

