#    Name: 3dct_064_1_INTS_M
#    Modification time : Mon Mar 24 23:06:42 2014

@<TRIPOS>MOLECULE
3dct_064_1_INTS_M
  112     0     9     0     0
SMALL
NO_CHARGES


@<TRIPOS>ATOM
      1 CA        137.4710   22.5605   80.3415 C.3       3 GLC5        0.0000 
      2 CA        136.4630   24.3460   80.5860 C.3       9 GLL5        0.0000 
      3 CA        138.4790   20.7750   80.0970 C.3       6 GLP5        0.0000 
      4 CA        137.4325   25.3210   82.0035 C.3       3 GLC5        0.0000 
      5 CA        138.4020   26.2960   83.4210 C.3       6 GLP5        0.0000 
      6 CA        131.2610   23.5260   78.0745 C.3       3 GLC5        0.0000 
      7 CA        133.0800   24.3840   78.8280 C.3       9 GLL5        0.0000 
      8 CA        129.4420   22.6680   77.3210 C.3       6 GLP5        0.0000 
      9 CA        137.6210   24.5185   83.9190 C.3       3 GLC5        0.0000 
     10 CA        136.8400   22.7410   84.4170 C.3       9 GLL5        0.0000 
     11 CA        136.0355   21.6685   86.2100 C.3       3 GLC5        0.0000 
     12 CA        135.2310   20.5960   88.0030 C.3       6 GLP5        0.0000 
     13 CA        137.7345   23.8355   85.9055 C.3       3 GLC5        0.0000 
     14 CA        138.6290   24.9300   87.3940 C.3       6 GLP5        0.0000 
     15 CA        136.1325   19.1640   84.0510 C.3       3 GLC5        0.0000 
     16 CA        136.3630   20.6920   83.0290 C.3       9 GLL5        0.0000 
     17 CA        135.9020   17.6360   85.0730 C.3       6 GLP5        0.0000 
     18 CA        134.4365   20.2175   83.0655 C.3       3 GLC5        0.0000 
     19 CA        132.5100   19.7430   83.1020 C.3       6 GLP5        0.0000 
     20 CA        137.8570   26.3770   81.5115 C.3       3 GLC5        0.0000 
     21 CA        137.3120   26.4580   79.6020 C.3       9 GLL5        0.0000 
     22 CA        136.5130   27.8385   81.1830 C.3       3 GLC5        0.0000 
     23 CA        135.7140   29.2190   82.7640 C.3       6 GLP5        0.0000 
     24 CA        138.6045   27.4770   81.3205 C.3       3 GLC5        0.0000 
     25 CA        137.6010   27.8520   79.6350 C.3       9 GLL5        0.0000 
     26 CA        139.6080   27.1020   83.0060 C.3       6 GLP5        0.0000 
     27 CA        138.1345   23.5405   78.1070 C.3       3 GLC5        0.0000 
     28 CA        137.8010   25.6440   78.4990 C.3       9 GLL5        0.0000 
     29 CA        138.4680   21.4370   77.7150 C.3       6 GLP5        0.0000 
     30 CA        139.8880   25.5720   79.0525 C.3       3 GLC5        0.0000 
     31 CA        141.9750   25.5000   79.6060 C.3       6 GLP5        0.0000 
     32 CA        139.3890   29.7935   80.0670 C.3       3 GLC5        0.0000 
     33 CA        138.3860   28.4320   78.6360 C.3       9 GLL5        0.0000 
     34 CA        140.3920   31.1550   81.4980 C.3       6 GLP5        0.0000 
     35 CA        142.4325   29.4835   77.2590 C.3       3 GLC5        0.0000 
     36 CA        142.0820   29.9970   75.5650 C.3       9 GLL5        0.0000 
     37 CA        142.7830   28.9700   78.9530 C.3       6 GLP5        0.0000 
     38 CA        140.4320   31.4350   75.6810 C.3       3 GLC5        0.0000 
     39 CA        138.7820   32.8730   75.7970 C.3       6 GLP5        0.0000 
     40 CA        131.4240   24.0535   76.8290 C.3       3 GLC5        0.0000 
     41 CA        132.5030   25.2140   77.8420 C.3       9 GLL5        0.0000 
     42 CA        130.3450   22.8930   75.8160 C.3       6 GLP5        0.0000 
     43 CA        133.4500   21.5950   76.7960 C.3       3 GLC5        0.0000 
     44 CA        133.5930   22.7630   78.2920 C.3       9 GLL5        0.0000 
     45 CA        133.3070   20.4270   75.3000 C.3       6 GLP5        0.0000 
     46 CA        132.7030   21.0385   78.5375 C.3       3 GLC5        0.0000 
     47 CA        131.8130   19.3140   78.7830 C.3       6 GLP5        0.0000 
     48 CA        131.9690   22.8280   77.0540 C.3       3 GLC5        0.0000 
     49 CA        130.8875   28.0355   80.9645 C.3       3 GLC5        0.0000 
     50 CA        132.2690   27.0290   79.5200 C.3       9 GLL5        0.0000 
     51 CA        129.5060   29.0420   82.4090 C.3       6 GLP5        0.0000 
     52 CA        131.2535   28.0020   82.2665 C.3       3 GLC5        0.0000 
     53 CA        133.0010   26.9620   82.1240 C.3       9 GLL5        0.0000 
     54 CA        134.3575   28.0905   82.4440 C.3       3 GLC5        0.0000 
     55 CA        133.6445   26.9485   83.8835 C.3       3 GLC5        0.0000 
     56 CA        134.2880   26.9350   85.6430 C.3       6 GLP5        0.0000 
     57 CA        140.7370   29.5540   78.8530 C.3       3 GLC5        0.0000 
     58 CA        138.6910   30.1380   78.7530 C.3       9 GLL5        0.0000 
     59 CA        139.2450   31.1910   79.7070 C.3       3 GLC5        0.0000 
     60 CA        139.7990   32.2440   80.6610 C.3       6 GLP5        0.0000 
     61 CA        137.1910   30.2995   80.1010 C.3       3 GLC5        0.0000 
     62 CA        135.6910   30.4610   81.4490 C.3       6 GLP5        0.0000 
     63 CA        138.7365   31.5055   77.2750 C.3       3 GLC5        0.0000 
     64 NZ        143.2810   33.8325   73.9840 N.4       2 LYC4        0.0000 
     65 NZ        144.1910   32.9830   74.6680 N.4       8 LYL4        0.0000 
     66 NZ        141.0590   34.5440   73.3930 N.4       5 LYP4        0.0000 
     67 N         145.3770   32.8100   75.7100 N.am      1 SEC2        0.0000 
     68 N         144.1910   32.9830   74.6680 N.am      7 SEL2        0.0000 
     69 N         146.5630   32.6370   76.7520 N.am      4 SEP2        0.0000 
     70 N         143.2810   33.8325   73.9840 N.am      1 SEC2        0.0000 
     71 N         142.3710   34.6820   73.3000 N.am      4 SEP2        0.0000 
     72 NZ        141.5950   33.3390   75.3835 N.4       2 LYC4        0.0000 
     73 NZ        142.6680   32.7210   76.3160 N.4       8 LYL4        0.0000 
     74 N         141.5950   33.3390   75.3835 N.am      1 SEC2        0.0000 
     75 N         142.6680   32.7210   76.3160 N.am      7 SEL2        0.0000 
     76 N         140.5220   33.9570   74.4510 N.am      4 SEP2        0.0000 
     77 CA        133.5637   28.4430   80.2268 C.3       3 GLC5        0.0000 
     78 CA        132.8300   26.2210   80.5290 C.3       9 GLL5        0.0000 
     79 CA        134.5780   30.2610   80.4290 C.3       6 GLP5        0.0000 
     80 CA        131.6033   25.8682   82.5348 C.3       3 GLC5        0.0000 
     81 CA        130.2910   25.1450   83.7430 C.3       6 GLP5        0.0000 
     82 CA        137.3073   21.1954   81.4749 C.3       3 GLC5        0.0000 
     83 CA        138.3777   21.8331   83.7080 C.3       3 GLC5        0.0000 
     84 CA        140.2300   22.0830   84.0510 C.3       6 GLP5        0.0000 
     85 CA        132.0030   28.6660   77.8140 C.3       3 GLC5        0.0000 
     86 CA        131.8270   30.5580   76.7780 C.3       6 GLP5        0.0000 
     87 CA        136.8423   29.3015   80.2922 C.3       3 GLC5        0.0000 
     88 CA        140.7088   28.5085   78.5215 C.3       3 GLC5        0.0000 
     89 CA        140.3353   26.1527   76.9245 C.3       3 GLC5        0.0000 
     90 CA        138.8830   27.6620   77.5440 C.3       9 GLL5        0.0000 
     91 CA        141.9250   25.3600   76.3440 C.3       6 GLP5        0.0000 
     92 CA        141.5283   28.5840   77.6223 C.3       3 GLC5        0.0000 
     93 CA        140.8180   27.9740   76.0280 C.3       9 GLL5        0.0000 
     94 CA        141.0993   26.7790   76.3178 C.3       3 GLC5        0.0000 
     95 CA        143.1833   28.2700   76.4222 C.3       3 GLC5        0.0000 
     96 CA        141.8180   28.6860   75.1910 C.3       9 GLL5        0.0000 
     97 CA        144.1850   28.1620   78.2020 C.3       6 GLP5        0.0000 
     98 CA        142.0533   26.8690   75.4932 C.3       3 GLC5        0.0000 
     99 CA        140.8035   29.7167   73.6735 C.3       3 GLC5        0.0000 
    100 CA        139.6570   30.0920   71.9690 C.3       6 GLP5        0.0000 
    101 CA        141.9655   29.6075   72.5973 C.3       3 GLC5        0.0000 
    102 CA        143.4990   28.8840   73.3890 C.3       9 GLL5        0.0000 
    103 CA        140.9090   30.7380   71.4530 C.3       6 GLP5        0.0000 
    104 CA        143.0845   27.5820   71.8722 C.3       3 GLC5        0.0000 
    105 CA        143.1470   26.6870   70.0030 C.3       6 GLP5        0.0000 
    106 CA        144.4837   30.4765   75.8325 C.3       3 GLC5        0.0000 
    107 CA        143.7260   30.2440   73.7940 C.3       9 GLL5        0.0000 
    108 CA        145.5990   30.4290   77.3220 C.3       6 GLP5        0.0000 
    109 CA        142.1387   30.6310   72.8980 C.3       3 GLC5        0.0000 
    110 CA        143.0110   30.8040   74.8920 C.3       9 GLL5        0.0000 
    111 CA        144.8730   28.3188   74.3004 C.3       3 GLC5        0.0000 
    112 CA        146.3720   27.2770   74.8330 C.3       6 GLP5        0.0000 
@<TRIPOS>BOND
@<TRIPOS>SUBSTRUCTURE
     1 SEC2       67 GROUP        1 X    SEC  0     ROOT SEC X 2
     2 LYC4       64 GROUP        1 X    LYC  0     **** LYC X 4
     3 GLC5        1 GROUP        1 X    GLC  0     **** GLC X 6
     4 SEP2       69 GROUP        1 Y    SEP  0     ROOT SEP Y 9
     5 LYP4       66 GROUP        1 Y    LYP  0     **** LYP Y 11
     6 GLP5        3 GROUP        1 Y    GLP  0     **** GLP Y 13
     7 SEL2       68 GROUP        1 Z    SEL  0     ROOT SEL Z 16
     8 LYL4       65 GROUP        1 Z    LYL  0     **** LYL Z 18
     9 GLL5        2 GROUP        1 Z    GLL  0     **** GLL Z 20
@<TRIPOS>SET

