#    Name: 3dct_064_1_ligand
#    Modification time : Mon Mar 24 23:06:42 2014

@<TRIPOS>MOLECULE
3dct_064_1_ligand
   57    60     1     0     0
SMALL
NO_CHARGES


@<TRIPOS>ATOM
      1 C1        133.8530   24.0310   81.1410 C.2       1 0641        0.0000 
      2 N4        133.1810   23.2660   82.0760 N.2       1 0641        0.0000 
      3 C5        135.2800   22.8710   82.3680 C.2       1 0641        0.0000 
      4 C6        136.4630   24.3460   80.5860 C.3       1 0641        0.0000 
      5 C7        133.0800   24.3840   78.8280 C.ar      1 0641        0.0000 
      6 C8        132.8300   26.2210   80.5290 C.ar      1 0641        0.0000 
      7 C10       136.5360   22.2080   82.9850 C.3       1 0641        0.0000 
      8 C16       136.8400   22.7410   84.4170 C.3       1 0641        0.0000 
      9 C17       136.3630   20.6920   83.0290 C.3       1 0641        0.0000 
     10 C18       137.3120   26.4580   79.6020 C.ar      1 0641        0.0000 
     11 C19       132.0890   26.5190   78.1800 C.ar      1 0641        0.0000 
     12 C20       137.6010   27.8520   79.6350 C.ar      1 0641        0.0000 
     13 C21       137.8010   25.6440   78.4990 C.ar      1 0641        0.0000 
     14 C22       138.3860   28.4320   78.6360 C.ar      1 0641        0.0000 
     15 C23       138.6080   26.2290   77.4660 C.ar      1 0641        0.0000 
     16 C24       138.8830   27.6620   77.5440 C.ar      1 0641        0.0000 
     17 C26       139.7290   28.4220   76.5550 C.2       1 0641        0.0000 
     18 C27       140.8180   27.9740   76.0280 C.2       1 0641        0.0000 
     19 C28       141.8180   28.6860   75.1910 C.ar      1 0641        0.0000 
     20 C29       142.0820   29.9970   75.5650 C.ar      1 0641        0.0000 
     21 C30       142.5450   28.0700   74.0940 C.ar      1 0641        0.0000 
     22 C32       143.4990   28.8840   73.3890 C.ar      1 0641        0.0000 
     23 C2        135.2230   23.7870   81.3270 C.2       1 0641        0.0000 
     24 C3        133.2780   24.8700   80.1890 C.ar      1 0641        0.0000 
     25 O9        134.0020   22.5760   82.8100 O.3       1 0641        0.0000 
     26 O11       136.5630   25.8240   80.6050 O.3       1 0641        0.0000 
     27 C12       132.5030   25.2140   77.8420 C.ar      1 0641        0.0000 
     28 CL13      133.5930   22.7630   78.2920 Cl        1 0641        0.0000 
     29 C14       132.2690   27.0290   79.5200 C.ar      1 0641        0.0000 
     30 CL15      133.0010   26.9620   82.1240 Cl        1 0641        0.0000 
     31 CL25      138.6910   30.1380   78.7530 Cl        1 0641        0.0000 
     32 C31       143.0110   30.8040   74.8920 C.ar      1 0641        0.0000 
     33 C33       143.7260   30.2440   73.7940 C.ar      1 0641        0.0000 
     34 C34       143.2710   32.2290   75.3400 C.2       1 0641        0.0000 
     35 O35       144.1910   32.9830   74.6680 O.co2     1 0641        0.0000 
     36 O36       142.6680   32.7210   76.3160 O.co2     1 0641        0.0000 
     37 H         136.4259   23.9770   79.5441 H         1 0641        0.0000 
     38 H         137.3612   23.8944   81.0469 H         1 0641        0.0000 
     39 H         137.3880   22.4362   82.3554 H         1 0641        0.0000 
     40 H         131.6548   27.1232   77.4795 H         1 0641        0.0000 
     41 H         137.2263   28.4209   80.3991 H         1 0641        0.0000 
     42 H         137.5656   24.6591   78.4679 H         1 0641        0.0000 
     43 H         138.9732   25.6875   76.7175 H         1 0641        0.0000 
     44 H         139.3291   29.3806   76.3332 H         1 0641        0.0000 
     45 H         141.1086   26.9260   76.1792 H         1 0641        0.0000 
     46 H         141.5704   30.4045   76.3808 H         1 0641        0.0000 
     47 H         142.3847   27.1232   73.8457 H         1 0641        0.0000 
     48 H         144.0117   28.4968   72.6051 H         1 0641        0.0000 
     49 H         132.3864   24.8701   76.8890 H         1 0641        0.0000 
     50 H         131.9813   27.9881   79.7224 H         1 0641        0.0000 
     51 H         144.4064   30.8094   73.2873 H         1 0641        0.0000 
     52 H         137.6532   22.3105   84.8087 H         1 0641        0.0000 
     53 H         137.0008   23.7280   84.4195 H         1 0641        0.0000 
     54 H         136.0834   22.5657   85.0469 H         1 0641        0.0000 
     55 H         137.1635   20.2380   83.4203 H         1 0641        0.0000 
     56 H         135.5744   20.4241   83.5825 H         1 0641        0.0000 
     57 H         136.2248   20.3073   82.1164 H         1 0641        0.0000 
@<TRIPOS>BOND
     1    2    1 2    
     2   23    1 1    
     3   24    1 1    
     4   25    2 1    
     5    7    3 1    
     6   23    3 2    
     7   25    3 1    
     8   23    4 1    
     9   26    4 1    
    10   37    4 1    
    11   38    4 1    
    12   24    5 ar   
    13   27    5 ar   
    14   28    5 1    
    15   24    6 ar   
    16   29    6 ar   
    17   30    6 1    
    18    8    7 1    
    19    9    7 1    
    20   39    7 1    
    21   52    8 1    
    22   53    8 1    
    23   54    8 1    
    24   55    9 1    
    25   56    9 1    
    26   57    9 1    
    27   12   10 ar   
    28   13   10 ar   
    29   26   10 1    
    30   27   11 ar   
    31   29   11 ar   
    32   40   11 1    
    33   14   12 ar   
    34   41   12 1    
    35   15   13 ar   
    36   42   13 1    
    37   16   14 ar   
    38   31   14 1    
    39   16   15 ar   
    40   43   15 1    
    41   17   16 1    
    42   18   17 2    
    43   44   17 1    
    44   19   18 1    
    45   45   18 1    
    46   20   19 ar   
    47   21   19 ar   
    48   32   20 ar   
    49   46   20 1    
    50   22   21 ar   
    51   47   21 1    
    52   33   22 ar   
    53   48   22 1    
    54   49   27 1    
    55   50   29 1    
    56   33   32 ar   
    57   34   32 1    
    58   51   33 1    
    59   35   34 ar   
    60   36   34 ar   
@<TRIPOS>SUBSTRUCTURE
     1 0641        1 GROUP   
@<TRIPOS>SET

