#    Name: 3n6k_BFH_1_INTS_M
#    Modification time : Tue Mar 25 00:43:47 2014

@<TRIPOS>MOLECULE
3n6k_BFH_1_INTS_M
   31     0     9     0     0
SMALL
NO_CHARGES


@<TRIPOS>ATOM
      1 NZ          6.2125   72.3445   25.7305 N.4       2 LYC4        0.0000 
      2 NZ          5.5450   74.1650   25.8800 N.4       8 LYL4        0.0000 
      3 NZ          6.8800   70.5240   25.5810 N.4       5 LYP4        0.0000 
      4 N           4.3155   74.0685   25.4110 N.am      1 SEC2        0.0000 
      5 N           5.5450   74.1650   25.8800 N.am      7 SEL2        0.0000 
      6 N           3.0860   73.9720   24.9420 N.am      4 SEP2        0.0000 
      7 CA          6.1325   74.4265   29.6880 C.3       3 GLC5        0.0000 
      8 CA          5.3830   73.7670   28.2290 C.3       9 GLL5        0.0000 
      9 CA          6.8820   75.0860   31.1470 C.3       6 GLP5        0.0000 
     10 CA          1.8045   76.3387   26.2462 C.3       3 GLC5        0.0000 
     11 CA          0.7320   75.6480   27.7860 C.3       9 GLL5        0.0000 
     12 CA          2.7540   76.3600   24.6660 C.3       6 GLP5        0.0000 
     13 CA         -0.3968   74.5062   28.8867 C.3       3 GLC5        0.0000 
     14 CA         -2.0550   74.1840   29.9720 C.3       6 GLP5        0.0000 
     15 CA          2.0160   76.4725   29.7405 C.3       3 GLC5        0.0000 
     16 CA          0.9780   76.9870   27.8670 C.3       9 GLL5        0.0000 
     17 CA          2.3860   75.7110   31.5410 C.3       6 GLP5        0.0000 
     18 CA          2.5895   77.2700   26.3600 C.3       3 GLC5        0.0000 
     19 CA          2.3140   77.4810   28.0130 C.3       9 GLL5        0.0000 
     20 CA          0.8085   78.8817   28.9917 C.3       3 GLC5        0.0000 
     21 CA         -0.4740   79.7070   29.9660 C.3       6 GLP5        0.0000 
     22 CA          5.2380   79.7767   26.8525 C.3       3 GLC5        0.0000 
     23 CA          3.8210   79.3670   28.2330 C.3       9 GLL5        0.0000 
     24 CA          6.0950   80.6160   25.4380 C.3       6 GLP5        0.0000 
     25 CA          3.4282   76.6010   26.4118 C.3       3 GLC5        0.0000 
     26 CA          4.7570   77.1310   28.2270 C.3       9 GLL5        0.0000 
     27 CA          3.2443   76.2765   29.8493 C.3       3 GLC5        0.0000 
     28 CA          3.4480   76.5530   28.0880 C.3       9 GLL5        0.0000 
     29 CA          2.6178   75.4620   26.2895 C.3       3 GLC5        0.0000 
     30 CA          3.1720   75.1190   28.0090 C.3       9 GLL5        0.0000 
     31 CA          2.3035   75.4299   29.7279 C.3       3 GLC5        0.0000 
@<TRIPOS>BOND
@<TRIPOS>SUBSTRUCTURE
     1 SEC2        4 GROUP        1 X    SEC  0     ROOT SEC X 2
     2 LYC4        1 GROUP        1 X    LYC  0     **** LYC X 4
     3 GLC5        7 GROUP        1 X    GLC  0     **** GLC X 6
     4 SEP2        6 GROUP        1 Y    SEP  0     ROOT SEP Y 9
     5 LYP4        3 GROUP        1 Y    LYP  0     **** LYP Y 11
     6 GLP5        9 GROUP        1 Y    GLP  0     **** GLP Y 13
     7 SEL2        5 GROUP        1 Z    SEL  0     ROOT SEL Z 16
     8 LYL4        2 GROUP        1 Z    LYL  0     **** LYL Z 18
     9 GLL5        8 GROUP        1 Z    GLL  0     **** GLL Z 20
@<TRIPOS>SET

