#    Name: 3n6k_BFH_1_ligand
#    Modification time : Tue Mar 25 00:43:47 2014

@<TRIPOS>MOLECULE
3n6k_BFH_1_ligand
   29    31     1     0     0
SMALL
NO_CHARGES


@<TRIPOS>ATOM
      1 O1          7.4620   74.2460   26.9990 O.co2     1 BFH1        0.0000 
      2 C2          6.1290   74.0720   26.9450 C.2       1 BFH1        0.0000 
      3 O3          5.5450   74.1650   25.8800 O.co2     1 BFH1        0.0000 
      4 C4          5.3830   73.7670   28.2290 C.3       1 BFH1        0.0000 
      5 N5          3.9150   73.9320   28.0460 N.pl3     1 BFH1        0.0000 
      6 C6          3.0470   72.8560   27.8750 C.2       1 BFH1        0.0000 
      7 C7          1.7740   73.3090   27.7790 C.2       1 BFH1        0.0000 
      8 C8          1.8080   74.7090   27.8550 C.ar      1 BFH1        0.0000 
      9 C9          0.7320   75.6480   27.7860 C.ar      1 BFH1        0.0000 
     10 C10         0.9780   76.9870   27.8670 C.ar      1 BFH1        0.0000 
     11 C11         2.3140   77.4810   28.0130 C.ar      1 BFH1        0.0000 
     12 C12         2.5360   78.8790   28.0950 C.ar      1 BFH1        0.0000 
     13 C13         3.8210   79.3670   28.2330 C.ar      1 BFH1        0.0000 
     14 C14         4.9410   78.5080   28.3010 C.ar      1 BFH1        0.0000 
     15 C15         4.7570   77.1310   28.2270 C.ar      1 BFH1        0.0000 
     16 C16         3.4480   76.5530   28.0880 C.ar      1 BFH1        0.0000 
     17 C17         3.1720   75.1190   28.0090 C.ar      1 BFH1        0.0000 
     18 C18         3.3540   71.4200   27.7880 C.2       1 BFH1        0.0000 
     19 O19         3.0110   70.7650   26.6520 O.co2     1 BFH1        0.0000 
     20 O20         3.9000   70.8370   28.7110 O.co2     1 BFH1        0.0000 
     21 H           5.7404   74.4405   29.0154 H         1 BFH1        0.0000 
     22 H           5.6091   72.7399   28.5351 H         1 BFH1        0.0000 
     23 H           0.9811   72.7935   27.6777 H         1 BFH1        0.0000 
     24 H          -0.2238   75.2820   27.6743 H         1 BFH1        0.0000 
     25 H           0.2114   77.6773   27.8255 H         1 BFH1        0.0000 
     26 H           1.7324   79.5141   28.0503 H         1 BFH1        0.0000 
     27 H           3.9826   80.3918   28.2896 H         1 BFH1        0.0000 
     28 H           5.8766   78.9056   28.4040 H         1 BFH1        0.0000 
     29 H           5.5664   76.4927   28.2711 H         1 BFH1        0.0000 
@<TRIPOS>BOND
     1    2    1 ar   
     2    3    2 ar   
     3    4    2 1    
     4    5    4 1    
     5   21    4 1    
     6   22    4 1    
     7    6    5 1    
     8   17    5 1    
     9    7    6 2    
    10   18    6 1    
    11    8    7 1    
    12   23    7 1    
    13    9    8 ar   
    14   17    8 ar   
    15   10    9 ar   
    16   24    9 1    
    17   11   10 ar   
    18   25   10 1    
    19   12   11 ar   
    20   16   11 ar   
    21   13   12 ar   
    22   26   12 1    
    23   14   13 ar   
    24   27   13 1    
    25   15   14 ar   
    26   28   14 1    
    27   16   15 ar   
    28   29   15 1    
    29   17   16 ar   
    30   19   18 ar   
    31   20   18 ar   
@<TRIPOS>SUBSTRUCTURE
     1 BFH1        1 GROUP   
@<TRIPOS>SET

