#    Name: 3enk_GUD_2_INTS_M
#    Modification time : Tue Mar 25 02:12:44 2014

@<TRIPOS>MOLECULE
3enk_GUD_2_INTS_M
   58     0    12     0     0
SMALL
NO_CHARGES


@<TRIPOS>ATOM
      1 O          31.5520    7.8960  -40.5685 O.2       1 ALC1        0.0000 
      2 O          31.2260    7.0140  -39.6260 O.2       9 ALL1        0.0000 
      3 O          31.8780    8.7780  -41.5110 O.2       5 ALP1        0.0000 
      4 CA         28.3670    3.8645  -37.9940 C.3       4 GLC5        0.0000 
      5 CA         29.7530    5.5460  -38.5040 C.3      12 GLL5        0.0000 
      6 CA         26.9810    2.1830  -37.4840 C.3       8 GLP5        0.0000 
      7 CA         30.0000    3.6900  -38.9090 C.3       4 GLC5        0.0000 
      8 CA         30.2470    1.8340  -39.3140 C.3       8 GLP5        0.0000 
      9 CA         29.3870    7.2345  -38.2225 C.3       4 GLC5        0.0000 
     10 CA         29.0210    8.9230  -37.9410 C.3       8 GLP5        0.0000 
     11 CA         31.1825    3.5495  -38.0965 C.3       4 GLC5        0.0000 
     12 CA         30.7280    5.3180  -37.5380 C.3      12 GLL5        0.0000 
     13 CA         31.6370    1.7810  -38.6550 C.3       8 GLP5        0.0000 
     14 CA         30.4385    7.2910  -37.3575 C.3       4 GLC5        0.0000 
     15 CA         30.1490    9.2640  -37.1770 C.3       8 GLP5        0.0000 
     16 N          33.4330    8.9235  -38.6510 N.am      2 SEC2        0.0000 
     17 N          33.2720    7.4080  -38.8210 N.am     10 SEL2        0.0000 
     18 N          33.5940   10.4390  -38.4810 N.am      6 SEP2        0.0000 
     19 CA         31.3585    7.7020  -36.1840 C.3       4 GLC5        0.0000 
     20 CA         32.5680    6.1400  -35.1910 C.3      12 GLL5        0.0000 
     21 N          33.1765    9.0750  -34.1685 N.am      2 SEC2        0.0000 
     22 N          32.9430    7.4900  -34.8600 N.am     10 SEL2        0.0000 
     23 N          33.4100   10.6600  -33.4770 N.am      6 SEP2        0.0000 
     24 O          32.3335    8.0510  -33.8845 O.2       1 ALC1        0.0000 
     25 O          32.9430    7.4900  -34.8600 O.2       9 ALL1        0.0000 
     26 O          31.7240    8.6120  -32.9090 O.2       5 ALP1        0.0000 
     27 CA         33.7730    2.9000  -36.9715 C.3       4 GLC5        0.0000 
     28 CA         33.4200    3.8820  -35.1440 C.3      12 GLL5        0.0000 
     29 CA         34.1260    1.9180  -38.7990 C.3       8 GLP5        0.0000 
     30 CA         32.0040    2.2920  -36.7475 C.3       4 GLC5        0.0000 
     31 CA         32.3710    2.8030  -34.8400 C.3      12 GLL5        0.0000 
     32 NZ         28.8575    5.0100  -34.1860 N.4       3 LYC4        0.0000 
     33 NZ         28.5910    3.6310  -34.6010 N.4      11 LYL4        0.0000 
     34 NZ         28.3710    7.3310  -34.3240 N.4       7 LYP4        0.0000 
     35 N          28.8575    5.0100  -34.1860 N.am      2 SEC2        0.0000 
     36 N          28.5910    3.6310  -34.6010 N.am     10 SEL2        0.0000 
     37 N          29.1240    6.3890  -33.7710 N.am      6 SEP2        0.0000 
     38 N          29.4785    1.6150  -37.0170 N.am      2 SEC2        0.0000 
     39 N          29.7790    1.5300  -35.7080 N.am     10 SEL2        0.0000 
     40 N          29.1780    1.7000  -38.3260 N.am      6 SEP2        0.0000 
     41 NZ         32.7715    2.7335  -31.0570 N.4       3 LYC4        0.0000 
     42 NZ         31.5660    2.3120  -31.3330 N.4      11 LYL4        0.0000 
     43 NZ         34.5300    4.3430  -30.5140 N.4       7 LYP4        0.0000 
     44 N          31.5845    0.8560  -31.8180 N.am      2 SEC2        0.0000 
     45 N          31.5660    2.3120  -31.3330 N.am     10 SEL2        0.0000 
     46 N          31.6030   -0.6000  -32.3030 N.am      6 SEP2        0.0000 
     47 N          32.7715    2.7335  -31.0570 N.am      2 SEC2        0.0000 
     48 N          33.9770    3.1550  -30.7810 N.am      6 SEP2        0.0000 
     49 CA         26.6930   -2.1970  -29.4235 C.3       4 GLC5        0.0000 
     50 CA         27.0690   -0.2030  -29.6520 C.3      12 GLL5        0.0000 
     51 CA         26.3170   -4.1910  -29.1950 C.3       8 GLP5        0.0000 
     52 CA         34.0232    2.6225  -33.5607 C.3       4 GLC5        0.0000 
     53 CA         35.1870    1.5880  -32.3420 C.3       8 GLP5        0.0000 
     54 CA         25.5168    3.5593  -28.9600 C.3       4 GLC5        0.0000 
     55 CA         27.5710    3.6110  -29.2370 C.3      12 GLL5        0.0000 
     56 CA         23.8260    4.1500  -28.4860 C.3       8 GLP5        0.0000 
     57 CA         34.7274    5.2486  -36.2927 C.3       4 GLC5        0.0000 
     58 CA         36.3960    5.2850  -37.2790 C.3       8 GLP5        0.0000 
@<TRIPOS>BOND
@<TRIPOS>SUBSTRUCTURE
     1 ALC1        1 GROUP        1 X    ALC  0     ROOT ALC X 1
     2 SEC2       16 GROUP        1 X    SEC  0     **** SEC X 2
     3 LYC4       32 GROUP        1 X    LYC  0     **** LYC X 4
     4 GLC5        4 GROUP        1 X    GLC  0     **** GLC X 6
     5 ALP1        3 GROUP        1 Y    ALP  0     ROOT ALP Y 8
     6 SEP2       18 GROUP        1 Y    SEP  0     **** SEP Y 9
     7 LYP4       34 GROUP        1 Y    LYP  0     **** LYP Y 11
     8 GLP5        6 GROUP        1 Y    GLP  0     **** GLP Y 13
     9 ALL1        2 GROUP        1 Z    ALL  0     ROOT ALL Z 15
    10 SEL2       17 GROUP        1 Z    SEL  0     **** SEL Z 16
    11 LYL4       33 GROUP        1 Z    LYL  0     **** LYL Z 18
    12 GLL5        5 GROUP        1 Z    GLL  0     **** GLL Z 20
@<TRIPOS>SET

