#    Name: 3enk_GUD_2_ligand
#    Modification time : Tue Mar 25 02:12:44 2014

@<TRIPOS>MOLECULE
3enk_GUD_2_ligand
   58    60     1     0     0
SMALL
NO_CHARGES


@<TRIPOS>ATOM
      1 N1         31.9310    5.9180  -37.6190 N.am      1 GUD342      0.0000 
      2 C2         32.1770    6.8100  -38.7060 C.2       1 GUD342      0.0000 
      3 N3         31.2260    7.0140  -39.6260 N.am      1 GUD342      0.0000 
      4 C4         30.0240    6.4240  -39.5560 C.2       1 GUD342      0.0000 
      5 C5         29.7530    5.5460  -38.5040 C.2       1 GUD342      0.0000 
      6 C6         30.7280    5.3180  -37.5380 C.2       1 GUD342      0.0000 
      7 O2         33.2720    7.4080  -38.8210 O.2       1 GUD342      0.0000 
      8 O4         29.1490    6.6590  -40.4320 O.2       1 GUD342      0.0000 
      9 C1D        32.9710    5.6870  -36.5970 C.3       1 GUD342      0.0000 
     10 C2D        32.5680    6.1400  -35.1910 C.3       1 GUD342      0.0000 
     11 O2D        32.9430    7.4900  -34.8600 O.3       1 GUD342      0.0000 
     12 C3D        33.2760    5.1400  -34.2940 C.3       1 GUD342      0.0000 
     13 C4D        33.4200    3.8820  -35.1440 C.3       1 GUD342      0.0000 
     14 O4D        33.2320    4.2840  -36.4940 O.3       1 GUD342      0.0000 
     15 O3D        34.5710    5.6730  -33.9710 O.3       1 GUD342      0.0000 
     16 C5D        32.3710    2.8030  -34.8400 C.3       1 GUD342      0.0000 
     17 O5D        31.0890    3.4430  -34.7810 O.3       1 GUD342      0.0000 
     18 PA         29.7130    2.6280  -34.6650 P.3       1 GUD342      0.0000 
     19 O1A        28.5910    3.6310  -34.6010 O.co2     1 GUD342      0.0000 
     20 O2A        29.7790    1.5300  -35.7080 O.co2     1 GUD342      0.0000 
     21 O3A        29.8980    1.9340  -33.2110 O.3       1 GUD342      0.0000 
     22 PB         30.1880    2.6900  -31.8080 P.3       1 GUD342      0.0000 
     23 O1B        31.5660    2.3120  -31.3330 O.co2     1 GUD342      0.0000 
     24 O2B        29.7250    4.1330  -31.7980 O.co2     1 GUD342      0.0000 
     25 O3B        29.1690    1.8170  -30.9360 O.3       1 GUD342      0.0000 
     26 C1'        27.9590    1.3120  -31.5080 C.3       1 GUD342      0.0000 
     27 C2'        27.6550   -0.1160  -31.0750 C.3       1 GUD342      0.0000 
     28 C3'        27.0690   -0.2030  -29.6520 C.3       1 GUD342      0.0000 
     29 C4'        27.3280    1.0850  -28.8680 C.3       1 GUD342      0.0000 
     30 C5'        26.8440    2.3260  -29.6310 C.3       1 GUD342      0.0000 
     31 C6'        27.5710    3.6110  -29.2370 C.3       1 GUD342      0.0000 
     32 O2'        26.7250   -0.5930  -32.0420 O.3       1 GUD342      0.0000 
     33 O3'        25.6470   -0.4680  -29.6570 O.3       1 GUD342      0.0000 
     34 O4'        26.6360    1.0260  -27.6250 O.3       1 GUD342      0.0000 
     35 O5'        26.8980    2.1310  -31.0580 O.3       1 GUD342      0.0000 
     36 O6'        27.2380    4.6540  -30.1760 O.3       1 GUD342      0.0000 
     37 H          31.4296    7.6646  -40.4385 H         1 GUD342      0.0000 
     38 H          28.8464    5.0767  -38.4466 H         1 GUD342      0.0000 
     39 H          30.5060    4.6732  -36.7517 H         1 GUD342      0.0000 
     40 H          33.8810    6.2072  -36.8611 H         1 GUD342      0.0000 
     41 H          31.5091    5.9616  -35.0848 H         1 GUD342      0.0000 
     42 H          32.6816    4.9387  -33.4604 H         1 GUD342      0.0000 
     43 H          34.3964    3.4711  -35.0032 H         1 GUD342      0.0000 
     44 H          32.6365    2.3371  -33.8949 H         1 GUD342      0.0000 
     45 H          32.4182    2.0600  -35.6315 H         1 GUD342      0.0000 
     46 H          28.0069    1.3281  -32.5874 H         1 GUD342      0.0000 
     47 H          28.5693   -0.6797  -31.1169 H         1 GUD342      0.0000 
     48 H          27.5952   -1.0080  -29.1269 H         1 GUD342      0.0000 
     49 H          28.3915    1.1821  -28.7118 H         1 GUD342      0.0000 
     50 H          25.7714    2.4737  -29.3398 H         1 GUD342      0.0000 
     51 H          28.6437    3.4046  -29.2320 H         1 GUD342      0.0000 
     52 H          27.2659    3.8744  -28.2217 H         1 GUD342      0.0000 
     53 H          32.1101    7.9085  -34.4979 H         1 GUD342      0.0000 
     54 H          34.5106    6.6477  -34.1862 H         1 GUD342      0.0000 
     55 H          25.8278   -0.4834  -31.6141 H         1 GUD342      0.0000 
     56 H          25.2919    0.0101  -28.8537 H         1 GUD342      0.0000 
     57 H          27.2150    0.4654  -27.0329 H         1 GUD342      0.0000 
     58 H          27.9896    4.6578  -30.8356 H         1 GUD342      0.0000 
@<TRIPOS>BOND
     1    2    1 1    
     2    6    1 1    
     3    9    1 1    
     4    3    2 1    
     5    7    2 2    
     6    4    3 1    
     7   37    3 1    
     8    5    4 1    
     9    8    4 2    
    10    6    5 2    
    11   38    5 1    
    12   39    6 1    
    13   10    9 1    
    14   14    9 1    
    15   40    9 1    
    16   11   10 1    
    17   12   10 1    
    18   41   10 1    
    19   53   11 1    
    20   13   12 1    
    21   15   12 1    
    22   42   12 1    
    23   14   13 1    
    24   16   13 1    
    25   43   13 1    
    26   54   15 1    
    27   17   16 1    
    28   44   16 1    
    29   45   16 1    
    30   18   17 1    
    31   19   18 ar   
    32   20   18 ar   
    33   21   18 1    
    34   22   21 1    
    35   23   22 ar   
    36   24   22 ar   
    37   25   22 1    
    38   26   25 1    
    39   27   26 1    
    40   35   26 1    
    41   46   26 1    
    42   28   27 1    
    43   32   27 1    
    44   47   27 1    
    45   29   28 1    
    46   33   28 1    
    47   48   28 1    
    48   30   29 1    
    49   34   29 1    
    50   49   29 1    
    51   31   30 1    
    52   35   30 1    
    53   50   30 1    
    54   36   31 1    
    55   51   31 1    
    56   52   31 1    
    57   55   32 1    
    58   56   33 1    
    59   57   34 1    
    60   58   36 1    
@<TRIPOS>SUBSTRUCTURE
     1 GUD342      1 GROUP   
@<TRIPOS>SET

