#    Name: 2xnp_WCX_1_INTS_M
#    Modification time : Tue Mar 25 06:25:02 2014

@<TRIPOS>MOLECULE
2xnp_WCX_1_INTS_M
   58     0     9     0     0
SMALL
NO_CHARGES


@<TRIPOS>ATOM
      1 CA        -28.3320   -0.6765   12.6530 C.3       3 GLC5        0.0000 
      2 CA        -26.8380   -1.2510   13.6490 C.3       9 GLL5        0.0000 
      3 CA        -29.8260   -0.1020   11.6570 C.3       6 GLP5        0.0000 
      4 CA        -27.8030   -3.3455   15.4465 C.3       3 GLC5        0.0000 
      5 CA        -26.3110   -1.8480   14.9740 C.3       9 GLL5        0.0000 
      6 CA        -29.2950   -4.8430   15.9190 C.3       6 GLP5        0.0000 
      7 CA        -27.3055   -4.2745   16.3970 C.3       3 GLC5        0.0000 
      8 CA        -25.3160   -3.7060   16.8750 C.3       9 GLL5        0.0000 
      9 N         -25.4300   -6.8110   21.7685 N.am      2 SEC2        0.0000 
     10 N         -26.0410   -6.0280   20.8390 N.am      8 SEL2        0.0000 
     11 N         -24.8190   -7.5940   22.6980 N.am      5 SEP2        0.0000 
     12 CA        -27.0765   -4.4830   25.7650 C.3       3 GLC5        0.0000 
     13 CA        -28.3150   -3.0170   24.8530 C.3       9 GLL5        0.0000 
     14 CA        -25.8380   -5.9490   26.6770 C.3       6 GLP5        0.0000 
     15 CA        -24.7035   -5.3465   21.8540 C.3       3 GLC5        0.0000 
     16 CA        -26.4270   -4.7070   20.9760 C.3       9 GLL5        0.0000 
     17 CA        -22.9800   -5.9860   22.7320 C.3       6 GLP5        0.0000 
     18 O         -22.1575   -3.3025   11.8920 O.2       1 ALC1        0.0000 
     19 O         -22.9500   -2.8950   13.0170 O.2       7 ALL1        0.0000 
     20 O         -21.3650   -3.7100   10.7670 O.2       4 ALP1        0.0000 
     21 N         -20.1465   -4.1665   13.3355 N.am      2 SEC2        0.0000 
     22 N         -21.3930   -4.3080   13.9570 N.am      8 SEL2        0.0000 
     23 N         -18.9000   -4.0250   12.7140 N.am      5 SEP2        0.0000 
     24 CA        -28.8470   -3.5735   16.5955 C.3       3 GLC5        0.0000 
     25 CA        -28.3990   -2.3040   17.2720 C.3       9 GLL5        0.0000 
     26 CA        -29.4695   -0.5055   13.6575 C.3       3 GLC5        0.0000 
     27 CA        -29.1130   -0.9090   15.6580 C.3       9 GLL5        0.0000 
     28 CA        -25.0463   -0.2963   13.5852 C.3       3 GLC5        0.0000 
     29 CA        -23.5180    0.9570   12.8590 C.3       6 GLP5        0.0000 
     30 CA        -24.4428   -6.3065   16.2392 C.3       3 GLC5        0.0000 
     31 CA        -23.4020   -5.2640   17.6240 C.3       9 GLL5        0.0000 
     32 CA        -24.8350   -7.6640   14.7330 C.3       6 GLP5        0.0000 
     33 CA        -31.1498   -3.2388   22.3083 C.3       3 GLC5        0.0000 
     34 CA        -29.0850   -2.8440   23.5230 C.3       9 GLL5        0.0000 
     35 CA        -32.5460   -4.0030   20.9680 C.3       6 GLP5        0.0000 
     36 CA        -28.8740   -5.0168   23.9310 C.3       3 GLC5        0.0000 
     37 CA        -29.0480   -7.1030   23.6740 C.3       6 GLP5        0.0000 
     38 CA        -26.4075   -1.8230   24.5940 C.3       3 GLC5        0.0000 
     39 CA        -24.6230   -1.3310   24.0190 C.3       6 GLP5        0.0000 
     40 CA        -25.8878   -2.2217   22.8680 C.3       3 GLC5        0.0000 
     41 CA        -27.1430   -4.0200   22.0610 C.3       9 GLL5        0.0000 
     42 CA        -28.6086   -4.4192   20.4794 C.3       3 GLC5        0.0000 
     43 CA        -27.3880   -2.5920   21.9420 C.3       9 GLL5        0.0000 
     44 CA        -30.3710   -4.8320   19.4700 C.3       6 GLP5        0.0000 
     45 CA        -21.9290   -6.7253   16.9635 C.3       3 GLC5        0.0000 
     46 CA        -20.8210   -8.3330   16.9350 C.3       6 GLP5        0.0000 
     47 CA        -24.0624   -6.0051   15.3301 C.3       3 GLC5        0.0000 
     48 CA        -22.6720   -4.9710   16.3600 C.3       9 GLL5        0.0000 
     49 CA        -23.8567    1.3582   19.0925 C.3       3 GLC5        0.0000 
     50 CA        -24.5160    1.0090   17.0070 C.3       9 GLL5        0.0000 
     51 CA        -22.6590    1.5040   20.7090 C.3       6 GLP5        0.0000 
     52 CA        -29.6303   -2.3830   15.6498 C.3       3 GLC5        0.0000 
     53 CA        -30.4360   -3.8130   15.0150 C.3       6 GLP5        0.0000 
     54 CA        -30.0026   -2.6505   18.0735 C.3       3 GLC5        0.0000 
     55 CA        -31.3380   -3.8040   18.8310 C.3       6 GLP5        0.0000 
     56 CA        -30.7776   -0.3578   16.4795 C.3       3 GLC5        0.0000 
     57 CA        -29.3350   -0.3830   17.8090 C.3       9 GLL5        0.0000 
     58 CA        -32.5310    0.0840   16.4500 C.3       6 GLP5        0.0000 
@<TRIPOS>BOND
@<TRIPOS>SUBSTRUCTURE
     1 ALC1       18 GROUP        1 X    ALC  0     ROOT ALC X 1
     2 SEC2        9 GROUP        1 X    SEC  0     **** SEC X 2
     3 GLC5        1 GROUP        1 X    GLC  0     **** GLC X 6
     4 ALP1       20 GROUP        1 Y    ALP  0     ROOT ALP Y 8
     5 SEP2       11 GROUP        1 Y    SEP  0     **** SEP Y 9
     6 GLP5        3 GROUP        1 Y    GLP  0     **** GLP Y 13
     7 ALL1       19 GROUP        1 Z    ALL  0     ROOT ALL Z 15
     8 SEL2       10 GROUP        1 Z    SEL  0     **** SEL Z 16
     9 GLL5        2 GROUP        1 Z    GLL  0     **** GLL Z 20
@<TRIPOS>SET

