#    Name: 2xnp_WCX_1_ligand
#    Modification time : Tue Mar 25 06:25:02 2014

@<TRIPOS>MOLECULE
2xnp_WCX_1_ligand
   69    73     1     0     0
SMALL
NO_CHARGES


@<TRIPOS>ATOM
      1 C01       -26.8380   -1.2510   13.6490 C.3       1 WCX1280     0.0000 
      2 C02       -26.3110   -1.8480   14.9740 C.3       1 WCX1280     0.0000 
      3 O03       -25.0880   -2.4870   14.6880 O.3       1 WCX1280     0.0000 
      4 C04       -24.5630   -3.4050   15.6230 C.ar      1 WCX1280     0.0000 
      5 C05       -25.3160   -3.7060   16.8750 C.ar      1 WCX1280     0.0000 
      6 C06       -24.6990   -4.6340   17.8670 C.ar      1 WCX1280     0.0000 
      7 N09       -26.0410   -6.0280   20.8390 N.2       1 WCX1280     0.0000 
      8 C08       -25.3470   -6.1620   19.5960 C.2       1 WCX1280     0.0000 
      9 N07       -25.3090   -4.9020   19.0310 N.pl3     1 WCX1280     0.0000 
     10 C23       -25.9620   -3.9740   19.8690 C.ar      1 WCX1280     0.0000 
     11 C22       -26.2190   -2.5100   19.7450 C.ar      1 WCX1280     0.0000 
     12 C21       -26.9360   -1.8180   20.8040 C.ar      1 WCX1280     0.0000 
     13 C12       -27.3880   -2.5920   21.9420 C.ar      1 WCX1280     0.0000 
     14 O13       -28.0810   -1.9690   23.0030 O.3       1 WCX1280     0.0000 
     15 C14       -29.0850   -2.8440   23.5230 C.3       1 WCX1280     0.0000 
     16 C15       -30.4220   -2.1050   23.7740 C.3       1 WCX1280     0.0000 
     17 C16       -30.1890   -0.7550   24.4930 C.3       1 WCX1280     0.0000 
     18 N17       -29.3360   -0.8500   25.6920 N.4       1 WCX1280     0.0000 
     19 C18       -29.0850    0.4060   26.4420 C.3       1 WCX1280     0.0000 
     20 C19       -28.0690   -1.6130   25.4850 C.3       1 WCX1280     0.0000 
     21 C20       -28.3150   -3.0170   24.8530 C.3       1 WCX1280     0.0000 
     22 C11       -27.1430   -4.0200   22.0610 C.ar      1 WCX1280     0.0000 
     23 C10       -26.4270   -4.7070   20.9760 C.ar      1 WCX1280     0.0000 
     24 C24       -23.4020   -5.2640   17.6240 C.ar      1 WCX1280     0.0000 
     25 C25       -22.6720   -4.9710   16.3600 C.ar      1 WCX1280     0.0000 
     26 C26       -23.2520   -4.0380   15.3660 C.ar      1 WCX1280     0.0000 
     27 C27       -22.4350   -3.7670   14.0760 C.2       1 WCX1280     0.0000 
     28 N28       -22.9500   -2.8950   13.0170 N.am      1 WCX1280     0.0000 
     29 O29       -21.3930   -4.3080   13.9570 O.2       1 WCX1280     0.0000 
     30 C30       -26.0460   -0.7240   16.0120 C.ar      1 WCX1280     0.0000 
     31 C31       -24.7430   -0.0600   16.0460 C.ar      1 WCX1280     0.0000 
     32 C32       -24.5160    1.0090   17.0070 C.ar      1 WCX1280     0.0000 
     33 C33       -25.5930    1.4160   17.9450 C.ar      1 WCX1280     0.0000 
     34 C34       -26.9240    0.7480   17.9050 C.ar      1 WCX1280     0.0000 
     35 C35       -27.1460   -0.2940   16.9540 C.ar      1 WCX1280     0.0000 
     36 C36       -28.5360   -0.9970   16.9110 C.3       1 WCX1280     0.0000 
     37 F39       -29.3350   -0.3830   17.8090 F         1 WCX1280     0.0000 
     38 F38       -28.3990   -2.3040   17.2720 F         1 WCX1280     0.0000 
     39 F37       -29.1130   -0.9090   15.6580 F         1 WCX1280     0.0000 
     40 H         -27.0387   -2.5107   15.3638 H         1 WCX1280     0.0000 
     41 H         -26.1961   -3.3034   17.0423 H         1 WCX1280     0.0000 
     42 H         -24.9992   -6.9570   19.2584 H         1 WCX1280     0.0000 
     43 H         -25.8952   -2.0250   18.9365 H         1 WCX1280     0.0000 
     44 H         -27.1100   -0.8405   20.7463 H         1 WCX1280     0.0000 
     45 H         -29.1526   -3.7184   23.0559 H         1 WCX1280     0.0000 
     46 H         -31.0620   -2.7297   24.3901 H         1 WCX1280     0.0000 
     47 H         -30.9093   -1.9204   22.8211 H         1 WCX1280     0.0000 
     48 H         -31.1814   -0.3406   24.7562 H         1 WCX1280     0.0000 
     49 H         -29.7456   -0.0564   23.7573 H         1 WCX1280     0.0000 
     50 H         -29.9351   -1.5195   26.4443 H         1 WCX1280     0.0000 
     51 H         -27.5518   -1.7616   26.4404 H         1 WCX1280     0.0000 
     52 H         -27.3940   -1.0602   24.8208 H         1 WCX1280     0.0000 
     53 H         -27.3656   -3.4844   24.6595 H         1 WCX1280     0.0000 
     54 H         -28.9023   -3.6084   25.5331 H         1 WCX1280     0.0000 
     55 H         -27.4509   -4.5295   22.8584 H         1 WCX1280     0.0000 
     56 H         -23.0006   -5.8852   18.2907 H         1 WCX1280     0.0000 
     57 H         -21.7911   -5.4052   16.1850 H         1 WCX1280     0.0000 
     58 H         -22.3402   -2.7392   12.2399 H         1 WCX1280     0.0000 
     59 H         -23.8691   -2.5271   13.1581 H         1 WCX1280     0.0000 
     60 H         -24.0196   -0.3396   15.4155 H         1 WCX1280     0.0000 
     61 H         -23.6308    1.4820   17.0463 H         1 WCX1280     0.0000 
     62 H         -25.4254    2.1442   18.6096 H         1 WCX1280     0.0000 
     63 H         -27.6311    1.0440   18.5442 H         1 WCX1280     0.0000 
     64 H         -26.1989   -0.5871   13.2607 H         1 WCX1280     0.0000 
     65 H         -26.9845   -1.9568   12.9559 H         1 WCX1280     0.0000 
     66 H         -27.7104   -0.7788   13.7754 H         1 WCX1280     0.0000 
     67 H         -28.4980    0.2529   27.2369 H         1 WCX1280     0.0000 
     68 H         -28.6347    1.0944   25.8734 H         1 WCX1280     0.0000 
     69 H         -29.9339    0.8135   26.7787 H         1 WCX1280     0.0000 
@<TRIPOS>BOND
     1    2    1 1    
     2   64    1 1    
     3   65    1 1    
     4   66    1 1    
     5    3    2 1    
     6   30    2 1    
     7   40    2 1    
     8    4    3 1    
     9    5    4 ar   
    10   26    4 ar   
    11    6    5 ar   
    12   41    5 1    
    13    9    6 1    
    14   24    6 ar   
    15    8    7 2    
    16   23    7 1    
    17    9    8 1    
    18   42    8 1    
    19   10    9 1    
    20   11   10 ar   
    21   23   10 ar   
    22   12   11 ar   
    23   43   11 1    
    24   13   12 ar   
    25   44   12 1    
    26   14   13 1    
    27   22   13 ar   
    28   15   14 1    
    29   16   15 1    
    30   21   15 1    
    31   45   15 1    
    32   17   16 1    
    33   46   16 1    
    34   47   16 1    
    35   18   17 1    
    36   48   17 1    
    37   49   17 1    
    38   19   18 1    
    39   20   18 1    
    40   50   18 1    
    41   67   19 1    
    42   68   19 1    
    43   69   19 1    
    44   21   20 1    
    45   51   20 1    
    46   52   20 1    
    47   53   21 1    
    48   54   21 1    
    49   23   22 ar   
    50   55   22 1    
    51   25   24 ar   
    52   56   24 1    
    53   26   25 ar   
    54   57   25 1    
    55   27   26 1    
    56   28   27 am   
    57   29   27 2    
    58   58   28 1    
    59   59   28 1    
    60   31   30 ar   
    61   35   30 ar   
    62   32   31 ar   
    63   60   31 1    
    64   33   32 ar   
    65   61   32 1    
    66   34   33 ar   
    67   62   33 1    
    68   35   34 ar   
    69   63   34 1    
    70   36   35 1    
    71   37   36 1    
    72   38   36 1    
    73   39   36 1    
@<TRIPOS>SUBSTRUCTURE
     1 WCX1280     1 GROUP   
@<TRIPOS>SET

