#    Name: 4euu_BX7_1_INTS_M
#    Modification time : Mon Mar 24 18:41:29 2014

@<TRIPOS>MOLECULE
4euu_BX7_1_INTS_M
   92     0     9     0     0
SMALL
NO_CHARGES


@<TRIPOS>ATOM
      1 CA         -6.0915  -10.9315    6.9415 C.3       3 GLC5        0.0000 
      2 CA         -5.5180  -12.5700    7.7700 C.3       9 GLL5        0.0000 
      3 CA         -6.6650   -9.2930    6.1130 C.3       6 GLP5        0.0000 
      4 CA         -7.1280  -13.1890    8.8650 C.3       3 GLC5        0.0000 
      5 CA         -8.7380  -13.8080    9.9600 C.3       6 GLP5        0.0000 
      6 CA         -5.9420  -13.2680    6.1680 C.3       3 GLC5        0.0000 
      7 CA         -6.3660  -13.9660    4.5660 C.3       6 GLP5        0.0000 
      8 CA         -4.4865  -13.9225    9.1505 C.3       3 GLC5        0.0000 
      9 CA         -3.4550  -15.2750   10.5310 C.3       6 GLP5        0.0000 
     10 O           1.0915   -7.7650    8.9295 O.2       1 ALC1        0.0000 
     11 O           1.1410   -7.3720   10.2300 O.2       7 ALL1        0.0000 
     12 O           1.0420   -8.1580    7.6290 O.2       4 ALP1        0.0000 
     13 O          -4.4980   -6.9225   11.6975 O.2       1 ALC1        0.0000 
     14 O          -3.7340   -7.3030   10.5800 O.2       7 ALL1        0.0000 
     15 O          -5.2620   -6.5420   12.8150 O.2       4 ALP1        0.0000 
     16 N          -6.5105   -8.2750   10.6405 N.am      2 SEC2        0.0000 
     17 N          -5.3260   -8.8710    9.9540 N.am      8 SEL2        0.0000 
     18 N          -7.6950   -7.6790   11.3270 N.am      5 SEP2        0.0000 
     19 CA          2.7535   -9.0420    7.3840 C.3       3 GLC5        0.0000 
     20 CA          3.4930   -8.3410    9.1480 C.3       9 GLL5        0.0000 
     21 CA          2.0140   -9.7430    5.6200 C.3       6 GLP5        0.0000 
     22 CA         -1.1455   -5.8205    9.0955 C.3       3 GLC5        0.0000 
     23 CA         -0.1100   -6.8220   10.7120 C.3       9 GLL5        0.0000 
     24 CA         -2.1810   -4.8190    7.4790 C.3       6 GLP5        0.0000 
     25 CA         -1.4420   -7.2260    8.4020 C.3       3 GLC5        0.0000 
     26 CA         -1.3030   -7.4140   10.3810 C.3       9 GLL5        0.0000 
     27 CA         -1.5810   -7.0380    6.4230 C.3       6 GLP5        0.0000 
     28 CA         -0.0405   -3.6620   10.9755 C.3       3 GLC5        0.0000 
     29 CA         -0.0090   -5.6550   11.4580 C.3       9 GLL5        0.0000 
     30 CA         -0.0720   -1.6690   10.4930 C.3       6 GLP5        0.0000 
     31 CA         -1.3295   -8.9180    7.2060 C.3       3 GLC5        0.0000 
     32 CA         -1.0780  -10.7980    7.9890 C.3       9 GLL5        0.0000 
     33 CA          0.4680  -10.2705    6.8045 C.3       3 GLC5        0.0000 
     34 CA         -1.5145  -10.7070    5.9945 C.3       3 GLC5        0.0000 
     35 CA         -1.9510  -10.6160    4.0000 C.3       6 GLP5        0.0000 
     36 CA         -0.0800  -14.7565   10.4760 C.3       3 GLC5        0.0000 
     37 CA         -0.3770  -12.8510    9.4080 C.3       9 GLL5        0.0000 
     38 CA          0.2170  -16.6620   11.5440 C.3       6 GLP5        0.0000 
     39 CA         -1.9160  -14.0630    9.9695 C.3       3 GLC5        0.0000 
     40 CA         -2.5350   -8.7175    7.5625 C.3       3 GLC5        0.0000 
     41 CA         -3.4890  -10.3970    8.7020 C.3       9 GLL5        0.0000 
     42 CA         -3.4235  -10.2740    6.5700 C.3       3 GLC5        0.0000 
     43 CA         -3.3580  -10.1510    4.4380 C.3       6 GLP5        0.0000 
     44 CA         -4.0360   -7.4435    8.2360 C.3       3 GLC5        0.0000 
     45 CA         -4.0680   -8.4990    9.9160 C.3       9 GLL5        0.0000 
     46 CA         -4.0040   -6.3880    6.5560 C.3       6 GLP5        0.0000 
     47 CA         -5.4265   -8.6680   11.6060 C.3       3 GLC5        0.0000 
     48 CA         -6.7850   -8.8370   13.2960 C.3       6 GLP5        0.0000 
     49 CA         -3.4675   -9.4120   11.1990 C.3       3 GLC5        0.0000 
     50 CA         -2.8670  -10.3250   12.4820 C.3       6 GLP5        0.0000 
     51 CA         -7.3960   -8.7900    9.3305 C.3       3 GLC5        0.0000 
     52 CA         -5.7690  -10.0080    9.3980 C.3       9 GLL5        0.0000 
     53 CA         -9.0230   -7.5720    9.2630 C.3       6 GLP5        0.0000 
     54 CA         -6.7685  -10.1590   11.2000 C.3       3 GLC5        0.0000 
     55 CA         -7.7680  -10.3100   13.0020 C.3       6 GLP5        0.0000 
     56 CA          1.8410  -11.6455    5.5855 C.3       3 GLC5        0.0000 
     57 CA          1.6680  -13.5480    5.5510 C.3       9 GLL5        0.0000 
     58 CA          3.3720  -12.6180    3.7020 C.3       3 GLC5        0.0000 
     59 CA          2.0930  -14.1550    4.2020 C.3       9 GLL5        0.0000 
     60 CA          4.6510  -11.0810    3.2020 C.3       6 GLP5        0.0000 
     61 CA         -0.7268  -16.1373    3.2965 C.3       3 GLC5        0.0000 
     62 CA         -0.0230  -15.3980    4.9410 C.3       9 GLL5        0.0000 
     63 CA         -2.0430  -16.9620    2.1980 C.3       6 GLP5        0.0000 
     64 CA         -0.2402  -16.3903    6.8167 C.3       3 GLC5        0.0000 
     65 CA         -0.7110  -17.9600    8.1710 C.3       6 GLP5        0.0000 
     66 CA          6.6020   -9.0150    8.3807 C.3       3 GLC5        0.0000 
     67 CA          4.9540   -8.3100    8.7110 C.3       9 GLL5        0.0000 
     68 CA          7.8550   -9.9510    7.4250 C.3       6 GLP5        0.0000 
     69 CA          3.6960   -6.4350    9.5403 C.3       3 GLC5        0.0000 
     70 CA          2.8050   -4.8850    8.9140 C.3       6 GLP5        0.0000 
     71 CA         -1.3138   -7.1605   12.5128 C.3       3 GLC5        0.0000 
     72 CA         -1.9210   -7.2030   14.4790 C.3       6 GLP5        0.0000 
     73 CA          1.3728   -5.5617    9.9995 C.3       3 GLC5        0.0000 
     74 CA         -2.3762   -8.7120   11.5440 C.3       3 GLC5        0.0000 
     75 CA         -1.4572  -12.0435   11.0678 C.3       3 GLC5        0.0000 
     76 CA         -0.4580  -11.3030    9.3290 C.3       9 GLL5        0.0000 
     77 CA         -2.4970  -12.0100   12.7670 C.3       6 GLP5        0.0000 
     78 CA         -1.2575   -6.2848   13.0835 C.3       3 GLC5        0.0000 
     79 CA         -2.3025   -5.5125    9.3422 C.3       3 GLC5        0.0000 
     80 CA         -2.3800   -5.6280   11.5800 C.3       9 GLL5        0.0000 
     81 CA         -2.1725   -6.7045   12.8422 C.3       3 GLC5        0.0000 
     82 CA         -2.4680   -6.7840   10.8310 C.3       9 GLL5        0.0000 
     83 CA         -1.6803   -3.4655   11.1890 C.3       3 GLC5        0.0000 
     84 CA         -1.5810   -1.5780   10.6290 C.3       6 GLP5        0.0000 
     85 CA         -5.8153   -9.8049    7.5808 C.3       3 GLC5        0.0000 
     86 CA         -3.9162  -10.3209   10.7652 C.3       3 GLC5        0.0000 
     87 CA         -4.8350  -10.8540    8.6960 C.3       9 GLL5        0.0000 
     88 CA          3.4962  -14.7255    3.2392 C.3       3 GLC5        0.0000 
     89 CA          5.3450  -14.7600    2.4530 C.3       6 GLP5        0.0000 
     90 CA         -0.3023  -13.2968    4.4066 C.3       3 GLC5        0.0000 
     91 CA          1.2020  -15.2270    3.8490 C.3       9 GLL5        0.0000 
     92 CA         -1.9030  -12.1560    4.0470 C.3       6 GLP5        0.0000 
@<TRIPOS>BOND
@<TRIPOS>SUBSTRUCTURE
     1 ALC1       10 GROUP        1 X    ALC  0     ROOT ALC X 1
     2 SEC2       16 GROUP        1 X    SEC  0     **** SEC X 2
     3 GLC5        1 GROUP        1 X    GLC  0     **** GLC X 6
     4 ALP1       12 GROUP        1 Y    ALP  0     ROOT ALP Y 8
     5 SEP2       18 GROUP        1 Y    SEP  0     **** SEP Y 9
     6 GLP5        3 GROUP        1 Y    GLP  0     **** GLP Y 13
     7 ALL1       11 GROUP        1 Z    ALL  0     ROOT ALL Z 15
     8 SEL2       17 GROUP        1 Z    SEL  0     **** SEL Z 16
     9 GLL5        2 GROUP        1 Z    GLL  0     **** GLL Z 20
@<TRIPOS>SET

