#    Name: 4euu_BX7_1_ligand
#    Modification time : Mon Mar 24 18:41:29 2014

@<TRIPOS>MOLECULE
4euu_BX7_1_ligand
   60    63     1     0     0
SMALL
NO_CHARGES


@<TRIPOS>ATOM
      1 I01        -5.5180  -12.5700    7.7700 I         1 BX7401      0.0000 
      2 S02        -0.0230  -15.3980    4.9410 S.3       1 BX7401      0.0000 
      3 O03         2.3130   -6.8020   12.1170 O.2       1 BX7401      0.0000 
      4 O04        -1.4990  -14.1350    7.3370 O.2       1 BX7401      0.0000 
      5 N05         3.5350   -7.7730   10.4210 N.am      1 BX7401      0.0000 
      6 N06         1.1410   -7.3720   10.2300 N.am      1 BX7401      0.0000 
      7 N07        -2.4770  -11.2210    8.0080 N.pl3     1 BX7401      0.0000 
      8 N08        -3.7340   -7.3030   10.5800 N.pl3     1 BX7401      0.0000 
      9 N09         0.4390  -13.2430    8.2820 N.am      1 BX7401      0.0000 
     10 N10        -3.1380   -9.2480    9.2660 N.ar      1 BX7401      0.0000 
     11 N11        -5.3260   -8.8710    9.9540 N.ar      1 BX7401      0.0000 
     12 C12         5.7440   -7.8480    9.9620 C.3       1 BX7401      0.0000 
     13 C13         4.9540   -8.3100    8.7110 C.3       1 BX7401      0.0000 
     14 C14         3.4930   -8.3410    9.1480 C.3       1 BX7401      0.0000 
     15 C15         4.7530   -7.7600   11.0910 C.3       1 BX7401      0.0000 
     16 C16         2.3500   -7.2840   11.0080 C.2       1 BX7401      0.0000 
     17 C17        -0.1100   -6.8220   10.7120 C.ar      1 BX7401      0.0000 
     18 C18        -1.3030   -7.4140   10.3810 C.ar      1 BX7401      0.0000 
     19 C19        -0.4580  -11.3030    9.3290 C.3       1 BX7401      0.0000 
     20 C20        -0.0090   -5.6550   11.4580 C.ar      1 BX7401      0.0000 
     21 C21        -1.0780  -10.7980    7.9890 C.3       1 BX7401      0.0000 
     22 C22        -2.4680   -6.7840   10.8310 C.ar      1 BX7401      0.0000 
     23 C23        -0.3770  -12.8510    9.4080 C.3       1 BX7401      0.0000 
     24 C24        -1.1790   -5.0780   11.9180 C.ar      1 BX7401      0.0000 
     25 C25        -2.3800   -5.6280   11.5800 C.ar      1 BX7401      0.0000 
     26 C26        -3.4890  -10.3970    8.7020 C.ar      1 BX7401      0.0000 
     27 C27        -4.0680   -8.4990    9.9160 C.ar      1 BX7401      0.0000 
     28 C28        -4.8350  -10.8540    8.6960 C.ar      1 BX7401      0.0000 
     29 C29        -0.2830  -13.8960    7.2450 C.2       1 BX7401      0.0000 
     30 C30        -5.7690  -10.0080    9.3980 C.ar      1 BX7401      0.0000 
     31 C31         0.4840  -14.2430    5.9840 C.2       1 BX7401      0.0000 
     32 C32         1.6680  -13.5480    5.5510 C.2       1 BX7401      0.0000 
     33 C33         2.0930  -14.1550    4.2020 C.2       1 BX7401      0.0000 
     34 C34         1.2020  -15.2270    3.8490 C.2       1 BX7401      0.0000 
     35 H           1.1621   -7.8312    9.3185 H         1 BX7401      0.0000 
     36 H          -2.7572  -12.0683    7.5527 H         1 BX7401      0.0000 
     37 H          -4.5731   -6.7177   10.9382 H         1 BX7401      0.0000 
     38 H           1.3940  -13.0709    8.2471 H         1 BX7401      0.0000 
     39 H           6.1727   -6.8861    9.7620 H         1 BX7401      0.0000 
     40 H           6.4991   -8.5768   10.1803 H         1 BX7401      0.0000 
     41 H           5.2750   -9.2865    8.4371 H         1 BX7401      0.0000 
     42 H           5.0880   -7.5984    7.9317 H         1 BX7401      0.0000 
     43 H           2.9264   -7.7607    8.4434 H         1 BX7401      0.0000 
     44 H           3.1723   -9.3663    9.1517 H         1 BX7401      0.0000 
     45 H           4.8917   -8.6131   11.7298 H         1 BX7401      0.0000 
     46 H           4.9301   -6.8446   11.6257 H         1 BX7401      0.0000 
     47 H          -1.3510   -8.2633    9.8394 H         1 BX7401      0.0000 
     48 H          -1.0677  -10.9364   10.1562 H         1 BX7401      0.0000 
     49 H           0.5467  -10.8891    9.4270 H         1 BX7401      0.0000 
     50 H           0.8958   -5.2406   11.6580 H         1 BX7401      0.0000 
     51 H          -0.9844   -9.7289    7.9662 H         1 BX7401      0.0000 
     52 H          -0.5341  -11.2534    7.1833 H         1 BX7401      0.0000 
     53 H           0.0758  -13.1086   10.3460 H         1 BX7401      0.0000 
     54 H          -1.3761  -13.2360    9.3382 H         1 BX7401      0.0000 
     55 H          -1.1337   -4.2366   12.5128 H         1 BX7401      0.0000 
     56 H          -3.2658   -5.1651   11.8945 H         1 BX7401      0.0000 
     57 H          -6.7439  -10.3115    9.4451 H         1 BX7401      0.0000 
     58 H           2.1200  -12.8746    5.9543 H         1 BX7401      0.0000 
     59 H           2.8204  -13.8389    3.7316 H         1 BX7401      0.0000 
     60 H           1.2186  -15.8050    3.1316 H         1 BX7401      0.0000 
@<TRIPOS>BOND
     1   28    1 1    
     2   31    2 1    
     3   34    2 1    
     4   16    3 2    
     5   29    4 2    
     6   14    5 1    
     7   15    5 1    
     8   16    5 am   
     9   16    6 am   
    10   17    6 1    
    11   35    6 1    
    12   21    7 1    
    13   26    7 1    
    14   36    7 1    
    15   22    8 1    
    16   27    8 1    
    17   37    8 1    
    18   23    9 1    
    19   29    9 am   
    20   38    9 1    
    21   26   10 ar   
    22   27   10 ar   
    23   27   11 ar   
    24   30   11 ar   
    25   13   12 1    
    26   15   12 1    
    27   39   12 1    
    28   40   12 1    
    29   14   13 1    
    30   41   13 1    
    31   42   13 1    
    32   43   14 1    
    33   44   14 1    
    34   45   15 1    
    35   46   15 1    
    36   18   17 ar   
    37   20   17 ar   
    38   22   18 ar   
    39   47   18 1    
    40   21   19 1    
    41   23   19 1    
    42   48   19 1    
    43   49   19 1    
    44   24   20 ar   
    45   50   20 1    
    46   51   21 1    
    47   52   21 1    
    48   25   22 ar   
    49   53   23 1    
    50   54   23 1    
    51   25   24 ar   
    52   55   24 1    
    53   56   25 1    
    54   28   26 ar   
    55   30   28 ar   
    56   31   29 1    
    57   57   30 1    
    58   32   31 2    
    59   33   32 1    
    60   58   32 1    
    61   34   33 2    
    62   59   33 1    
    63   60   34 1    
@<TRIPOS>SUBSTRUCTURE
     1 BX7401      1 GROUP   
@<TRIPOS>SET

