#    Name: 4knm_E1E_2_INTS_M
#    Modification time : Tue Mar 25 08:06:29 2014

@<TRIPOS>MOLECULE
4knm_E1E_2_INTS_M
   43     0    12     0     0
SMALL
NO_CHARGES


@<TRIPOS>ATOM
      1 CA         19.3570   29.4215   34.7755 C.3       4 GLC5        0.0000 
      2 CA         18.9010   30.6930   36.3520 C.3      12 GLL5        0.0000 
      3 CA         19.8130   28.1500   33.1990 C.3       8 GLP5        0.0000 
      4 CA         17.2765   33.3650   36.1890 C.3       4 GLC5        0.0000 
      5 CA         16.5760   31.2860   36.1710 C.3      12 GLL5        0.0000 
      6 CA         17.9770   35.4440   36.2070 C.3       8 GLP5        0.0000 
      7 CA         19.0005   29.8265   33.5565 C.3       4 GLC5        0.0000 
      8 CA         18.1880   31.5030   33.9140 C.3      12 GLL5        0.0000 
      9 CA         20.1575   31.9685   33.4090 C.3       4 GLC5        0.0000 
     10 CA         22.1270   32.4340   32.9040 C.3       8 GLP5        0.0000 
     11 CA         17.6460   31.0055   32.3995 C.3       4 GLC5        0.0000 
     12 CA         17.1040   30.5080   30.8850 C.3       8 GLP5        0.0000 
     13 CA         18.4655   33.0735   32.5915 C.3       4 GLC5        0.0000 
     14 CA         18.7430   34.6440   31.2690 C.3       8 GLP5        0.0000 
     15 O          13.0850   32.9260   36.3875 O.2       1 ALC1        0.0000 
     16 O          13.9010   31.6610   36.3870 O.2       9 ALL1        0.0000 
     17 O          12.2690   34.1910   36.3880 O.2       5 ALP1        0.0000 
     18 Zn         13.2390   31.0665   36.1215 Zn        3 ZIC7        0.0000 
     19 Zn         13.9010   31.6610   36.3870 Zn       11 ZIL7        0.0000 
     20 Zn         12.5770   30.4720   35.8560 Zn        7 ZIP7        0.0000 
     21 N          15.1135   34.4540   35.1795 N.am      2 SEC2        0.0000 
     22 N          15.4310   33.3060   34.4950 N.am     10 SEL2        0.0000 
     23 N          14.7960   35.6020   35.8640 N.am      6 SEP2        0.0000 
     24 CA         23.9475   31.1135   37.6950 C.3       4 GLC5        0.0000 
     25 CA         23.7950   32.9940   38.6600 C.3      12 GLL5        0.0000 
     26 CA         24.1000   29.2330   36.7300 C.3       8 GLP5        0.0000 
     27 CA         24.5530   33.1905   36.9275 C.3       4 GLC5        0.0000 
     28 CA         25.3110   33.3870   35.1950 C.3       8 GLP5        0.0000 
     29 CA         21.9155   33.6795   38.0710 C.3       4 GLC5        0.0000 
     30 CA         20.0360   34.3650   37.4820 C.3       8 GLP5        0.0000 
     31 CA         23.9645   34.7985   37.9565 C.3       4 GLC5        0.0000 
     32 CA         24.1340   36.6030   37.2530 C.3       8 GLP5        0.0000 
     33 CA         19.4153   32.4540   37.2477 C.3       4 GLC5        0.0000 
     34 CA         17.2755   29.5005   34.8152 C.3       4 GLC5        0.0000 
     35 CA         17.8320   31.1280   35.5740 C.3      12 GLL5        0.0000 
     36 CA         17.3470   27.7940   33.7580 C.3       8 GLP5        0.0000 
     37 CA         18.9315   32.8032   34.7665 C.3       4 GLC5        0.0000 
     38 CA         19.8530   34.2910   34.7890 C.3       8 GLP5        0.0000 
     39 CA         16.5636   32.1254   38.7392 C.3       4 GLC5        0.0000 
     40 CA         16.1700   33.4340   39.9200 C.3       8 GLP5        0.0000 
     41 CA         27.1804   30.0275   39.6780 C.3       4 GLC5        0.0000 
     42 CA         25.1000   29.9710   40.5750 C.3      12 GLL5        0.0000 
     43 CA         28.9550   29.6070   38.9620 C.3       8 GLP5        0.0000 
@<TRIPOS>BOND
@<TRIPOS>SUBSTRUCTURE
     1 ALC1       15 GROUP        1 X    ALC  0     ROOT ALC X 1
     2 SEC2       21 GROUP        1 X    SEC  0     **** SEC X 2
     3 ZIC7       18 GROUP        1 X    ZIC  0     **** ZIC X 5
     4 GLC5        1 GROUP        1 X    GLC  0     **** GLC X 6
     5 ALP1       17 GROUP        1 Y    ALP  0     ROOT ALP Y 8
     6 SEP2       23 GROUP        1 Y    SEP  0     **** SEP Y 9
     7 ZIP7       20 GROUP        1 Y    ZIP  0     **** ZIP Y 12
     8 GLP5        3 GROUP        1 Y    GLP  0     **** GLP Y 13
     9 ALL1       16 GROUP        1 Z    ALL  0     ROOT ALL Z 15
    10 SEL2       22 GROUP        1 Z    SEL  0     **** SEL Z 16
    11 ZIL7       19 GROUP        1 Z    ZIL  0     **** ZIL Z 19
    12 GLL5        2 GROUP        1 Z    GLL  0     **** GLL Z 20
@<TRIPOS>SET

