#    Name: 4knm_E1E_2_ligand
#    Modification time : Tue Mar 25 08:06:29 2014

@<TRIPOS>MOLECULE
4knm_E1E_2_ligand
   36    37     1     0     0
SMALL
NO_CHARGES


@<TRIPOS>ATOM
      1 C2         18.9010   30.6930   36.3520 C.ar      1 E1E302      0.0000 
      2 C4         16.5760   31.2860   36.1710 C.ar      1 E1E302      0.0000 
      3 C5         16.3810   30.9450   37.5030 C.ar      1 E1E302      0.0000 
      4 CL1        18.1880   31.5030   33.9140 Cl        1 E1E302      0.0000 
      5 C3         17.8320   31.1280   35.5740 C.ar      1 E1E302      0.0000 
      6 S6         15.1720   31.8400   35.1590 S.o2      1 E1E302      0.0000 
      7 O8         15.0030   30.7110   34.1200 O.2       1 E1E302      0.0000 
      8 N11        13.9010   31.6610   36.3870 N.pl3     1 E1E302      0.0000 
      9 O7         15.4310   33.3060   34.4950 O.2       1 E1E302      0.0000 
     10 C22        18.6880   30.3930   37.6750 C.ar      1 E1E302      0.0000 
     11 C1         17.4360   30.5180   38.2800 C.ar      1 E1E302      0.0000 
     12 C9         19.8790   29.8610   38.3860 C.2       1 E1E302      0.0000 
     13 O12        20.6330   29.1330   37.6930 O.2       1 E1E302      0.0000 
     14 C10        20.1250   30.0470   39.8600 C.3       1 E1E302      0.0000 
     15 S13        21.2960   28.7270   40.3630 S.3       1 E1E302      0.0000 
     16 C14        22.7710   29.7170   40.1400 C.ar      1 E1E302      0.0000 
     17 N17        23.9500   29.2510   40.6650 N.ar      1 E1E302      0.0000 
     18 C18        25.1000   29.9710   40.5750 C.ar      1 E1E302      0.0000 
     19 C21        26.3150   29.3790   41.1910 C.3       1 E1E302      0.0000 
     20 C19        25.1040   31.2210   39.9050 C.ar      1 E1E302      0.0000 
     21 C16        23.8810   31.6840   39.3670 C.ar      1 E1E302      0.0000 
     22 N15        22.7480   30.9160   39.4920 N.ar      1 E1E302      0.0000 
     23 C20        23.7950   32.9940   38.6600 C.3       1 E1E302      0.0000 
     24 H          19.8329   30.6005   35.9345 H         1 E1E302      0.0000 
     25 H          15.4326   31.0138   37.9117 H         1 E1E302      0.0000 
     26 H          17.3150   30.2986   39.2644 H         1 E1E302      0.0000 
     27 H          19.2984   29.8412   40.4720 H         1 E1E302      0.0000 
     28 H          20.6622   30.9128   40.1092 H         1 E1E302      0.0000 
     29 H          25.9478   31.7577   39.8167 H         1 E1E302      0.0000 
     30 H          27.1129   29.9719   41.0825 H         1 E1E302      0.0000 
     31 H          26.1962   29.2240   42.1717 H         1 E1E302      0.0000 
     32 H          26.5472   28.4971   40.7808 H         1 E1E302      0.0000 
     33 H          24.0563   33.7546   39.2543 H         1 E1E302      0.0000 
     34 H          24.3967   33.0255   37.8619 H         1 E1E302      0.0000 
     35 H          22.8677   33.1808   38.3356 H         1 E1E302      0.0000 
     36 H          13.6925   32.5937   36.6812 H         1 E1E302      0.0000 
@<TRIPOS>BOND
     1    5    1 ar   
     2   10    1 ar   
     3   24    1 1    
     4    3    2 ar   
     5    5    2 ar   
     6    6    2 1    
     7   11    3 ar   
     8   25    3 1    
     9    5    4 1    
    10    7    6 2    
    11    8    6 1    
    12    9    6 2    
    13   36    8 1    
    14   11   10 ar   
    15   12   10 1    
    16   26   11 1    
    17   13   12 2    
    18   14   12 1    
    19   15   14 1    
    20   27   14 1    
    21   28   14 1    
    22   16   15 1    
    23   17   16 ar   
    24   22   16 ar   
    25   18   17 ar   
    26   19   18 1    
    27   20   18 ar   
    28   30   19 1    
    29   31   19 1    
    30   32   19 1    
    31   21   20 ar   
    32   29   20 1    
    33   22   21 ar   
    34   23   21 1    
    35   33   23 1    
    36   34   23 1    
    37   35   23 1    
@<TRIPOS>SUBSTRUCTURE
     1 E1E302      1 GROUP   
@<TRIPOS>SET

