#    Name: 3utu_1TS_1_INTS_M
#    Modification time : Mon Mar 24 23:33:24 2014

@<TRIPOS>MOLECULE
3utu_1TS_1_INTS_M
   91     0     9     0     0
SMALL
NO_CHARGES


@<TRIPOS>ATOM
      1 CA         22.5335  -11.7785   27.1990 C.3       3 GLC5        0.0000 
      2 CA         20.8370  -12.1460   26.6850 C.3       9 GLL5        0.0000 
      3 CA         24.2300  -11.4110   27.7130 C.3       6 GLP5        0.0000 
      4 CA         21.2190  -12.6435   28.6105 C.3       3 GLC5        0.0000 
      5 CA         21.6010  -13.1410   30.5360 C.3       6 GLP5        0.0000 
      6 CA         19.2360  -11.6165   26.9440 C.3       3 GLC5        0.0000 
      7 CA         17.6350  -11.0870   27.2030 C.3       6 GLP5        0.0000 
      8 CA         24.1315  -13.1365   22.0375 C.3       3 GLC5        0.0000 
      9 CA         23.9730  -13.3580   24.1640 C.3       9 GLL5        0.0000 
     10 CA         24.2900  -12.9150   19.9110 C.3       6 GLP5        0.0000 
     11 CA         24.1015  -12.3845   25.9385 C.3       3 GLC5        0.0000 
     12 CA         23.5180  -11.7545   23.3865 C.3       3 GLC5        0.0000 
     13 CA         23.0630  -10.1510   22.6090 C.3       6 GLP5        0.0000 
     14 CA         23.0215  -12.6240   26.3030 C.3       3 GLC5        0.0000 
     15 CA         21.8130  -13.8370   24.8930 C.3       9 GLL5        0.0000 
     16 CA         18.5335  -12.4965   25.1940 C.3       3 GLC5        0.0000 
     17 CA         19.6800  -14.3240   25.7610 C.3       9 GLL5        0.0000 
     18 CA         17.3870  -10.6690   24.6270 C.3       6 GLP5        0.0000 
     19 O          15.7985  -15.1455   24.1880 O.2       1 ALC1        0.0000 
     20 O          17.1750  -15.7780   23.8350 O.2       7 ALL1        0.0000 
     21 O          14.4220  -14.5130   24.5410 O.2       4 ALP1        0.0000 
     22 N          15.7590  -12.6520   23.9175 N.am      2 SEC2        0.0000 
     23 N          16.7870  -13.3640   22.8960 N.am      8 SEL2        0.0000 
     24 N          14.7310  -11.9400   24.9390 N.am      5 SEP2        0.0000 
     25 CA         13.2370  -18.5700   27.5470 C.3       3 GLC5        0.0000 
     26 CA         12.8160  -20.3110   27.1020 C.3       9 GLL5        0.0000 
     27 CA         13.6580  -16.8290   27.9920 C.3       6 GLP5        0.0000 
     28 CA         18.0500  -15.9535   19.5775 C.3       3 GLC5        0.0000 
     29 CA         16.8720  -16.1360   21.3880 C.3       9 GLL5        0.0000 
     30 CA         19.2280  -15.7710   17.7670 C.3       6 GLP5        0.0000 
     31 CA         17.9175  -11.4230   22.8780 C.3       3 GLC5        0.0000 
     32 CA         18.4480  -12.1770   21.1290 C.3       9 GLL5        0.0000 
     33 CA         19.5050  -13.4055   18.4345 C.3       3 GLC5        0.0000 
     34 CA         19.5280  -12.0160   20.0730 C.3       9 GLL5        0.0000 
     35 CA         19.4820  -14.7950   16.7960 C.3       6 GLP5        0.0000 
     36 O          16.7065   -9.8895   21.3115 O.2       1 ALC1        0.0000 
     37 O          16.3280  -11.0690   20.4540 O.2       7 ALL1        0.0000 
     38 O          17.0850   -8.7100   22.1690 O.2       4 ALP1        0.0000 
     39 CA         15.1785   -9.0830   18.5910 C.3       3 GLC5        0.0000 
     40 CA         15.0790  -10.8690   19.7970 C.3       9 GLL5        0.0000 
     41 CA         15.2780   -7.2970   17.3850 C.3       6 GLP5        0.0000 
     42 CA         10.8045   -8.4865   22.2015 C.3       3 GLC5        0.0000 
     43 CA         12.5010   -9.7550   22.2480 C.3       9 GLL5        0.0000 
     44 CA          9.1080   -7.2180   22.1550 C.3       6 GLP5        0.0000 
     45 CA         10.0875   -9.0420   23.0115 C.3       3 GLC5        0.0000 
     46 CA         11.0670  -10.8660   23.8680 C.3       9 GLL5        0.0000 
     47 CA         11.0720   -9.8960   25.8565 C.3       3 GLC5        0.0000 
     48 CA         11.0770   -8.9260   27.8450 C.3       6 GLP5        0.0000 
     49 O           9.4530   -9.6665   25.1210 O.2       1 ALC1        0.0000 
     50 O          10.8020   -9.8930   24.4720 O.2       7 ALL1        0.0000 
     51 O           8.1040   -9.4400   25.7700 O.2       4 ALP1        0.0000 
     52 O           9.1770  -11.7905   24.9180 O.2       1 ALC1        0.0000 
     53 O          10.3980  -11.9280   24.1010 O.2       7 ALL1        0.0000 
     54 O           7.9560  -11.6530   25.7350 O.2       4 ALP1        0.0000 
     55 O          10.4675  -13.3255   24.1425 O.2       1 ALC1        0.0000 
     56 O          10.5370  -14.7230   24.1840 O.2       4 ALP1        0.0000 
     57 CA         10.7955  -13.0165   21.8385 C.3       3 GLC5        0.0000 
     58 CA         12.6730  -11.9760   22.4630 C.3       9 GLL5        0.0000 
     59 CA          8.9180  -14.0570   21.2140 C.3       6 GLP5        0.0000 
     60 CA         20.9862  -11.6921   24.3233 C.3       3 GLC5        0.0000 
     61 CA         20.7550  -13.5930   25.6870 C.3       9 GLL5        0.0000 
     62 CA         20.6680  -10.0310   23.1070 C.3       6 GLP5        0.0000 
     63 CA         20.7452  -14.9232   27.5810 C.3       3 GLC5        0.0000 
     64 CA         21.2730  -15.8880   29.4380 C.3       6 GLP5        0.0000 
     65 CA         12.1605  -18.4887   23.8122 C.3       3 GLC5        0.0000 
     66 CA         14.2280  -19.6180   23.4990 C.3       9 GLL5        0.0000 
     67 CA         10.6960  -17.0990   24.0460 C.3       6 GLP5        0.0000 
     68 CA         11.8277  -18.6648   24.7548 C.3       3 GLC5        0.0000 
     69 CA         13.3220  -20.1100   26.0220 C.3       9 GLL5        0.0000 
     70 CA         19.1515  -10.5297   19.3740 C.3       3 GLC5        0.0000 
     71 CA         19.3150   -8.9630   18.1470 C.3       6 GLP5        0.0000 
     72 CA         21.8667  -13.9507   20.1367 C.3       3 GLC5        0.0000 
     73 CA         20.3560  -13.2590   20.0790 C.3       9 GLL5        0.0000 
     74 CA         23.7460  -14.1610   19.7780 C.3       6 GLP5        0.0000 
     75 CA         19.6078  -14.7558   19.1313 C.3       3 GLC5        0.0000 
     76 CA         20.1700  -11.3544   21.7235 C.3       3 GLC5        0.0000 
     77 CA         12.7825   -7.8970   21.5430 C.3       3 GLC5        0.0000 
     78 CA         13.4110   -9.7610   21.3260 C.3       9 GLL5        0.0000 
     79 CA         12.6090   -6.0360   21.2990 C.3       6 GLP5        0.0000 
     80 CA         12.6600  -11.7308   24.5772 C.3       3 GLC5        0.0000 
     81 CA         12.0730  -10.8450   22.8530 C.3       9 GLL5        0.0000 
     82 CA         13.7500  -12.6060   25.7940 C.3       6 GLP5        0.0000 
     83 CA         10.6590  -11.1412   21.4096 C.3       3 GLC5        0.0000 
     84 CA          9.1430  -11.0030   19.9830 C.3       6 GLP5        0.0000 
     85 CA         13.4430  -12.2850   23.8865 C.3       3 GLC5        0.0000 
     86 CA         13.5990  -11.9520   21.4950 C.3       9 GLL5        0.0000 
     87 CA         13.6361  -18.0932   25.9653 C.3       3 GLC5        0.0000 
     88 CA         14.5730  -19.5710   25.8720 C.3       9 GLL5        0.0000 
     89 CA         13.4130  -16.3210   26.5750 C.3       6 GLP5        0.0000 
     90 CA         14.4456  -10.4083   23.1019 C.3       3 GLC5        0.0000 
     91 CA         16.0350  -10.0950   24.1620 C.3       6 GLP5        0.0000 
@<TRIPOS>BOND
@<TRIPOS>SUBSTRUCTURE
     1 ALC1       19 GROUP        1 X    ALC  0     ROOT ALC X 1
     2 SEC2       22 GROUP        1 X    SEC  0     **** SEC X 2
     3 GLC5        1 GROUP        1 X    GLC  0     **** GLC X 6
     4 ALP1       21 GROUP        1 Y    ALP  0     ROOT ALP Y 8
     5 SEP2       24 GROUP        1 Y    SEP  0     **** SEP Y 9
     6 GLP5        3 GROUP        1 Y    GLP  0     **** GLP Y 13
     7 ALL1       20 GROUP        1 Z    ALL  0     ROOT ALL Z 15
     8 SEL2       23 GROUP        1 Z    SEL  0     **** SEL Z 16
     9 GLL5        2 GROUP        1 Z    GLL  0     **** GLL Z 20
@<TRIPOS>SET

