#    Name: 3utu_1TS_1_ligand
#    Modification time : Mon Mar 24 23:33:24 2014

@<TRIPOS>MOLECULE
3utu_1TS_1_ligand
   82    85     1     0     0
SMALL
NO_CHARGES


@<TRIPOS>ATOM
      1 S8         18.0850  -16.3870   24.9640 S.o2      1 1TS901      0.0000 
      2 CL         20.8370  -12.1460   26.6850 Cl        1 1TS901      0.0000 
      3 C35        19.5510  -15.4720   24.9520 C.ar      1 1TS901      0.0000 
      4 C10        23.9730  -13.3580   24.1640 C.3       1 1TS901      0.0000 
      5 O9         22.9250  -13.0920   24.9790 O.3       1 1TS901      0.0000 
      6 C5         21.8130  -13.8370   24.8930 C.ar      1 1TS901      0.0000 
      7 O1         18.4230  -17.3820   24.3800 O.2       1 1TS901      0.0000 
      8 O10        17.6440  -16.3220   26.0080 O.2       1 1TS901      0.0000 
      9 C7         20.5770  -15.7130   24.0780 C.ar      1 1TS901      0.0000 
     10 C3         19.6800  -14.3240   25.7610 C.ar      1 1TS901      0.0000 
     11 C6         21.7330  -14.9280   24.0610 C.ar      1 1TS901      0.0000 
     12 C4         20.7550  -13.5930   25.6870 C.ar      1 1TS901      0.0000 
     13 C13        17.6640  -13.9570   22.3680 C.2       1 1TS901      0.0000 
     14 N11        17.1750  -15.7780   23.8350 N.pl3     1 1TS901      0.0000 
     15 O14        16.7870  -13.3640   22.8960 O.2       1 1TS901      0.0000 
     16 C15        14.7330  -19.3660   22.1860 C.3       1 1TS901      0.0000 
     17 C31        14.2280  -19.6180   23.4990 C.ar      1 1TS901      0.0000 
     18 C32        13.0220  -20.1390   23.6580 C.ar      1 1TS901      0.0000 
     19 C33        12.5970  -20.3510   24.9050 C.ar      1 1TS901      0.0000 
     20 C44        13.3220  -20.1100   26.0220 C.ar      1 1TS901      0.0000 
     21 C8         14.5730  -19.5710   25.8720 C.ar      1 1TS901      0.0000 
     22 C9         14.9450  -19.4300   24.6230 C.ar      1 1TS901      0.0000 
     23 C40        12.8160  -20.3110   27.1020 C.1       1 1TS901      0.0000 
     24 N63        12.3340  -20.3620   28.0940 N.1       1 1TS901      0.0000 
     25 C45        17.6950  -15.5130   22.6230 C.3       1 1TS901      0.0000 
     26 C12        16.8720  -16.1360   21.3880 C.3       1 1TS901      0.0000 
     27 C46        16.5250  -17.6600   21.5310 C.2       1 1TS901      0.0000 
     28 O22        17.3940  -18.3810   21.3740 O.2       1 1TS901      0.0000 
     29 N14        15.3170  -18.0060   21.9460 N.am      1 1TS901      0.0000 
     30 N15        18.5770  -13.4810   21.6180 N.am      1 1TS901      0.0000 
     31 C16        18.4480  -12.1770   21.1290 C.3       1 1TS901      0.0000 
     32 C17        17.1200  -12.1720   20.2810 C.2       1 1TS901      0.0000 
     33 O18        16.8440  -12.9880   19.4770 O.2       1 1TS901      0.0000 
     34 C34        19.5280  -12.0160   20.0730 C.3       1 1TS901      0.0000 
     35 C1         20.3560  -13.2590   20.0790 C.3       1 1TS901      0.0000 
     36 C2         19.6190  -14.2220   20.9120 C.3       1 1TS901      0.0000 
     37 N19        16.3280  -11.0690   20.4540 N.am      1 1TS901      0.0000 
     38 C20        15.0790  -10.8690   19.7970 C.3       1 1TS901      0.0000 
     39 C21        14.0190  -10.8830   20.8490 C.ar      1 1TS901      0.0000 
     40 C26        13.4110   -9.7610   21.3260 C.ar      1 1TS901      0.0000 
     41 C25        12.5010   -9.7550   22.2480 C.ar      1 1TS901      0.0000 
     42 C24        12.0730  -10.8450   22.8530 C.ar      1 1TS901      0.0000 
     43 C27        11.0670  -10.8660   23.8680 C.2       1 1TS901      0.0000 
     44 N29        10.8020   -9.8930   24.4720 N.pl3     1 1TS901      0.0000 
     45 N28        10.3980  -11.9280   24.1010 N.pl3     1 1TS901      0.0000 
     46 C23        12.6730  -11.9760   22.4630 C.ar      1 1TS901      0.0000 
     47 C22        13.5990  -11.9520   21.4950 C.ar      1 1TS901      0.0000 
     48 H          20.5052  -16.5036   23.3996 H         1 1TS901      0.0000 
     49 H          18.8895  -14.1026   26.4008 H         1 1TS901      0.0000 
     50 H          22.5043  -15.1712   23.4333 H         1 1TS901      0.0000 
     51 H          16.2177  -15.6228   24.1180 H         1 1TS901      0.0000 
     52 H          13.9260  -19.5317   21.4165 H         1 1TS901      0.0000 
     53 H          15.5186  -20.1277   21.9146 H         1 1TS901      0.0000 
     54 H          12.4256  -20.3755   22.8475 H         1 1TS901      0.0000 
     55 H          11.6027  -20.7435   25.0408 H         1 1TS901      0.0000 
     56 H          15.1311  -19.3167   26.6681 H         1 1TS901      0.0000 
     57 H          15.9956  -19.1115   24.4551 H         1 1TS901      0.0000 
     58 H          18.7195  -15.8082   22.4697 H         1 1TS901      0.0000 
     59 H          17.4685  -15.9869   20.4844 H         1 1TS901      0.0000 
     60 H          15.9457  -15.5649   21.2863 H         1 1TS901      0.0000 
     61 H          14.5845  -17.2197   22.1648 H         1 1TS901      0.0000 
     62 H          18.4419  -11.4265   21.7853 H         1 1TS901      0.0000 
     63 H          20.1386  -11.1586   20.3165 H         1 1TS901      0.0000 
     64 H          19.0636  -11.8806   19.1070 H         1 1TS901      0.0000 
     65 H          21.3224  -13.0491   20.5074 H         1 1TS901      0.0000 
     66 H          20.4602  -13.6304   19.0726 H         1 1TS901      0.0000 
     67 H          19.1756  -14.9923   20.2836 H         1 1TS901      0.0000 
     68 H          20.2966  -14.6918   21.6227 H         1 1TS901      0.0000 
     69 H          16.6424  -10.3046   21.1115 H         1 1TS901      0.0000 
     70 H          14.8720  -11.6625   19.0795 H         1 1TS901      0.0000 
     71 H          15.0474   -9.9106   19.2795 H         1 1TS901      0.0000 
     72 H          13.7281   -8.8263   20.8882 H         1 1TS901      0.0000 
     73 H          12.0647   -8.8132   22.5428 H         1 1TS901      0.0000 
     74 H          10.0855   -9.9858   25.1634 H         1 1TS901      0.0000 
     75 H          11.3201   -9.0718   24.2327 H         1 1TS901      0.0000 
     76 H           9.4751  -11.7962   24.4627 H         1 1TS901      0.0000 
     77 H          10.8597  -12.7919   23.8999 H         1 1TS901      0.0000 
     78 H          12.4177  -12.8853   22.9167 H         1 1TS901      0.0000 
     79 H          14.0411  -12.9107   21.2226 H         1 1TS901      0.0000 
     80 H          24.7387  -12.7362   24.3286 H         1 1TS901      0.0000 
     81 H          24.3175  -14.2878   24.2935 H         1 1TS901      0.0000 
     82 H          23.7252  -13.2689   23.1993 H         1 1TS901      0.0000 
@<TRIPOS>BOND
     1    3    1 1    
     2    7    1 2    
     3    8    1 2    
     4   14    1 1    
     5   12    2 1    
     6    9    3 ar   
     7   10    3 ar   
     8    5    4 1    
     9   80    4 1    
    10   81    4 1    
    11   82    4 1    
    12    6    5 1    
    13   11    6 ar   
    14   12    6 ar   
    15   11    9 ar   
    16   48    9 1    
    17   12   10 ar   
    18   49   10 1    
    19   50   11 1    
    20   15   13 2    
    21   25   13 1    
    22   30   13 am   
    23   25   14 1    
    24   51   14 1    
    25   17   16 1    
    26   29   16 1    
    27   52   16 1    
    28   53   16 1    
    29   18   17 ar   
    30   22   17 ar   
    31   19   18 ar   
    32   54   18 1    
    33   20   19 ar   
    34   55   19 1    
    35   21   20 ar   
    36   23   20 1    
    37   22   21 ar   
    38   56   21 1    
    39   57   22 1    
    40   24   23 3    
    41   26   25 1    
    42   58   25 1    
    43   27   26 1    
    44   59   26 1    
    45   60   26 1    
    46   28   27 2    
    47   29   27 am   
    48   61   29 1    
    49   31   30 1    
    50   36   30 1    
    51   32   31 1    
    52   34   31 1    
    53   62   31 1    
    54   33   32 2    
    55   37   32 am   
    56   35   34 1    
    57   63   34 1    
    58   64   34 1    
    59   36   35 1    
    60   65   35 1    
    61   66   35 1    
    62   67   36 1    
    63   68   36 1    
    64   38   37 1    
    65   69   37 1    
    66   39   38 1    
    67   70   38 1    
    68   71   38 1    
    69   40   39 ar   
    70   47   39 ar   
    71   41   40 ar   
    72   72   40 1    
    73   42   41 ar   
    74   73   41 1    
    75   43   42 1    
    76   46   42 ar   
    77   44   43 2    
    78   45   43 1    
    79   74   44 1    
    80   75   44 1    
    81   76   45 1    
    82   77   45 1    
    83   47   46 ar   
    84   78   46 1    
    85   79   47 1    
@<TRIPOS>SUBSTRUCTURE
     1 1TS901      1 GROUP   
@<TRIPOS>SET

