#    Name: 3t7v_SAM_1_INTS_M
#    Modification time : Mon Mar 24 19:18:33 2014

@<TRIPOS>MOLECULE
3t7v_SAM_1_INTS_M
   79     0    12     0     0
SMALL
NO_CHARGES


@<TRIPOS>ATOM
      1 O          52.5120   31.7630   -1.5185 O.2       1 ALC1        0.0000 
      2 O          51.4010   31.1680   -0.5890 O.2       9 ALL1        0.0000 
      3 O          53.6230   32.3580   -2.4480 O.2       5 ALP1        0.0000 
      4 CA         53.3555   30.4305    1.1930 C.3       4 GLC5        0.0000 
      5 CA         52.0000   31.6180    0.5780 C.3      12 GLL5        0.0000 
      6 CA         54.7110   29.2430    1.8080 C.3       8 GLP5        0.0000 
      7 NZ         49.1150   30.9460    2.7215 N.4       3 LYC4        0.0000 
      8 NZ         50.0330   30.9840    1.7200 N.4      11 LYL4        0.0000 
      9 NZ         47.9570   29.6800    4.1290 N.4       7 LYP4        0.0000 
     10 N          49.2110   29.8370    2.5440 N.am      2 SEC2        0.0000 
     11 N          50.0330   30.9840    1.7200 N.am     10 SEL2        0.0000 
     12 N          48.3890   28.6900    3.3680 N.am      6 SEP2        0.0000 
     13 N          49.1150   30.9460    2.7215 N.am      2 SEC2        0.0000 
     14 N          48.1970   30.9080    3.7230 N.am      6 SEP2        0.0000 
     15 NZ         51.3725   31.0530    4.2035 N.4       3 LYC4        0.0000 
     16 NZ         51.7880   31.6270    2.9200 N.4      11 LYL4        0.0000 
     17 NZ         50.9610   29.1900    5.9150 N.4       7 LYP4        0.0000 
     18 N          51.3725   31.0530    4.2035 N.am      2 SEC2        0.0000 
     19 N          51.7880   31.6270    2.9200 N.am     10 SEL2        0.0000 
     20 N          50.9570   30.4790    5.4870 N.am      6 SEP2        0.0000 
     21 CA         53.6340   34.3560    1.1910 C.3       4 GLC5        0.0000 
     22 CA         51.9850   32.9750    0.6890 C.3      12 GLL5        0.0000 
     23 CA         55.2830   35.7370    1.6930 C.3       8 GLP5        0.0000 
     24 CA         51.9475   36.4530   -0.3945 C.3       4 GLC5        0.0000 
     25 CA         50.5650   36.4970    0.9200 C.3      12 GLL5        0.0000 
     26 CA         53.3300   36.4090   -1.7090 C.3       8 GLP5        0.0000 
     27 CA         49.6430   37.2830   -0.5485 C.3       4 GLC5        0.0000 
     28 CA         48.7210   38.0690   -2.0170 C.3       8 GLP5        0.0000 
     29 CA         47.5310   35.7685   -0.0935 C.3       4 GLC5        0.0000 
     30 CA         48.4870   34.7950    1.4630 C.3      12 GLL5        0.0000 
     31 CA         46.5750   36.7420   -1.6500 C.3       8 GLP5        0.0000 
     32 N          48.0920   32.4335    3.9830 N.am      2 SEC2        0.0000 
     33 N          47.9870   33.9590    4.2430 N.am     10 SEL2        0.0000 
     34 O          47.4030   33.1575    5.0110 O.2       1 ALC1        0.0000 
     35 O          47.9870   33.9590    4.2430 O.2       9 ALL1        0.0000 
     36 O          46.8190   32.3560    5.7790 O.2       5 ALP1        0.0000 
     37 O          45.7830   34.6760    5.8040 O.2       1 ALC1        0.0000 
     38 O          46.1960   35.6240    4.9570 O.2       9 ALL1        0.0000 
     39 O          45.3700   33.7280    6.6510 O.2       5 ALP1        0.0000 
     40 O          46.5075   33.9900    5.3680 O.2       1 ALC1        0.0000 
     41 CA         46.0745   38.0560    3.5740 C.3       4 GLC5        0.0000 
     42 CA         45.9200   36.3170    2.5970 C.3      12 GLL5        0.0000 
     43 CA         46.2290   39.7950    4.5510 C.3       8 GLP5        0.0000 
     44 CA         46.2475   36.5295    0.4735 C.3       4 GLC5        0.0000 
     45 CA         42.1335   38.6340   -0.1660 C.3       4 GLC5        0.0000 
     46 CA         41.5210   36.7740    0.5640 C.3      12 GLL5        0.0000 
     47 CA         42.7460   40.4940   -0.8960 C.3       8 GLP5        0.0000 
     48 O          40.4160   34.8140   -0.6255 O.2       1 ALC1        0.0000 
     49 O          40.6480   36.3040   -0.3280 O.2       9 ALL1        0.0000 
     50 O          40.1840   33.3240   -0.9230 O.2       5 ALP1        0.0000 
     51 O          39.3770   36.8860   -0.6395 O.2       1 ALC1        0.0000 
     52 O          38.1060   37.4680   -0.9510 O.2       5 ALP1        0.0000 
     53 N          39.7115   38.3300    1.4720 N.am      2 SEC2        0.0000 
     54 N          41.1630   37.8140    1.3320 N.am     10 SEL2        0.0000 
     55 N          38.2600   38.8460    1.6120 N.am      6 SEP2        0.0000 
     56 CA         42.0700   37.3905    3.9520 C.3       4 GLC5        0.0000 
     57 CA         42.0070   38.3300    2.2740 C.3      12 GLL5        0.0000 
     58 CA         42.1330   36.4510    5.6300 C.3       8 GLP5        0.0000 
     59 CA         43.8100   39.4280    2.6235 C.3       4 GLC5        0.0000 
     60 CA         45.6130   40.5260    2.9730 C.3       8 GLP5        0.0000 
     61 CA         40.2630   38.2485    3.0820 C.3       4 GLC5        0.0000 
     62 CA         38.5190   38.1670    3.8900 C.3       8 GLP5        0.0000 
     63 CA         42.1640   40.5110    2.4020 C.3       4 GLC5        0.0000 
     64 CA         42.3210   42.6920    2.5300 C.3       8 GLP5        0.0000 
     65 CA         42.3765   39.4120    0.6890 C.3       4 GLC5        0.0000 
     66 CA         42.8840   36.6155    3.6500 C.3       4 GLC5        0.0000 
     67 CA         43.6350   36.7800    1.6700 C.3      12 GLL5        0.0000 
     68 CA         44.6240   38.6530    2.3215 C.3       4 GLC5        0.0000 
     69 CA         52.3665   34.8957   -0.6085 C.3       4 GLC5        0.0000 
     70 CA         50.8210   33.7900    0.2950 C.3      12 GLL5        0.0000 
     71 CA         51.1968   37.1137    1.6963 C.3       4 GLC5        0.0000 
     72 CA         51.9840   38.5240    2.1100 C.3       8 GLP5        0.0000 
     73 CA         48.5025   35.4748    4.5228 C.3       4 GLC5        0.0000 
     74 CA         47.8350   35.0820    2.5960 C.3      12 GLL5        0.0000 
     75 CA         49.5450   36.3430    6.1770 C.3       8 GLP5        0.0000 
     76 CA         45.2043   33.3660    2.7975 C.3       4 GLC5        0.0000 
     77 CA         47.0850   34.1310    3.1410 C.3      12 GLL5        0.0000 
     78 CA         43.8570   32.0960    2.2320 C.3       8 GLP5        0.0000 
     79 CA         44.9030   36.6347   -0.2365 C.3       4 GLC5        0.0000 
@<TRIPOS>BOND
@<TRIPOS>SUBSTRUCTURE
     1 ALC1        1 GROUP        1 X    ALC  0     ROOT ALC X 1
     2 SEC2       10 GROUP        1 X    SEC  0     **** SEC X 2
     3 LYC4        7 GROUP        1 X    LYC  0     **** LYC X 4
     4 GLC5        4 GROUP        1 X    GLC  0     **** GLC X 6
     5 ALP1        3 GROUP        1 Y    ALP  0     ROOT ALP Y 8
     6 SEP2       12 GROUP        1 Y    SEP  0     **** SEP Y 9
     7 LYP4        9 GROUP        1 Y    LYP  0     **** LYP Y 11
     8 GLP5        6 GROUP        1 Y    GLP  0     **** GLP Y 13
     9 ALL1        2 GROUP        1 Z    ALL  0     ROOT ALL Z 15
    10 SEL2       11 GROUP        1 Z    SEL  0     **** SEL Z 16
    11 LYL4        8 GROUP        1 Z    LYL  0     **** LYL Z 18
    12 GLL5        5 GROUP        1 Z    GLL  0     **** GLL Z 20
@<TRIPOS>SET

