#    Name: 3t7v_SAM_1_ligand
#    Modification time : Mon Mar 24 19:18:34 2014

@<TRIPOS>MOLECULE
3t7v_SAM_1_ligand
   50    52     1     0     0
SMALL
NO_CHARGES


@<TRIPOS>ATOM
      1 N          51.4010   31.1680   -0.5890 N.4       1 SAM992      0.0000 
      2 CA         52.0000   31.6180    0.5780 C.3       1 SAM992      0.0000 
      3 C          51.1960   31.4300    1.8010 C.2       1 SAM992      0.0000 
      4 O          50.0330   30.9840    1.7200 O.co2     1 SAM992      0.0000 
      5 OXT        51.7880   31.6270    2.9200 O.co2     1 SAM992      0.0000 
      6 CB         51.9850   32.9750    0.6890 C.3       1 SAM992      0.0000 
      7 CG         50.8210   33.7900    0.2950 C.3       1 SAM992      0.0000 
      8 SD         50.2540   34.9100    1.6450 S.3       1 SAM992      0.0000 
      9 CE         50.5650   36.4970    0.9200 C.3       1 SAM992      0.0000 
     10 C5'        48.4870   34.7950    1.4630 C.3       1 SAM992      0.0000 
     11 C4'        47.8350   35.0820    2.5960 C.3       1 SAM992      0.0000 
     12 O4'        47.1130   36.2250    1.8110 O.3       1 SAM992      0.0000 
     13 C3'        47.0850   34.1310    3.1410 C.3       1 SAM992      0.0000 
     14 O3'        47.9870   33.9590    4.2430 O.3       1 SAM992      0.0000 
     15 C2'        46.0180   35.1410    3.5850 C.3       1 SAM992      0.0000 
     16 O2'        46.1960   35.6240    4.9570 O.3       1 SAM992      0.0000 
     17 C1'        45.9200   36.3170    2.5970 C.3       1 SAM992      0.0000 
     18 N9         44.7980   36.0680    1.6190 N.pl3     1 SAM992      0.0000 
     19 C8         44.6950   35.1530    0.6080 C.2       1 SAM992      0.0000 
     20 N7         43.5030   35.2640    0.0400 N.2       1 SAM992      0.0000 
     21 C5         42.8270   36.2750    0.6840 C.ar      1 SAM992      0.0000 
     22 C6         41.5210   36.7740    0.5640 C.ar      1 SAM992      0.0000 
     23 N6         40.6480   36.3040   -0.3280 N.pl3     1 SAM992      0.0000 
     24 N1         41.1630   37.8140    1.3320 N.ar      1 SAM992      0.0000 
     25 C2         42.0070   38.3300    2.2740 C.ar      1 SAM992      0.0000 
     26 N3         43.2330   37.7970    2.4960 N.ar      1 SAM992      0.0000 
     27 C4         43.6350   36.7800    1.6700 C.ar      1 SAM992      0.0000 
     28 H          52.9708   31.2398    0.7758 H         1 SAM992      0.0000 
     29 H          52.9029   33.4365    0.1380 H         1 SAM992      0.0000 
     30 H          52.2486   33.2951    1.7786 H         1 SAM992      0.0000 
     31 H          49.9169   33.2352    0.0995 H         1 SAM992      0.0000 
     32 H          51.0047   34.5017   -0.4944 H         1 SAM992      0.0000 
     33 H          48.3991   33.7654    1.0730 H         1 SAM992      0.0000 
     34 H          48.3363   35.4731    0.6043 H         1 SAM992      0.0000 
     35 H          48.5061   35.6392    3.2462 H         1 SAM992      0.0000 
     36 H          46.7901   33.4173    2.6499 H         1 SAM992      0.0000 
     37 H          45.0352   34.6119    3.5214 H         1 SAM992      0.0000 
     38 H          45.8196   37.2044    3.0866 H         1 SAM992      0.0000 
     39 H          45.3995   34.5296    0.3634 H         1 SAM992      0.0000 
     40 H          40.7534   35.3427   -0.5825 H         1 SAM992      0.0000 
     41 H          39.9667   36.9552   -0.6621 H         1 SAM992      0.0000 
     42 H          41.6944   39.1585    2.8364 H         1 SAM992      0.0000 
     43 H          51.2047   30.1882   -0.5518 H         1 SAM992      0.0000 
     44 H          50.5340   31.6340   -0.7650 H         1 SAM992      0.0000 
     45 H          51.9830   31.3202   -1.3877 H         1 SAM992      0.0000 
     46 H          51.4891   36.5583    0.5427 H         1 SAM992      0.0000 
     47 H          49.9299   36.6952    0.1734 H         1 SAM992      0.0000 
     48 H          50.4716   37.2352    1.5880 H         1 SAM992      0.0000 
     49 H          47.4001   33.7734    5.0311 H         1 SAM992      0.0000 
     50 H          45.8689   34.8788    5.5381 H         1 SAM992      0.0000 
@<TRIPOS>BOND
     1    2    1 1    
     2   43    1 1    
     3   44    1 1    
     4   45    1 1    
     5    3    2 1    
     6    6    2 1    
     7   28    2 1    
     8    4    3 ar   
     9    5    3 ar   
    10    7    6 1    
    11   29    6 1    
    12   30    6 1    
    13    8    7 1    
    14   31    7 1    
    15   32    7 1    
    16    9    8 1    
    17   10    8 1    
    18   46    9 1    
    19   47    9 1    
    20   48    9 1    
    21   11   10 1    
    22   33   10 1    
    23   34   10 1    
    24   12   11 1    
    25   13   11 1    
    26   35   11 1    
    27   17   12 1    
    28   14   13 1    
    29   15   13 1    
    30   36   13 1    
    31   49   14 1    
    32   16   15 1    
    33   17   15 1    
    34   37   15 1    
    35   50   16 1    
    36   18   17 1    
    37   38   17 1    
    38   19   18 1    
    39   27   18 1    
    40   20   19 2    
    41   39   19 1    
    42   21   20 1    
    43   22   21 ar   
    44   27   21 ar   
    45   23   22 1    
    46   24   22 ar   
    47   40   23 1    
    48   41   23 1    
    49   25   24 ar   
    50   26   25 ar   
    51   42   25 1    
    52   27   26 ar   
@<TRIPOS>SUBSTRUCTURE
     1 SAM992      1 GROUP   
@<TRIPOS>SET

