#    Name: 1a4l_DCF_4_INTS_M
#    Modification time : Mon Mar 24 17:49:21 2014

@<TRIPOS>MOLECULE
1a4l_DCF_4_INTS_M
   63     0    12     0     0
SMALL
NO_CHARGES


@<TRIPOS>ATOM
      1 N          71.5140   68.5010  100.2000 N.am      2 SEC2        0.0000 
      2 N          72.5040   68.7570  101.0990 N.am     10 SEL2        0.0000 
      3 N          70.5240   68.2450   99.3010 N.am      6 SEP2        0.0000 
      4 CA         75.0545   71.0610  101.9710 C.3       4 GLC5        0.0000 
      5 CA         74.5410   69.1210  101.9970 C.3      12 GLL5        0.0000 
      6 CA         75.5680   73.0010  101.9450 C.3       8 GLP5        0.0000 
      7 CA         77.3065   69.7730   99.9870 C.3       4 GLC5        0.0000 
      8 CA         76.7960   68.5490  101.7600 C.3      12 GLL5        0.0000 
      9 CA         77.8170   70.9970   98.2140 C.3       8 GLP5        0.0000 
     10 CA         76.4960   67.8595  103.7330 C.3       4 GLC5        0.0000 
     11 CA         76.1960   67.1700  105.7060 C.3       8 GLP5        0.0000 
     12 CA         77.5695   69.6435  103.2575 C.3       4 GLC5        0.0000 
     13 CA         78.3430   70.7380  104.7550 C.3       8 GLP5        0.0000 
     14 CA         76.7435   66.8100  101.8170 C.3       4 GLC5        0.0000 
     15 CA         76.6910   65.0710  101.8740 C.3       8 GLP5        0.0000 
     16 CA         76.8425   69.6865   98.8230 C.3       4 GLC5        0.0000 
     17 CA         75.8680   68.3760   99.4320 C.3      12 GLL5        0.0000 
     18 Zn         73.9550   65.8205  100.3745 Zn        3 ZIC7        0.0000 
     19 Zn         74.3300   66.4080   99.7780 Zn       11 ZIL7        0.0000 
     20 Zn         73.5800   65.2330  100.9710 Zn        7 ZIP7        0.0000 
     21 N          75.2640   65.5825   98.7665 N.am      2 SEC2        0.0000 
     22 N          74.3300   66.4080   99.7780 N.am     10 SEL2        0.0000 
     23 N          76.1980   64.7570   97.7550 N.am      6 SEP2        0.0000 
     24 O          73.1680   65.7810   99.5785 O.2       1 ALC1        0.0000 
     25 O          74.3300   66.4080   99.7780 O.2       9 ALL1        0.0000 
     26 O          72.0060   65.1540   99.3790 O.2       5 ALP1        0.0000 
     27 O          73.6270   66.2190   98.6880 O.2       1 ALC1        0.0000 
     28 O          72.9240   66.0300   97.5980 O.2       5 ALP1        0.0000 
     29 CA         71.5340   71.8625  103.4400 C.3       4 GLC5        0.0000 
     30 CA         72.9350   71.4270  104.4350 C.3      12 GLL5        0.0000 
     31 CA         70.1330   72.2980  102.4450 C.3       8 GLP5        0.0000 
     32 CA         70.6185   71.7970  104.5170 C.3       4 GLC5        0.0000 
     33 CA         71.9440   71.0340  105.5170 C.3      12 GLL5        0.0000 
     34 CA         69.2930   72.5600  103.5170 C.3       8 GLP5        0.0000 
     35 O          70.3450   71.6625  106.5430 O.2       1 ALC1        0.0000 
     36 O          71.6540   72.1390  106.3800 O.2       9 ALL1        0.0000 
     37 O          69.0360   71.1860  106.7060 O.2       5 ALP1        0.0000 
     38 N          70.9440   67.7945  105.1760 N.am      2 SEC2        0.0000 
     39 N          70.7660   68.4500  106.2940 N.am     10 SEL2        0.0000 
     40 N          71.1220   67.1390  104.0580 N.am      6 SEP2        0.0000 
     41 O          69.9010   69.8180  106.5000 O.2       1 ALC1        0.0000 
     42 O          70.7660   68.4500  106.2940 O.2       9 ALL1        0.0000 
     43 O          69.5180   68.9070  106.0155 O.2       1 ALC1        0.0000 
     44 O          68.2700   69.3640  105.7370 O.2       5 ALP1        0.0000 
     45 CA         70.5690   67.7375  108.0265 C.3       4 GLC5        0.0000 
     46 CA         71.7460   69.0810  107.0960 C.3      12 GLL5        0.0000 
     47 CA         69.3920   66.3940  108.9570 C.3       8 GLP5        0.0000 
     48 CA         71.9950   69.3170  109.0930 C.3       4 GLC5        0.0000 
     49 CA         72.2440   69.5530  111.0900 C.3       8 GLP5        0.0000 
     50 CA         72.3950   67.1630  107.5650 C.3       4 GLC5        0.0000 
     51 CA         73.0440   65.2450  108.0340 C.3       8 GLP5        0.0000 
     52 CA         74.9765   68.6485  104.9575 C.3       4 GLC5        0.0000 
     53 CA         73.7570   70.1270  104.2090 C.3      12 GLL5        0.0000 
     54 CA         74.1103   69.8798   99.4040 C.3       4 GLC5        0.0000 
     55 CA         74.4310   68.0070   99.7040 C.3      12 GLL5        0.0000 
     56 CA         73.0710   71.5680   99.2400 C.3       8 GLP5        0.0000 
     57 CA         75.9203   66.6312  100.7210 C.3       4 GLC5        0.0000 
     58 CA         74.4570   71.8890  103.1335 C.3       4 GLC5        0.0000 
     59 CA         72.3013   71.8050  107.6510 C.3       4 GLC5        0.0000 
     60 CA         72.2860   73.1180  109.4110 C.3       8 GLP5        0.0000 
     61 CA         73.6442   69.2868  107.6678 C.3       4 GLC5        0.0000 
     62 CA         72.6890   69.9500  106.2650 C.3      12 GLL5        0.0000 
     63 CA         75.0710   69.0580  108.6550 C.3       8 GLP5        0.0000 
@<TRIPOS>BOND
@<TRIPOS>SUBSTRUCTURE
     1 ALC1       24 GROUP        1 X    ALC  0     ROOT ALC X 1
     2 SEC2        1 GROUP        1 X    SEC  0     **** SEC X 2
     3 ZIC7       18 GROUP        1 X    ZIC  0     **** ZIC X 5
     4 GLC5        4 GROUP        1 X    GLC  0     **** GLC X 6
     5 ALP1       26 GROUP        1 Y    ALP  0     ROOT ALP Y 8
     6 SEP2        3 GROUP        1 Y    SEP  0     **** SEP Y 9
     7 ZIP7       20 GROUP        1 Y    ZIP  0     **** ZIP Y 12
     8 GLP5        6 GROUP        1 Y    GLP  0     **** GLP Y 13
     9 ALL1       25 GROUP        1 Z    ALL  0     ROOT ALL Z 15
    10 SEL2        2 GROUP        1 Z    SEL  0     **** SEL Z 16
    11 ZIL7       19 GROUP        1 Z    ZIL  0     **** ZIL Z 19
    12 GLL5        5 GROUP        1 Z    GLL  0     **** GLL Z 20
@<TRIPOS>SET

