#    Name: 1a4l_DCF_4_ligand
#    Modification time : Mon Mar 24 17:49:21 2014

@<TRIPOS>MOLECULE
1a4l_DCF_4_ligand
   36    38     1     0     0
SMALL
NO_CHARGES


@<TRIPOS>ATOM
      1 N1         72.5040   68.7570  101.0990 N.2       1 DCF1853     0.0000 
      2 C2         72.3440   69.1870  102.3360 C.2       1 DCF1853     0.0000 
      3 N3         73.5340   69.4220  102.9360 N.pl3     1 DCF1853     0.0000 
      4 C9         73.8820   68.7170  100.8780 C.2       1 DCF1853     0.0000 
      5 C10        74.5410   69.1210  101.9970 C.2       1 DCF1853     0.0000 
      6 N4         75.8320   69.0110  102.4690 N.pl3     1 DCF1853     0.0000 
      7 C5         76.7960   68.5490  101.7600 C.2       1 DCF1853     0.0000 
      8 N6         76.7640   68.0230  100.5280 N.pl3     1 DCF1853     0.0000 
      9 C7         75.8680   68.3760   99.4320 C.3       1 DCF1853     0.0000 
     10 C8         74.4310   68.0070   99.7040 C.3       1 DCF1853     0.0000 
     11 O8         74.3300   66.4080   99.7780 O.3       1 DCF1853     0.0000 
     12 C2S        72.9350   71.4270  104.4350 C.3       1 DCF1853     0.0000 
     13 C3S        71.9440   71.0340  105.5170 C.3       1 DCF1853     0.0000 
     14 O3S        71.6540   72.1390  106.3800 O.3       1 DCF1853     0.0000 
     15 O5S        70.7660   68.4500  106.2940 O.3       1 DCF1853     0.0000 
     16 C5S        71.7460   69.0810  107.0960 C.3       1 DCF1853     0.0000 
     17 C4S        72.6890   69.9500  106.2650 C.3       1 DCF1853     0.0000 
     18 O4S        73.3960   69.2070  105.2620 O.3       1 DCF1853     0.0000 
     19 C1S        73.7570   70.1270  104.2090 C.3       1 DCF1853     0.0000 
     20 H          71.4725   69.3261  102.7851 H         1 DCF1853     0.0000 
     21 H          75.9947   69.3355  103.4740 H         1 DCF1853     0.0000 
     22 H          77.8150   68.5804  102.2161 H         1 DCF1853     0.0000 
     23 H          77.4672   67.2424  100.2729 H         1 DCF1853     0.0000 
     24 H          76.1865   67.8736   98.4973 H         1 DCF1853     0.0000 
     25 H          75.9168   69.4643   99.2302 H         1 DCF1853     0.0000 
     26 H          73.8518   68.2847   98.7975 H         1 DCF1853     0.0000 
     27 H          73.5815   72.1868  104.7842 H         1 DCF1853     0.0000 
     28 H          72.4278   71.6734  103.5410 H         1 DCF1853     0.0000 
     29 H          71.0953   70.6086  105.0596 H         1 DCF1853     0.0000 
     30 H          72.3693   68.3453  107.6393 H         1 DCF1853     0.0000 
     31 H          71.2905   69.7327  107.8660 H         1 DCF1853     0.0000 
     32 H          73.3928   70.4407  106.9314 H         1 DCF1853     0.0000 
     33 H          74.8087   70.3795  104.3182 H         1 DCF1853     0.0000 
     34 H          73.4516   66.1845   99.3555 H         1 DCF1853     0.0000 
     35 H          70.6945   72.0221  106.6364 H         1 DCF1853     0.0000 
     36 H          69.9713   69.0558  106.3321 H         1 DCF1853     0.0000 
@<TRIPOS>BOND
     1    2    1 2    
     2    4    1 1    
     3    3    2 1    
     4   20    2 1    
     5    5    3 1    
     6   19    3 1    
     7    5    4 2    
     8   10    4 1    
     9    6    5 1    
    10    7    6 1    
    11   21    6 1    
    12    8    7 2    
    13   22    7 1    
    14    9    8 1    
    15   23    8 1    
    16   10    9 1    
    17   24    9 1    
    18   25    9 1    
    19   11   10 1    
    20   26   10 1    
    21   34   11 1    
    22   13   12 1    
    23   19   12 1    
    24   27   12 1    
    25   28   12 1    
    26   14   13 1    
    27   17   13 1    
    28   29   13 1    
    29   35   14 1    
    30   16   15 1    
    31   36   15 1    
    32   17   16 1    
    33   30   16 1    
    34   31   16 1    
    35   18   17 1    
    36   32   17 1    
    37   19   18 1    
    38   33   19 1    
@<TRIPOS>SUBSTRUCTURE
     1 DCF1853     1 GROUP   
@<TRIPOS>SET

