#    Name: 1rfv_ADP_1_INTS_M
#    Modification time : Tue Mar 25 00:39:12 2014

@<TRIPOS>MOLECULE
1rfv_ADP_1_INTS_M
   46     0    12     0     0
SMALL
NO_CHARGES


@<TRIPOS>ATOM
      1 N          28.1610   -4.2000   63.1420 N.am      2 SEC2        0.0000 
      2 N          26.8830   -4.4730   62.4730 N.am     10 SEL2        0.0000 
      3 N          29.4390   -3.9270   63.8110 N.am      6 SEP2        0.0000 
      4 N          26.0345   -4.8180   63.4575 N.am      2 SEC2        0.0000 
      5 N          25.1860   -5.1630   64.4420 N.am      6 SEP2        0.0000 
      6 Zn         28.8495   -4.0410   59.5375 Zn        3 ZIC7        0.0000 
      7 Zn         28.5670   -4.1160   60.5080 Zn       11 ZIL7        0.0000 
      8 Zn         29.1320   -3.9660   58.5670 Zn        7 ZIP7        0.0000 
      9 N          26.4855   -5.9680   60.1075 N.am      2 SEC2        0.0000 
     10 N          26.0290   -4.3860   60.1440 N.am     10 SEL2        0.0000 
     11 N          26.9420   -7.5500   60.0710 N.am      6 SEP2        0.0000 
     12 N          25.2270    0.6320   59.8445 N.am      2 SEC2        0.0000 
     13 N          25.1460   -0.8360   59.9500 N.am     10 SEL2        0.0000 
     14 N          25.3080    2.1000   59.7390 N.am      6 SEP2        0.0000 
     15 CA         26.7720    3.6705   65.0720 C.3       4 GLC5        0.0000 
     16 CA         25.4260    2.1210   64.7530 C.3      12 GLL5        0.0000 
     17 CA         28.1180    5.2200   65.3910 C.3       8 GLP5        0.0000 
     18 CA         24.4315    3.9900   64.6210 C.3       4 GLC5        0.0000 
     19 CA         23.4370    5.8590   64.4890 C.3       8 GLP5        0.0000 
     20 CA         19.4685    4.0515   65.2520 C.3       4 GLC5        0.0000 
     21 CA         20.5140    2.4190   64.7830 C.3      12 GLL5        0.0000 
     22 CA         18.4230    5.6840   65.7210 C.3       8 GLP5        0.0000 
     23 O          18.1030    2.6710   64.4800 O.2       1 ALC1        0.0000 
     24 O          19.3910    2.2060   64.0670 O.2       9 ALL1        0.0000 
     25 O          16.8150    3.1360   64.8930 O.2       5 ALP1        0.0000 
     26 N          19.3010    3.3450   66.6090 N.am      2 SEC2        0.0000 
     27 N          20.4370    2.9830   66.0460 N.am     10 SEL2        0.0000 
     28 N          18.1650    3.7070   67.1720 N.am      6 SEP2        0.0000 
     29 CA         21.7525    1.0410   66.9405 C.3       4 GLC5        0.0000 
     30 CA         21.5520    3.2200   66.7950 C.3      12 GLL5        0.0000 
     31 CA         21.9530   -1.1380   67.0860 C.3       8 GLP5        0.0000 
     32 CA         20.0615    2.6275   67.8125 C.3       4 GLC5        0.0000 
     33 CA         18.5710    2.0350   68.8300 C.3       8 GLP5        0.0000 
     34 CA         20.5360    4.7560   66.6955 C.3       4 GLC5        0.0000 
     35 CA         19.5200    6.2920   66.5960 C.3       8 GLP5        0.0000 
     36 CA         22.4945    4.5395   65.6420 C.3       4 GLC5        0.0000 
     37 CA         29.1553    1.2860   65.1185 C.3       4 GLC5        0.0000 
     38 CA         27.2040    0.7890   64.0430 C.3      12 GLL5        0.0000 
     39 CA         31.1660    1.8840   65.4250 C.3       8 GLP5        0.0000 
     40 CA         26.9590    0.8207   67.6470 C.3       4 GLC5        0.0000 
     41 CA         27.0850    0.5870   65.5810 C.3      12 GLL5        0.0000 
     42 CA         27.5070    0.7570   69.5450 C.3       8 GLP5        0.0000 
     43 CA         22.8882    4.0455   64.5615 C.3       4 GLC5        0.0000 
     44 CA         21.7640    2.1040   64.2330 C.3      12 GLL5        0.0000 
     45 CA         21.9900    0.5864   65.9287 C.3       4 GLC5        0.0000 
     46 CA         22.9150    2.3600   65.0350 C.3      12 GLL5        0.0000 
@<TRIPOS>BOND
@<TRIPOS>SUBSTRUCTURE
     1 ALC1       23 GROUP        1 X    ALC  0     ROOT ALC X 1
     2 SEC2        1 GROUP        1 X    SEC  0     **** SEC X 2
     3 ZIC7        6 GROUP        1 X    ZIC  0     **** ZIC X 5
     4 GLC5       15 GROUP        1 X    GLC  0     **** GLC X 6
     5 ALP1       25 GROUP        1 Y    ALP  0     ROOT ALP Y 8
     6 SEP2        3 GROUP        1 Y    SEP  0     **** SEP Y 9
     7 ZIP7        8 GROUP        1 Y    ZIP  0     **** ZIP Y 12
     8 GLP5       17 GROUP        1 Y    GLP  0     **** GLP Y 13
     9 ALL1       24 GROUP        1 Z    ALL  0     ROOT ALL Z 15
    10 SEL2        2 GROUP        1 Z    SEL  0     **** SEL Z 16
    11 ZIL7        7 GROUP        1 Z    ZIL  0     **** ZIL Z 19
    12 GLL5       16 GROUP        1 Z    GLL  0     **** GLL Z 20
@<TRIPOS>SET

