#    Name: 1rfv_ADP_1_ligand
#    Modification time : Tue Mar 25 00:39:12 2014

@<TRIPOS>MOLECULE
1rfv_ADP_1_ligand
   39    41     1     0     0
SMALL
NO_CHARGES


@<TRIPOS>ATOM
      1 PB         27.0860   -3.8850   61.0880 P.3       1 ADP401      0.0000 
      2 O1B        26.8830   -4.4730   62.4730 O.co2     1 ADP401      0.0000 
      3 O2B        28.5670   -4.1160   60.5080 O.co2     1 ADP401      0.0000 
      4 O3B        26.0290   -4.3860   60.1440 O.co2     1 ADP401      0.0000 
      5 PA         25.8810   -1.3640   61.2100 P.3       1 ADP401      0.0000 
      6 O1A        24.8830   -1.9750   61.9470 O.co2     1 ADP401      0.0000 
      7 O2A        25.1460   -0.8360   59.9500 O.co2     1 ADP401      0.0000 
      8 O3A        27.0030   -2.3550   60.9890 O.3       1 ADP401      0.0000 
      9 O5'        26.8050   -0.4100   62.1030 O.3       1 ADP401      0.0000 
     10 C5'        26.5570   -0.3410   63.3780 C.3       1 ADP401      0.0000 
     11 C4'        27.2040    0.7890   64.0430 C.3       1 ADP401      0.0000 
     12 O4'        26.2610    1.7400   63.6720 O.3       1 ADP401      0.0000 
     13 C3'        27.0850    0.5870   65.5810 C.3       1 ADP401      0.0000 
     14 O3'        28.1690    1.2660   66.3070 O.3       1 ADP401      0.0000 
     15 C2'        25.7370    1.1820   65.9170 C.3       1 ADP401      0.0000 
     16 O2'        25.7030    1.7880   67.2000 O.3       1 ADP401      0.0000 
     17 C1'        25.4260    2.1210   64.7530 C.3       1 ADP401      0.0000 
     18 N9         23.9750    2.0070   64.3280 N.pl3     1 ADP401      0.0000 
     19 C8         23.5240    1.5050   63.1340 C.2       1 ADP401      0.0000 
     20 N7         22.1870    1.5690   63.1030 N.2       1 ADP401      0.0000 
     21 C5         21.7640    2.1040   64.2330 C.ar      1 ADP401      0.0000 
     22 C6         20.5140    2.4190   64.7830 C.ar      1 ADP401      0.0000 
     23 N6         19.3910    2.2060   64.0670 N.pl3     1 ADP401      0.0000 
     24 N1         20.4370    2.9830   66.0460 N.ar      1 ADP401      0.0000 
     25 C2         21.5520    3.2200   66.7950 C.ar      1 ADP401      0.0000 
     26 N3         22.7610    2.9210   66.2660 N.ar      1 ADP401      0.0000 
     27 C4         22.9150    2.3600   65.0350 C.ar      1 ADP401      0.0000 
     28 H          26.8680   -1.2750   63.9447 H         1 ADP401      0.0000 
     29 H          25.4483   -0.2676   63.6140 H         1 ADP401      0.0000 
     30 H          28.1335    0.9513   63.7384 H         1 ADP401      0.0000 
     31 H          27.0571   -0.4577   65.7676 H         1 ADP401      0.0000 
     32 H          25.0116    0.3525   65.8398 H         1 ADP401      0.0000 
     33 H          25.6255    3.1253   65.0661 H         1 ADP401      0.0000 
     34 H          24.0991    1.1616   62.4332 H         1 ADP401      0.0000 
     35 H          19.5140    1.7733   63.1739 H         1 ADP401      0.0000 
     36 H          18.5352    2.4997   64.4929 H         1 ADP401      0.0000 
     37 H          21.4703    3.6173   67.7405 H         1 ADP401      0.0000 
     38 H          28.8254    1.5328   65.6014 H         1 ADP401      0.0000 
     39 H          26.6565    2.0052   67.4089 H         1 ADP401      0.0000 
@<TRIPOS>BOND
     1    2    1 ar   
     2    3    1 ar   
     3    4    1 ar   
     4    8    1 1    
     5    6    5 ar   
     6    7    5 ar   
     7    8    5 1    
     8    9    5 1    
     9   10    9 1    
    10   11   10 1    
    11   28   10 1    
    12   29   10 1    
    13   12   11 1    
    14   13   11 1    
    15   30   11 1    
    16   17   12 1    
    17   14   13 1    
    18   15   13 1    
    19   31   13 1    
    20   38   14 1    
    21   16   15 1    
    22   17   15 1    
    23   32   15 1    
    24   39   16 1    
    25   18   17 1    
    26   33   17 1    
    27   19   18 1    
    28   27   18 1    
    29   20   19 2    
    30   34   19 1    
    31   21   20 1    
    32   22   21 ar   
    33   27   21 ar   
    34   23   22 1    
    35   24   22 ar   
    36   35   23 1    
    37   36   23 1    
    38   25   24 ar   
    39   26   25 ar   
    40   37   25 1    
    41   27   26 ar   
@<TRIPOS>SUBSTRUCTURE
     1 ADP401      1 GROUP   
@<TRIPOS>SET

