#    Name: 1sbz_FMN_4_INTS_M
#    Modification time : Tue Mar 25 02:15:28 2014

@<TRIPOS>MOLECULE
1sbz_FMN_4_INTS_M
   69     0    12     0     0
SMALL
NO_CHARGES


@<TRIPOS>ATOM
      1 N          22.5900  -18.5485    2.8605 N.am      2 SEC2        0.0000 
      2 N          22.1580  -17.2780    2.3390 N.am     10 SEL2        0.0000 
      3 N          23.0220  -19.8190    3.3820 N.am      6 SEP2        0.0000 
      4 O          21.5565  -17.7495   -0.4820 O.2       1 ALC1        0.0000 
      5 O          21.0960  -16.7270    0.4010 O.2       9 ALL1        0.0000 
      6 O          22.0170  -18.7720   -1.3650 O.2       5 ALP1        0.0000 
      7 N          18.1895  -16.7500   -1.4265 N.am      2 SEC2        0.0000 
      8 N          19.7750  -16.3090   -1.3820 N.am     10 SEL2        0.0000 
      9 N          16.6040  -17.1910   -1.4710 N.am      6 SEP2        0.0000 
     10 N          20.4165  -15.7980   -2.6615 N.am      2 SEC2        0.0000 
     11 N          21.0580  -15.2870   -3.9410 N.am      6 SEP2        0.0000 
     12 N          17.3005  -15.9665   -0.7085 N.am      2 SEC2        0.0000 
     13 N          17.9970  -14.7420    0.0540 N.am     10 SEL2        0.0000 
     14 CA         17.2125  -16.2740    0.6665 C.3       4 GLC5        0.0000 
     15 CA         17.0780  -14.0900    0.8700 C.3      12 GLL5        0.0000 
     16 CA         17.3470  -18.4580    0.4630 C.3       8 GLP5        0.0000 
     17 CA         16.0325  -14.5360   -1.5145 C.3       4 GLC5        0.0000 
     18 CA         15.9810  -13.4300    0.3080 C.3      12 GLL5        0.0000 
     19 CA         16.0840  -15.6420   -3.3370 C.3       8 GLP5        0.0000 
     20 CA         13.5640  -12.1720   -1.6550 C.3       4 GLC5        0.0000 
     21 CA         13.7120  -12.4100    0.5270 C.3      12 GLL5        0.0000 
     22 CA         13.4160  -11.9340   -3.8370 C.3       8 GLP5        0.0000 
     23 CA         12.0445  -12.3485   -0.4495 C.3       4 GLC5        0.0000 
     24 CA         10.3770  -12.2870   -1.4260 C.3       8 GLP5        0.0000 
     25 CA         14.0720  -10.6855    4.5065 C.3       4 GLC5        0.0000 
     26 CA         14.1230  -12.3160    3.4450 C.3      12 GLL5        0.0000 
     27 CA         14.0210   -9.0550    5.5680 C.3       8 GLP5        0.0000 
     28 CA         13.3590  -13.3565    5.1585 C.3       4 GLC5        0.0000 
     29 CA         12.5950  -14.3970    6.8720 C.3       8 GLP5        0.0000 
     30 CA         20.1995  -13.4675    4.8845 C.3       4 GLC5        0.0000 
     31 CA         18.6710  -14.5310    4.2690 C.3      12 GLL5        0.0000 
     32 CA         21.7280  -12.4040    5.5000 C.3       8 GLP5        0.0000 
     33 O          16.6010  -16.5365    3.7805 O.2       1 ALC1        0.0000 
     34 O          16.8290  -15.9360    4.8880 O.2       9 ALL1        0.0000 
     35 O          16.3730  -17.1370    2.6730 O.2       5 ALP1        0.0000 
     36 CA         16.1285  -16.6095    8.2605 C.3       4 GLC5        0.0000 
     37 CA         17.8040  -16.5820    7.4740 C.3      12 GLL5        0.0000 
     38 CA         14.4530  -16.6370    9.0470 C.3       8 GLP5        0.0000 
     39 N          18.7095  -15.1055    9.2725 N.am      2 SEC2        0.0000 
     40 N          18.2680  -16.5030    8.8090 N.am     10 SEL2        0.0000 
     41 N          19.1510  -13.7080    9.7360 N.am      6 SEP2        0.0000 
     42 O          19.8450  -16.1680    9.3190 O.2       1 ALC1        0.0000 
     43 O          18.2680  -16.5030    8.8090 O.2       9 ALL1        0.0000 
     44 O          21.4220  -15.8330    9.8290 O.2       5 ALP1        0.0000 
     45 CA         15.8605  -17.7595    6.8685 C.3       4 GLC5        0.0000 
     46 CA         17.9480  -18.0280    7.0120 C.3      12 GLL5        0.0000 
     47 CA         13.7730  -17.4910    6.7250 C.3       8 GLP5        0.0000 
     48 CA         18.9715  -19.0330    5.3840 C.3       4 GLC5        0.0000 
     49 CA         19.9950  -20.0380    3.7560 C.3       8 GLP5        0.0000 
     50 N          15.6650  -20.3720    5.3015 N.am      2 SEC2        0.0000 
     51 N          15.8560  -20.3660    6.6890 N.am     10 SEL2        0.0000 
     52 N          15.4740  -20.3780    3.9140 N.am      6 SEP2        0.0000 
     53 N          14.7810  -21.1180    6.7275 N.am      2 SEC2        0.0000 
     54 N          13.7060  -21.8700    6.7660 N.am      6 SEP2        0.0000 
     55 NZ         17.8775  -21.2280    9.8185 N.4       3 LYC4        0.0000 
     56 NZ         16.8210  -21.1780    8.8480 N.4      11 LYL4        0.0000 
     57 NZ         18.9340  -21.2780   10.7890 N.4       7 LYP4        0.0000 
     58 N          17.8775  -21.2280    9.8185 N.am      2 SEC2        0.0000 
     59 N          16.8210  -21.1780    8.8480 N.am     10 SEL2        0.0000 
     60 N          18.9340  -21.2780   10.7890 N.am      6 SEP2        0.0000 
     61 N          19.1930  -20.8450    5.9230 N.am      2 SEC2        0.0000 
     62 N          18.2560  -21.0120    6.8330 N.am     10 SEL2        0.0000 
     63 N          20.1300  -20.6780    5.0130 N.am      6 SEP2        0.0000 
     64 N          18.8565  -22.1740    6.9890 N.am      2 SEC2        0.0000 
     65 N          19.4570  -23.3360    7.1450 N.am      6 SEP2        0.0000 
     66 CA         17.5290  -14.6470    8.1212 C.3       4 GLC5        0.0000 
     67 CA         16.8800  -13.2080    9.2180 C.3       8 GLP5        0.0000 
     68 CA         19.3450  -18.4790    7.9690 C.3       4 GLC5        0.0000 
     69 CA         20.8140  -19.6530    8.6950 C.3       8 GLP5        0.0000 
@<TRIPOS>BOND
@<TRIPOS>SUBSTRUCTURE
     1 ALC1        4 GROUP        1 X    ALC  0     ROOT ALC X 1
     2 SEC2        1 GROUP        1 X    SEC  0     **** SEC X 2
     3 LYC4       55 GROUP        1 X    LYC  0     **** LYC X 4
     4 GLC5       14 GROUP        1 X    GLC  0     **** GLC X 6
     5 ALP1        6 GROUP        1 Y    ALP  0     ROOT ALP Y 8
     6 SEP2        3 GROUP        1 Y    SEP  0     **** SEP Y 9
     7 LYP4       57 GROUP        1 Y    LYP  0     **** LYP Y 11
     8 GLP5       16 GROUP        1 Y    GLP  0     **** GLP Y 13
     9 ALL1        5 GROUP        1 Z    ALL  0     ROOT ALL Z 15
    10 SEL2        2 GROUP        1 Z    SEL  0     **** SEL Z 16
    11 LYL4       56 GROUP        1 Z    LYL  0     **** LYL Z 18
    12 GLL5       15 GROUP        1 Z    GLL  0     **** GLL Z 20
@<TRIPOS>SET

