#    Name: 1sbz_FMN_4_ligand
#    Modification time : Tue Mar 25 02:15:28 2014

@<TRIPOS>MOLECULE
1sbz_FMN_4_ligand
   50    52     1     0     0
SMALL
NO_CHARGES


@<TRIPOS>ATOM
      1 N1         20.3080  -16.0510    2.5560 N.2       1 FMN1404     0.0000 
      2 C2         21.2280  -16.7130    1.7760 C.2       1 FMN1404     0.0000 
      3 O2         22.1580  -17.2780    2.3390 O.2       1 FMN1404     0.0000 
      4 N3         21.0960  -16.7270    0.4010 N.am      1 FMN1404     0.0000 
      5 C4         20.0230  -16.0750   -0.1950 C.2       1 FMN1404     0.0000 
      6 O4         19.7750  -16.3090   -1.3820 O.2       1 FMN1404     0.0000 
      7 C4A        19.0830  -15.4020    0.6070 C.2       1 FMN1404     0.0000 
      8 N5         17.9970  -14.7420    0.0540 N.2       1 FMN1404     0.0000 
      9 C5A        17.0780  -14.0900    0.8700 C.ar      1 FMN1404     0.0000 
     10 C6         15.9810  -13.4300    0.3080 C.ar      1 FMN1404     0.0000 
     11 C7         15.0480  -12.7730    1.1240 C.ar      1 FMN1404     0.0000 
     12 C7M        13.7120  -12.4100    0.5270 C.3       1 FMN1404     0.0000 
     13 C8         15.2190  -12.7770    2.5140 C.ar      1 FMN1404     0.0000 
     14 C8M        14.1230  -12.3160    3.4450 C.3       1 FMN1404     0.0000 
     15 C9         16.3120  -13.4350    3.0670 C.ar      1 FMN1404     0.0000 
     16 C9A        17.2420  -14.0950    2.2540 C.ar      1 FMN1404     0.0000 
     17 N10        18.3350  -14.7480    2.8180 N.pl3     1 FMN1404     0.0000 
     18 C10        19.2430  -15.3930    1.9940 C.2       1 FMN1404     0.0000 
     19 C1'        18.6710  -14.5310    4.2690 C.3       1 FMN1404     0.0000 
     20 C2'        18.2130  -15.7350    5.0870 C.3       1 FMN1404     0.0000 
     21 O2'        16.8290  -15.9360    4.8880 O.3       1 FMN1404     0.0000 
     22 C3'        18.5520  -15.5900    6.5750 C.3       1 FMN1404     0.0000 
     23 O3'        19.9550  -15.7230    6.7550 O.3       1 FMN1404     0.0000 
     24 C4'        17.8040  -16.5820    7.4740 C.3       1 FMN1404     0.0000 
     25 O4'        18.2680  -16.5030    8.8090 O.3       1 FMN1404     0.0000 
     26 C5'        17.9480  -18.0280    7.0120 C.3       1 FMN1404     0.0000 
     27 O5'        17.4310  -18.9020    8.0020 O.3       1 FMN1404     0.0000 
     28 P          17.0790  -20.4170    7.5820 P.3       1 FMN1404     0.0000 
     29 O1P        15.8560  -20.3660    6.6890 O.co2     1 FMN1404     0.0000 
     30 O2P        16.8210  -21.1780    8.8480 O.co2     1 FMN1404     0.0000 
     31 O3P        18.2560  -21.0120    6.8330 O.co2     1 FMN1404     0.0000 
     32 H          21.7865  -17.2166   -0.1824 H         1 FMN1404     0.0000 
     33 H          15.8550  -13.4249   -0.7135 H         1 FMN1404     0.0000 
     34 H          16.4439  -13.4396    4.0918 H         1 FMN1404     0.0000 
     35 H          18.1679  -13.6407    4.6359 H         1 FMN1404     0.0000 
     36 H          19.7444  -14.4102    4.3859 H         1 FMN1404     0.0000 
     37 H          18.7771  -16.6067    4.7106 H         1 FMN1404     0.0000 
     38 H          18.2378  -14.5760    6.8784 H         1 FMN1404     0.0000 
     39 H          16.7384  -16.3324    7.4317 H         1 FMN1404     0.0000 
     40 H          19.0130  -18.2113    6.8181 H         1 FMN1404     0.0000 
     41 H          17.4147  -18.1274    6.0575 H         1 FMN1404     0.0000 
     42 H          13.8100  -11.8006   -0.2598 H         1 FMN1404     0.0000 
     43 H          13.2142  -13.2180    0.2117 H         1 FMN1404     0.0000 
     44 H          13.1244  -11.9431    1.1879 H         1 FMN1404     0.0000 
     45 H          14.3977  -12.3833    4.4042 H         1 FMN1404     0.0000 
     46 H          13.8708  -11.3627    3.2785 H         1 FMN1404     0.0000 
     47 H          13.2918  -12.8618    3.3392 H         1 FMN1404     0.0000 
     48 H          16.7111  -15.9591    3.8952 H         1 FMN1404     0.0000 
     49 H          20.2697  -16.2420    5.9603 H         1 FMN1404     0.0000 
     50 H          19.2635  -16.4455    8.7339 H         1 FMN1404     0.0000 
@<TRIPOS>BOND
     1    2    1 1    
     2   18    1 2    
     3    3    2 2    
     4    4    2 am   
     5    5    4 am   
     6   32    4 1    
     7    6    5 2    
     8    7    5 1    
     9    8    7 2    
    10   18    7 1    
    11    9    8 1    
    12   10    9 ar   
    13   16    9 ar   
    14   11   10 ar   
    15   33   10 1    
    16   12   11 1    
    17   13   11 ar   
    18   42   12 1    
    19   43   12 1    
    20   44   12 1    
    21   14   13 1    
    22   15   13 ar   
    23   45   14 1    
    24   46   14 1    
    25   47   14 1    
    26   16   15 ar   
    27   34   15 1    
    28   17   16 1    
    29   18   17 1    
    30   19   17 1    
    31   20   19 1    
    32   35   19 1    
    33   36   19 1    
    34   21   20 1    
    35   22   20 1    
    36   37   20 1    
    37   48   21 1    
    38   23   22 1    
    39   24   22 1    
    40   38   22 1    
    41   49   23 1    
    42   25   24 1    
    43   26   24 1    
    44   39   24 1    
    45   50   25 1    
    46   27   26 1    
    47   40   26 1    
    48   41   26 1    
    49   28   27 1    
    50   29   28 ar   
    51   30   28 ar   
    52   31   28 ar   
@<TRIPOS>SUBSTRUCTURE
     1 FMN1404     1 GROUP   
@<TRIPOS>SET

