#    Name: 3ben_LEH_1_INTS_M
#    Modification time : Mon Mar 24 19:20:50 2014

@<TRIPOS>MOLECULE
3ben_LEH_1_INTS_M
   71     0     3     0     0
SMALL
NO_CHARGES


@<TRIPOS>ATOM
      1 CA         13.6750    4.4840   26.2520 C.3       1 GLC5        0.0000 
      2 CA         15.2340    4.5180   24.7440 C.3       3 GLL5        0.0000 
      3 CA         12.1160    4.4500   27.7600 C.3       2 GLP5        0.0000 
      4 CA         15.7255   10.4875   24.7715 C.3       1 GLC5        0.0000 
      5 CA         15.9040    8.3970   24.6680 C.3       3 GLL5        0.0000 
      6 CA         15.5470   12.5780   24.8750 C.3       2 GLP5        0.0000 
      7 CA         16.0990    8.5085   22.7320 C.3       1 GLC5        0.0000 
      8 CA         16.2940    8.6200   20.7960 C.3       2 GLP5        0.0000 
      9 CA         17.4040    9.2330   23.9595 C.3       1 GLC5        0.0000 
     10 CA         18.9040   10.0690   23.2510 C.3       2 GLP5        0.0000 
     11 CA         14.5445    8.0295   28.2565 C.3       1 GLC5        0.0000 
     12 CA         15.0440    7.0930   26.5970 C.3       3 GLL5        0.0000 
     13 CA         14.0450    8.9660   29.9160 C.3       2 GLP5        0.0000 
     14 CA         13.4900    6.4640   27.4540 C.3       1 GLC5        0.0000 
     15 CA         11.9360    5.8350   28.3110 C.3       2 GLP5        0.0000 
     16 CA         19.1880    3.2060   27.7105 C.3       1 GLC5        0.0000 
     17 CA         18.7040    3.3650   25.6380 C.3       3 GLL5        0.0000 
     18 CA         19.6720    3.0470   29.7830 C.3       2 GLP5        0.0000 
     19 CA         17.5245    0.7205   23.7835 C.3       1 GLC5        0.0000 
     20 CA         18.7870    2.0820   24.8050 C.3       3 GLL5        0.0000 
     21 CA         16.2620   -0.6410   22.7620 C.3       2 GLP5        0.0000 
     22 CA         21.6810   -3.2365   20.0375 C.3       1 GLC5        0.0000 
     23 CA         22.1790   -1.4020   21.0510 C.3       3 GLL5        0.0000 
     24 CA         21.1830   -5.0710   19.0240 C.3       2 GLP5        0.0000 
     25 CA         22.3540    0.7040   17.6030 C.3       1 GLC5        0.0000 
     26 CA         22.1120   -1.1390   17.8450 C.3       3 GLL5        0.0000 
     27 CA         22.5960    2.5470   17.3610 C.3       2 GLP5        0.0000 
     28 CA         23.0660   -0.1505   16.1495 C.3       1 GLC5        0.0000 
     29 CA         22.1160   -1.8150   16.4870 C.3       3 GLL5        0.0000 
     30 CA         24.0160    1.5140   15.8120 C.3       2 GLP5        0.0000 
     31 CA         21.6510   -2.8770   15.0370 C.3       1 GLC5        0.0000 
     32 CA         21.1860   -3.9390   13.5870 C.3       2 GLP5        0.0000 
     33 CA         18.3620    1.5395   15.1390 C.3       1 GLC5        0.0000 
     34 CA         19.9260    0.0820   14.5690 C.3       3 GLL5        0.0000 
     35 CA         16.7980    2.9970   15.7090 C.3       2 GLP5        0.0000 
     36 CA         13.7933    6.1185   24.0375 C.3       1 GLC5        0.0000 
     37 CA         12.0750    6.1070   23.1740 C.3       2 GLP5        0.0000 
     38 CA         14.1841    8.8295   26.0841 C.3       1 GLC5        0.0000 
     39 CA         12.9190   10.2620   26.3820 C.3       2 GLP5        0.0000 
     40 CA         20.2407    3.0637   25.8503 C.3       1 GLC5        0.0000 
     41 CA         21.7360    3.4040   26.4790 C.3       2 GLP5        0.0000 
     42 CA         18.4533    1.0877   25.6893 C.3       1 GLC5        0.0000 
     43 CA         18.1610   -0.5480   26.1570 C.3       2 GLP5        0.0000 
     44 CA         20.9548    2.5605   24.9928 C.3       1 GLC5        0.0000 
     45 CA         19.5910    2.2090   23.5090 C.3       3 GLL5        0.0000 
     46 CA         19.1673    0.5845   24.8317 C.3       1 GLC5        0.0000 
     47 CA         20.7560    1.2250   23.5040 C.3       3 GLL5        0.0000 
     48 CA         22.3505    1.6355   22.2535 C.3       1 GLC5        0.0000 
     49 CA         20.7340    0.2670   22.3140 C.3       3 GLL5        0.0000 
     50 CA         23.9560    2.5250   21.5980 C.3       2 GLP5        0.0000 
     51 CA         19.0019   -0.1550   22.5951 C.3       1 GLC5        0.0000 
     52 CA         17.5500   -1.3020   22.2800 C.3       2 GLP5        0.0000 
     53 CA         22.6058   -0.7390   23.6750 C.3       1 GLC5        0.0000 
     54 CA         22.1200   -0.3300   22.1310 C.3       3 GLL5        0.0000 
     55 CA         23.7790   -1.6860   24.8300 C.3       2 GLP5        0.0000 
     56 CA         21.8137   -2.7220   22.4965 C.3       1 GLC5        0.0000 
     57 CA         21.4780   -4.5780   23.4020 C.3       2 GLP5        0.0000 
     58 CA         20.4533   -1.7560   21.0565 C.3       1 GLC5        0.0000 
     59 CA         18.7570   -2.6460   20.5220 C.3       2 GLP5        0.0000 
     60 CA         24.0753   -1.7920   21.7695 C.3       1 GLC5        0.0000 
     61 CA         25.4040   -2.3270   22.9800 C.3       2 GLP5        0.0000 
     62 CA         23.3439    0.7680   21.2135 C.3       1 GLC5        0.0000 
     63 CA         23.3140   -1.1120   20.0670 C.3       3 GLL5        0.0000 
     64 CA         23.9600    0.0860   18.7285 C.3       1 GLC5        0.0000 
     65 CA         24.7050    1.6580   18.0490 C.3       2 GLP5        0.0000 
     66 CA         21.7740   -3.3641   18.2080 C.3       1 GLC5        0.0000 
     67 CA         23.1160   -1.8600   18.7490 C.3       3 GLL5        0.0000 
     68 CA         20.6245   -2.0728   14.3402 C.3       1 GLC5        0.0000 
     69 CA         20.2000   -0.4950   15.6180 C.3       3 GLL5        0.0000 
     70 CA         18.1755   -0.7143   15.0032 C.3       1 GLC5        0.0000 
     71 CA         16.2880   -1.2220   14.9130 C.3       2 GLP5        0.0000 
@<TRIPOS>BOND
@<TRIPOS>SUBSTRUCTURE
     1 GLC5        1 GROUP        1 X    GLC  0     ROOT GLC X 6
     2 GLP5        3 GROUP        1 Y    GLP  0     ROOT GLP Y 13
     3 GLL5        2 GROUP        1 Z    GLL  0     ROOT GLL Z 20
@<TRIPOS>SET

