#    Name: 3ben_LEH_1_ligand
#    Modification time : Mon Mar 24 19:20:50 2014

@<TRIPOS>MOLECULE
3ben_LEH_1_ligand
   63    63     1     0     0
SMALL
NO_CHARGES


@<TRIPOS>ATOM
      1 O3         16.7020    3.4960   26.9220 O.2       1 LEH500      0.0000 
      2 C7         17.2500    3.6860   25.8480 C.2       1 LEH500      0.0000 
      3 N1         16.6420    4.1650   24.7740 N.am      1 LEH500      0.0000 
      4 C6         15.2340    4.5180   24.7440 C.3       1 LEH500      0.0000 
      5 C5         15.2020    5.9920   24.2940 C.3       1 LEH500      0.0000 
      6 C4         15.8050    7.0050   25.2830 C.3       1 LEH500      0.0000 
      7 C3         15.9040    8.3970   24.6680 C.3       1 LEH500      0.0000 
      8 C2         15.0440    7.0930   26.5970 C.3       1 LEH500      0.0000 
      9 C1         14.5190    3.5780   23.7880 C.2       1 LEH500      0.0000 
     10 O2         15.0850    3.2870   22.7060 O.co2     1 LEH500      0.0000 
     11 O1         13.3950    3.0970   24.0960 O.co2     1 LEH500      0.0000 
     12 C8         18.7040    3.3650   25.6380 C.3       1 LEH500      0.0000 
     13 C9         18.7870    2.0820   24.8050 C.3       1 LEH500      0.0000 
     14 C10        19.5910    2.2090   23.5090 C.3       1 LEH500      0.0000 
     15 C11        20.7560    1.2250   23.5040 C.3       1 LEH500      0.0000 
     16 C12        20.7340    0.2670   22.3140 C.3       1 LEH500      0.0000 
     17 C13        22.1200   -0.3300   22.1310 C.3       1 LEH500      0.0000 
     18 C14        22.1790   -1.4020   21.0510 C.3       1 LEH500      0.0000 
     19 C15        23.3140   -1.1120   20.0670 C.3       1 LEH500      0.0000 
     20 C16        23.1160   -1.8600   18.7490 C.3       1 LEH500      0.0000 
     21 C17        22.1120   -1.1390   17.8450 C.3       1 LEH500      0.0000 
     22 C18        22.1160   -1.8150   16.4870 C.3       1 LEH500      0.0000 
     23 N2         21.3390   -0.9940   15.5170 N.pl3     1 LEH500      0.0000 
     24 C20        20.2000   -0.4950   15.6180 C.2       1 LEH500      0.0000 
     25 C21        19.9260    0.0820   14.5690 C.2       1 LEH500      0.0000 
     26 N3         20.8160   -0.1470   13.7260 N.2       1 LEH500      0.0000 
     27 C19        21.7860   -0.7230   14.3580 C.2       1 LEH500      0.0000 
     28 H          17.1606    4.3171   23.8685 H         1 LEH500      0.0000 
     29 H          14.8152    4.4483   25.7182 H         1 LEH500      0.0000 
     30 H          14.1508    6.2763   24.0920 H         1 LEH500      0.0000 
     31 H          15.7374    6.0776   23.3282 H         1 LEH500      0.0000 
     32 H          16.8324    6.6799   25.5130 H         1 LEH500      0.0000 
     33 H          19.1898    3.2006   26.5871 H         1 LEH500      0.0000 
     34 H          19.1882    4.1655   25.1008 H         1 LEH500      0.0000 
     35 H          17.7615    1.7517   24.5576 H         1 LEH500      0.0000 
     36 H          19.2340    1.2837   25.4252 H         1 LEH500      0.0000 
     37 H          19.9743    3.2231   23.4242 H         1 LEH500      0.0000 
     38 H          18.9399    2.0023   22.6628 H         1 LEH500      0.0000 
     39 H          20.7352    0.6390   24.4346 H         1 LEH500      0.0000 
     40 H          21.7012    1.7874   23.4922 H         1 LEH500      0.0000 
     41 H          20.4521    0.8110   21.4219 H         1 LEH500      0.0000 
     42 H          20.0201   -0.5238   22.5044 H         1 LEH500      0.0000 
     43 H          22.4536   -0.7651   23.0861 H         1 LEH500      0.0000 
     44 H          22.8277    0.4743   21.8762 H         1 LEH500      0.0000 
     45 H          21.2349   -1.4240   20.5107 H         1 LEH500      0.0000 
     46 H          22.3463   -2.3727   21.5130 H         1 LEH500      0.0000 
     47 H          24.2618   -1.4163   20.5138 H         1 LEH500      0.0000 
     48 H          23.3512   -0.0396   19.8693 H         1 LEH500      0.0000 
     49 H          22.7508   -2.8660   18.9578 H         1 LEH500      0.0000 
     50 H          24.0727   -1.9360   18.2314 H         1 LEH500      0.0000 
     51 H          22.4065   -0.1055   17.7400 H         1 LEH500      0.0000 
     52 H          21.1275   -1.2050   18.2835 H         1 LEH500      0.0000 
     53 H          21.6709   -2.8046   16.5816 H         1 LEH500      0.0000 
     54 H          23.1452   -1.9228   16.1470 H         1 LEH500      0.0000 
     55 H          19.6080   -0.5614   16.4355 H         1 LEH500      0.0000 
     56 H          19.1066    0.6575   14.4029 H         1 LEH500      0.0000 
     57 H          22.6786   -0.9069   14.0038 H         1 LEH500      0.0000 
     58 H          16.2974    9.0581   25.3068 H         1 LEH500      0.0000 
     59 H          16.4793    8.4016   23.8501 H         1 LEH500      0.0000 
     60 H          15.0076    8.7482   24.3978 H         1 LEH500      0.0000 
     61 H          15.0258    6.2149   27.0751 H         1 LEH500      0.0000 
     62 H          15.4553    7.7578   27.2206 H         1 LEH500      0.0000 
     63 H          14.0935    7.3707   26.4578 H         1 LEH500      0.0000 
@<TRIPOS>BOND
     1    2    1 2    
     2    3    2 am   
     3   12    2 1    
     4    4    3 1    
     5   28    3 1    
     6    5    4 1    
     7    9    4 1    
     8   29    4 1    
     9    6    5 1    
    10   30    5 1    
    11   31    5 1    
    12    7    6 1    
    13    8    6 1    
    14   32    6 1    
    15   58    7 1    
    16   59    7 1    
    17   60    7 1    
    18   61    8 1    
    19   62    8 1    
    20   63    8 1    
    21   10    9 ar   
    22   11    9 ar   
    23   13   12 1    
    24   33   12 1    
    25   34   12 1    
    26   14   13 1    
    27   35   13 1    
    28   36   13 1    
    29   15   14 1    
    30   37   14 1    
    31   38   14 1    
    32   16   15 1    
    33   39   15 1    
    34   40   15 1    
    35   17   16 1    
    36   41   16 1    
    37   42   16 1    
    38   18   17 1    
    39   43   17 1    
    40   44   17 1    
    41   19   18 1    
    42   45   18 1    
    43   46   18 1    
    44   20   19 1    
    45   47   19 1    
    46   48   19 1    
    47   21   20 1    
    48   49   20 1    
    49   50   20 1    
    50   22   21 1    
    51   51   21 1    
    52   52   21 1    
    53   23   22 1    
    54   53   22 1    
    55   54   22 1    
    56   24   23 1    
    57   27   23 1    
    58   25   24 2    
    59   55   24 1    
    60   26   25 1    
    61   56   25 1    
    62   27   26 2    
    63   57   27 1    
@<TRIPOS>SUBSTRUCTURE
     1 LEH500      1 GROUP   
@<TRIPOS>SET

