#    Name: 4KWE_1_CAVITY_N1_ALL.mol2
#    Modification time : Tue Mar 11 12:16:30 2014

@<TRIPOS>MOLECULE
4KWE_1_CAVITY_N1_ALL.mol2
   78     0     5     0     0
SMALL
NO_CHARGES


@<TRIPOS>ATOM
      1 O          48.7770   -9.1787  -18.2448 O.2       2 ALA2        0.0000 
      2 CA         48.8984  -10.1912  -17.1447 C.3       4 GLY6        0.0000 
      3 CA         49.0198  -11.2036  -16.0447 C.3       4 GLY6        0.0000 
      4 DU         49.1412  -12.2161  -14.9446 H         5 CUB7        0.0000 
      5 OG         47.2475   -8.6147  -19.6022 O.2       1 SER1        0.0000 
      6 OG         47.3689   -9.6271  -18.5022 O.2       1 SER1        0.0000 
      7 O          47.4903  -10.6396  -17.4021 O.2       2 ALA2        0.0000 
      8 DU         47.6117  -11.6521  -16.3020 H         5 CUB7        0.0000 
      9 O          47.7331  -12.6646  -15.2019 O.2       2 ALA2        0.0000 
     10 O          47.8546  -13.6770  -14.1019 O.2       2 ALA2        0.0000 
     11 OG         45.9609  -10.0756  -18.7595 O.2       1 SER1        0.0000 
     12 O          46.0823  -11.0881  -17.6594 O.2       2 ALA2        0.0000 
     13 CA         46.2037  -12.1005  -16.5594 C.3       4 GLY6        0.0000 
     14 O          46.3251  -13.1130  -15.4593 O.2       2 ALA2        0.0000 
     15 CA         49.5611   -6.7059  -18.1008 C.3       4 GLY6        0.0000 
     16 DU         49.6825   -7.7184  -17.0007 H         5 CUB7        0.0000 
     17 CA         48.0316   -6.1419  -19.4582 C.3       4 GLY6        0.0000 
     18 N          48.1530   -7.1544  -18.3582 N.2       2 ALA2        0.0000 
     19 DU         48.2744   -8.1669  -17.2581 H         5 CUB7        0.0000 
     20 DU         48.3958   -9.1793  -16.1580 H         5 CUB7        0.0000 
     21 DU         48.5172  -10.1918  -15.0579 H         5 CUB7        0.0000 
     22 NZ         50.4665   -5.2456  -16.8567 N.2       3 LYS4        0.0000 
     23 CA         49.0585   -5.6941  -17.1141 C.3       4 GLY6        0.0000 
     24 DU         49.1799   -6.7066  -16.0140 H         5 CUB7        0.0000 
     25 OG         46.7449   -7.6029  -18.6155 O.2       1 SER1        0.0000 
     26 OG         46.8663   -8.6153  -17.5154 O.2       1 SER1        0.0000 
     27 DU         46.9877   -9.6278  -16.4154 H         5 CUB7        0.0000 
     28 O          47.1091  -10.6403  -15.3153 O.2       2 ALA2        0.0000 
     29 O          47.2305  -11.6527  -14.2152 O.2       2 ALA2        0.0000 
     30 OG         45.3369   -8.0513  -18.8729 O.2       1 SER1        0.0000 
     31 OG         45.4583   -9.0638  -17.7728 O.2       1 SER1        0.0000 
     32 O          45.5797  -10.0763  -16.6727 O.2       2 ALA2        0.0000 
     33 O          45.7011  -11.0887  -15.5726 O.2       2 ALA2        0.0000 
     34 OG         43.9288   -8.4998  -19.1302 O.2       1 SER1        0.0000 
     35 O          44.0502   -9.5122  -18.0301 O.2       2 ALA2        0.0000 
     36 OG         42.3993   -7.9358  -20.4876 O.2       1 SER1        0.0000 
     37 O          42.5207   -8.9482  -19.3876 O.2       2 ALA2        0.0000 
     38 O          48.6169  -13.6757  -18.2754 O.2       2 ALA2        0.0000 
     39 O          47.0875  -13.1117  -19.6329 O.2       2 ALA2        0.0000 
     40 N          47.2089  -14.1242  -18.5328 N.2       2 ALA2        0.0000 
     41 CA         47.0264   -4.1183  -17.4848 C.3       4 GLY6        0.0000 
     42 N          47.1478   -5.1307  -16.3847 N.2       2 ALA2        0.0000 
     43 CA         45.9825   -7.6041  -14.4419 C.3       4 GLY6        0.0000 
     44 O          44.5745   -8.0526  -14.6993 O.2       2 ALA2        0.0000 
     45 CA         44.6959   -9.0651  -13.5992 C.3       4 GLY6        0.0000 
     46 N          41.3941   -5.9121  -18.5142 N.2       2 ALA2        0.0000 
     47 O          41.5155   -6.9246  -17.4141 O.2       2 ALA2        0.0000 
     48 CA         39.9861   -6.3606  -18.7716 C.3       4 GLY6        0.0000 
     49 O          40.1075   -7.3730  -17.6715 O.2       2 ALA2        0.0000 
     50 NZ         48.5559   -4.6823  -16.1274 N.2       3 LYS4        0.0000 
     51 CA         47.5290   -5.1301  -18.4715 C.3       4 GLY6        0.0000 
     52 N          47.6504   -6.1426  -17.3714 N.2       2 ALA2        0.0000 
     53 N          47.7718   -7.1550  -16.2714 N.2       2 ALA2        0.0000 
     54 DU         47.8932   -8.1675  -15.1713 H         5 CUB7        0.0000 
     55 OG         46.1209   -5.5786  -18.7289 O.2       1 SER1        0.0000 
     56 N          46.2423   -6.5910  -17.6288 N.2       2 ALA2        0.0000 
     57 N          46.3637   -7.6035  -16.5287 N.2       2 ALA2        0.0000 
     58 DU         46.4851   -8.6160  -15.4287 H         5 CUB7        0.0000 
     59 O          46.6065   -9.6284  -14.3286 O.2       2 ALA2        0.0000 
     60 N          44.9557   -8.0520  -16.7861 N.2       2 ALA2        0.0000 
     61 O          45.0771   -9.0644  -15.6860 O.2       2 ALA2        0.0000 
     62 CA         45.1985  -10.0769  -14.5859 C.3       4 GLY6        0.0000 
     63 N          43.3048   -6.4755  -19.2436 N.2       2 ALA2        0.0000 
     64 N          43.4262   -7.4879  -18.1435 N.2       2 ALA2        0.0000 
     65 O          43.5476   -8.5004  -17.0434 O.2       2 ALA2        0.0000 
     66 CA         41.8967   -6.9239  -19.5009 C.3       4 GLY6        0.0000 
     67 O          42.0181   -7.9364  -18.4009 O.2       2 ALA2        0.0000 
     68 O          40.6101   -8.3849  -18.6582 O.2       2 ALA2        0.0000 
     69 CA         49.5224  -12.2154  -17.0314 C.3       4 GLY6        0.0000 
     70 O          49.6438  -13.2279  -15.9313 O.2       2 ALA2        0.0000 
     71 O          47.9929  -11.6514  -18.3888 O.2       2 ALA2        0.0000 
     72 O          48.1143  -12.6639  -17.2887 O.2       2 ALA2        0.0000 
     73 DU         48.2357  -13.6764  -16.1886 H         5 CUB7        0.0000 
     74 O          46.5849  -12.0999  -18.6461 O.2       2 ALA2        0.0000 
     75 CA         46.7063  -13.1124  -17.5461 C.3       4 GLY6        0.0000 
     76 CA         46.8277  -14.1248  -16.4460 C.3       4 GLY6        0.0000 
     77 CA         39.4835   -5.3488  -17.7849 C.3       4 GLY6        0.0000 
     78 CA         39.6049   -6.3612  -16.6848 C.3       4 GLY6        0.0000 
@<TRIPOS>BOND
@<TRIPOS>SUBSTRUCTURE
     1 SER1        5 GROUP   
     2 ALA2        1 GROUP   
     3 LYS4       22 GROUP   
     4 GLY6        2 GROUP   
     5 CUB7        4 GROUP   
@<TRIPOS>SET

