#    Name: 4kwe_GDP_1_INTS_M
#    Modification time : Tue Mar 25 09:09:11 2014

@<TRIPOS>MOLECULE
4kwe_GDP_1_INTS_M
   43     0     9     0     0
SMALL
NO_CHARGES


@<TRIPOS>ATOM
      1 N          45.8880  -13.3625  -20.5420 N.am      2 SEC2        0.0000 
      2 N          46.3640  -13.2520  -19.1850 N.am      8 SEL2        0.0000 
      3 N          45.4120  -13.4730  -21.8990 N.am      5 SEP2        0.0000 
      4 N          48.8710  -11.2710  -19.4575 N.am      2 SEC2        0.0000 
      5 N          47.6200  -11.1120  -19.0790 N.am      8 SEL2        0.0000 
      6 N          50.1220  -11.4300  -19.8360 N.am      5 SEP2        0.0000 
      7 N          44.1745  -11.9435  -18.1765 N.am      2 SEC2        0.0000 
      8 N          45.3140  -11.2170  -18.1990 N.am      8 SEL2        0.0000 
      9 N          43.0350  -12.6700  -18.1540 N.am      5 SEP2        0.0000 
     10 N          44.5390  -11.3470  -19.4460 N.am      2 SEC2        0.0000 
     11 N          43.7640  -11.4770  -20.6930 N.am      5 SEP2        0.0000 
     12 N          50.3655  -13.6825  -18.2895 N.am      2 SEC2        0.0000 
     13 N          48.9800  -13.8500  -18.0390 N.am      8 SEL2        0.0000 
     14 N          51.7510  -13.5150  -18.5400 N.am      5 SEP2        0.0000 
     15 N          50.7100  -12.9240  -17.3580 N.am      2 SEC2        0.0000 
     16 N          49.6690  -12.3330  -16.1760 N.am      8 SEL2        0.0000 
     17 CA         45.6780  -14.8635  -16.3410 C.3       3 GLC5        0.0000 
     18 CA         47.3920  -15.4190  -16.0300 C.3       9 GLL5        0.0000 
     19 CA         43.9640  -14.3080  -16.6520 C.3       6 GLP5        0.0000 
     20 CA         48.6775  -17.5935  -17.0460 C.3       3 GLC5        0.0000 
     21 CA         48.0580  -16.6380  -15.4090 C.3       9 GLL5        0.0000 
     22 CA         49.2970  -18.5490  -18.6830 C.3       6 GLP5        0.0000 
     23 O          47.2930  -17.2735  -11.9970 O.2       1 ALC1        0.0000 
     24 O          46.9910  -17.0760  -13.2650 O.2       7 ALL1        0.0000 
     25 O          47.5950  -17.4710  -10.7290 O.2       4 ALP1        0.0000 
     26 O          48.8650  -19.0685  -12.0125 O.2       1 ALC1        0.0000 
     27 O          49.1660  -18.6940  -13.2890 O.2       7 ALL1        0.0000 
     28 O          48.5640  -19.4430  -10.7360 O.2       4 ALP1        0.0000 
     29 O          48.3805  -18.0825  -12.0090 O.2       1 ALC1        0.0000 
     30 CA         49.7775  -17.8935  -16.7600 C.3       3 GLC5        0.0000 
     31 CA         50.2580  -17.2380  -14.8370 C.3       9 GLL5        0.0000 
     32 O          56.3585  -16.7460  -16.7855 O.2       1 ALC1        0.0000 
     33 O          55.2990  -16.4320  -16.0170 O.2       7 ALL1        0.0000 
     34 O          57.4180  -17.0600  -17.5540 O.2       4 ALP1        0.0000 
     35 O          56.1985  -17.7485  -17.3605 O.2       1 ALC1        0.0000 
     36 O          54.9790  -18.4370  -17.1670 O.2       7 ALL1        0.0000 
     37 CA         51.0075  -17.5293  -12.8417 C.3       3 GLC5        0.0000 
     38 CA         52.1730  -17.7830  -11.4790 C.3       6 GLP5        0.0000 
     39 CA         52.8077  -15.3530  -16.6793 C.3       3 GLC5        0.0000 
     40 CA         52.6330  -16.5470  -15.2000 C.3       9 GLL5        0.0000 
     41 CA         52.5590  -14.7220  -18.3730 C.3       6 GLP5        0.0000 
     42 CA         54.4477  -16.4875  -13.5362 C.3       3 GLC5        0.0000 
     43 CA         55.8390  -16.9910  -12.0870 C.3       6 GLP5        0.0000 
@<TRIPOS>BOND
@<TRIPOS>SUBSTRUCTURE
     1 ALC1       23 GROUP        1 X    ALC  0     ROOT ALC X 1
     2 SEC2        1 GROUP        1 X    SEC  0     **** SEC X 2
     3 GLC5       17 GROUP        1 X    GLC  0     **** GLC X 6
     4 ALP1       25 GROUP        1 Y    ALP  0     ROOT ALP Y 8
     5 SEP2        3 GROUP        1 Y    SEP  0     **** SEP Y 9
     6 GLP5       19 GROUP        1 Y    GLP  0     **** GLP Y 13
     7 ALL1       24 GROUP        1 Z    ALL  0     ROOT ALL Z 15
     8 SEL2        2 GROUP        1 Z    SEL  0     **** SEL Z 16
     9 GLL5       18 GROUP        1 Z    GLL  0     **** GLL Z 20
@<TRIPOS>SET

