#    Name: 4kwe_GDP_1_ligand
#    Modification time : Tue Mar 25 09:09:11 2014

@<TRIPOS>MOLECULE
4kwe_GDP_1_ligand
   40    42     1     0     0
SMALL
NO_CHARGES


@<TRIPOS>ATOM
      1 PB         46.6070  -11.9810  -18.3890 P.3       1 GDP1000     0.0000 
      2 O1B        46.3640  -13.2520  -19.1850 O.co2     1 GDP1000     0.0000 
      3 O2B        47.6200  -11.1120  -19.0790 O.co2     1 GDP1000     0.0000 
      4 O3B        45.3140  -11.2170  -18.1990 O.co2     1 GDP1000     0.0000 
      5 O3A        47.1930  -12.3540  -16.9360 O.3       1 GDP1000     0.0000 
      6 PA         48.5590  -13.1870  -16.7480 P.3       1 GDP1000     0.0000 
      7 O1A        48.9800  -13.8500  -18.0390 O.co2     1 GDP1000     0.0000 
      8 O2A        49.6690  -12.3330  -16.1760 O.co2     1 GDP1000     0.0000 
      9 O5'        48.1210  -14.2600  -15.6600 O.3       1 GDP1000     0.0000 
     10 C5'        47.3920  -15.4190  -16.0300 C.3       1 GDP1000     0.0000 
     11 C4'        48.0580  -16.6380  -15.4090 C.3       1 GDP1000     0.0000 
     12 O4'        49.4050  -16.7430  -15.8670 O.3       1 GDP1000     0.0000 
     13 C3'        48.1580  -16.5420  -13.8980 C.3       1 GDP1000     0.0000 
     14 O3'        46.9910  -17.0760  -13.2650 O.3       1 GDP1000     0.0000 
     15 C2'        49.4260  -17.3130  -13.5720 C.3       1 GDP1000     0.0000 
     16 O2'        49.1660  -18.6940  -13.2890 O.3       1 GDP1000     0.0000 
     17 C1'        50.2580  -17.2380  -14.8370 C.3       1 GDP1000     0.0000 
     18 N9         51.4270  -16.3390  -14.6650 N.pl3     1 GDP1000     0.0000 
     19 C8         51.4720  -15.1930  -13.9590 C.2       1 GDP1000     0.0000 
     20 N7         52.7040  -14.6250  -14.0130 N.2       1 GDP1000     0.0000 
     21 C5         53.4800  -15.4210  -14.7710 C.2       1 GDP1000     0.0000 
     22 C6         54.8890  -15.4150  -15.2390 C.2       1 GDP1000     0.0000 
     23 O6         55.6720  -14.4910  -14.9230 O.2       1 GDP1000     0.0000 
     24 N1         55.2990  -16.4320  -16.0170 N.am      1 GDP1000     0.0000 
     25 C2         54.4820  -17.4450  -16.3820 C.2       1 GDP1000     0.0000 
     26 N2         54.9790  -18.4370  -17.1670 N.pl3     1 GDP1000     0.0000 
     27 N3         53.1810  -17.5080  -15.9880 N.2       1 GDP1000     0.0000 
     28 C4         52.6330  -16.5470  -15.2000 C.2       1 GDP1000     0.0000 
     29 H          47.3736  -15.5632  -17.1147 H         1 GDP1000     0.0000 
     30 H          46.3578  -15.3842  -15.6738 H         1 GDP1000     0.0000 
     31 H          47.5028  -17.5191  -15.6586 H         1 GDP1000     0.0000 
     32 H          48.3307  -15.5080  -13.6538 H         1 GDP1000     0.0000 
     33 H          49.9489  -16.8172  -12.7990 H         1 GDP1000     0.0000 
     34 H          50.5953  -18.2351  -15.0730 H         1 GDP1000     0.0000 
     35 H          50.7118  -14.8108  -13.4647 H         1 GDP1000     0.0000 
     36 H          56.3024  -16.4426  -16.3593 H         1 GDP1000     0.0000 
     37 H          54.3467  -19.1782  -17.3925 H         1 GDP1000     0.0000 
     38 H          55.9331  -18.3381  -17.4498 H         1 GDP1000     0.0000 
     39 H          47.0569  -16.7826  -12.3113 H         1 GDP1000     0.0000 
     40 H          48.9692  -18.7246  -12.3090 H         1 GDP1000     0.0000 
@<TRIPOS>BOND
     1    2    1 ar   
     2    3    1 ar   
     3    4    1 ar   
     4    5    1 1    
     5    6    5 1    
     6    7    6 ar   
     7    8    6 ar   
     8    9    6 1    
     9   10    9 1    
    10   11   10 1    
    11   29   10 1    
    12   30   10 1    
    13   12   11 1    
    14   13   11 1    
    15   31   11 1    
    16   17   12 1    
    17   14   13 1    
    18   15   13 1    
    19   32   13 1    
    20   39   14 1    
    21   16   15 1    
    22   17   15 1    
    23   33   15 1    
    24   40   16 1    
    25   18   17 1    
    26   34   17 1    
    27   19   18 1    
    28   28   18 1    
    29   20   19 2    
    30   35   19 1    
    31   21   20 1    
    32   22   21 1    
    33   28   21 2    
    34   23   22 2    
    35   24   22 am   
    36   25   24 1    
    37   36   24 1    
    38   26   25 1    
    39   27   25 2    
    40   37   26 1    
    41   38   26 1    
    42   28   27 1    
@<TRIPOS>SUBSTRUCTURE
     1 GDP1000     1 GROUP   
@<TRIPOS>SET

