#    Name: 3gfe_P37_1_INTS_M
#    Modification time : Tue Mar 25 07:44:06 2014

@<TRIPOS>MOLECULE
3gfe_P37_1_INTS_M
   81     0     9     0     0
SMALL
NO_CHARGES


@<TRIPOS>ATOM
      1 O           7.1425   27.4975   28.9320 O.2       1 ALC1        0.0000 
      2 O           6.4920   28.1260   27.7220 O.2       7 ALL1        0.0000 
      3 O           7.7930   26.8690   30.1420 O.2       4 ALP1        0.0000 
      4 N           0.2075   37.0710   30.0945 N.am      2 SEC2        0.0000 
      5 N           0.5130   35.5450   30.4480 N.am      8 SEL2        0.0000 
      6 N          -0.0980   38.5970   29.7410 N.am      5 SEP2        0.0000 
      7 CA          7.9315   29.3870   25.8240 C.3       3 GLC5        0.0000 
      8 CA          6.9060   27.6620   25.2640 C.3       9 GLL5        0.0000 
      9 CA          8.9570   31.1120   26.3840 C.3       6 GLP5        0.0000 
     10 CA          7.3070   30.5825   27.6765 C.3       3 GLC5        0.0000 
     11 CA          5.6570   30.0530   28.9690 C.3       9 GLL5        0.0000 
     12 CA          5.5730   31.0005   26.9710 C.3       3 GLC5        0.0000 
     13 CA          5.4890   31.9480   24.9730 C.3       6 GLP5        0.0000 
     14 CA         -0.7085   37.0060   33.1000 C.3       3 GLC5        0.0000 
     15 CA         -1.8860   35.6530   32.5400 C.3       9 GLL5        0.0000 
     16 CA          0.4690   38.3590   33.6600 C.3       6 GLP5        0.0000 
     17 CA          4.8060   32.5760   27.6510 C.3       3 GLC5        0.0000 
     18 CA          4.6880   31.0440   29.1200 C.3       9 GLL5        0.0000 
     19 CA          4.9240   34.1080   26.1820 C.3       6 GLP5        0.0000 
     20 CA          2.7405   31.4855   28.3335 C.3       3 GLC5        0.0000 
     21 CA          0.7930   31.9270   27.5470 C.3       6 GLP5        0.0000 
     22 CA          8.6175   29.3915   30.9010 C.3       3 GLC5        0.0000 
     23 CA          6.7110   29.9790   29.8880 C.3       9 GLL5        0.0000 
     24 CA         10.5240   28.8040   31.9140 C.3       6 GLP5        0.0000 
     25 CA          8.7305   31.0735   31.6845 C.3       3 GLC5        0.0000 
     26 CA          6.7840   30.8860   30.9500 C.3       9 GLL5        0.0000 
     27 CA         10.6770   31.2610   32.4190 C.3       6 GLP5        0.0000 
     28 CA          4.7205   34.3700   32.6860 C.3       3 GLC5        0.0000 
     29 CA          5.8910   32.8600   32.2680 C.3       9 GLL5        0.0000 
     30 CA          3.5500   35.8800   33.1040 C.3       6 GLP5        0.0000 
     31 CA          6.4375   33.8505   34.1490 C.3       3 GLC5        0.0000 
     32 CA          6.9840   34.8410   36.0300 C.3       6 GLP5        0.0000 
     33 CA          9.5325   26.5600   24.7865 C.3       3 GLC5        0.0000 
     34 CA          7.9510   26.8820   26.0600 C.3       9 GLL5        0.0000 
     35 CA         11.1140   26.2380   23.5130 C.3       6 GLP5        0.0000 
     36 CA          8.9860   28.5055   26.4740 C.3       3 GLC5        0.0000 
     37 CA         10.0210   30.1290   26.8880 C.3       6 GLP5        0.0000 
     38 N           3.8365   28.5300   26.0080 N.am      2 SEC2        0.0000 
     39 N           4.6630   29.2070   26.9340 N.am      8 SEL2        0.0000 
     40 N           3.0100   27.8530   25.0820 N.am      5 SEP2        0.0000 
     41 O           4.6090   34.1375   30.0605 O.2       1 ALC1        0.0000 
     42 O           3.8140   32.8980   30.3040 O.2       7 ALL1        0.0000 
     43 O           5.4040   35.3770   29.8170 O.2       4 ALP1        0.0000 
     44 CA          2.5255   30.8600   33.4400 C.3       3 GLC5        0.0000 
     45 CA          2.2430   31.4920   31.4330 C.3       9 GLL5        0.0000 
     46 CA          2.8080   30.2280   35.4470 C.3       6 GLP5        0.0000 
     47 CA          0.5890   32.7570   29.4110 C.3       3 GLC5        0.0000 
     48 CA          0.3850   33.5870   31.2750 C.3       9 GLL5        0.0000 
     49 CA         -2.1445   34.2935   27.6230 C.3       3 GLC5        0.0000 
     50 CA         -2.0930   33.9660   29.3010 C.3       9 GLL5        0.0000 
     51 CA         -2.1960   34.6210   25.9450 C.3       6 GLP5        0.0000 
     52 CA         -0.6500   32.9465   28.4240 C.3       3 GLC5        0.0000 
     53 CA          4.9047   26.9002   25.6640 C.3       3 GLC5        0.0000 
     54 CA          6.5590   27.1170   26.6520 C.3       9 GLL5        0.0000 
     55 CA          3.0770   26.4110   25.3700 C.3       6 GLP5        0.0000 
     56 CA          7.6813   27.8285   23.8330 C.3       3 GLC5        0.0000 
     57 CA          7.9340   28.3850   22.0040 C.3       6 GLP5        0.0000 
     58 CA          6.0627   32.8688   29.3605 C.3       3 GLC5        0.0000 
     59 CA          4.7510   31.9510   30.1820 C.3       9 GLL5        0.0000 
     60 CA          7.4060   34.2400   29.0700 C.3       6 GLP5        0.0000 
     61 CA          8.3863   30.2488   29.4110 C.3       3 GLC5        0.0000 
     62 CA         10.0250   30.0650   28.4030 C.3       6 GLP5        0.0000 
     63 CA          7.0768   32.3362   29.7445 C.3       3 GLC5        0.0000 
     64 CA          6.0105   29.1725   31.4681 C.3       3 GLC5        0.0000 
     65 CA          5.5370   27.8940   32.7470 C.3       6 GLP5        0.0000 
     66 CA          6.3125   31.2940   33.1818 C.3       3 GLC5        0.0000 
     67 CA          5.8010   31.8700   31.1010 C.3       9 GLL5        0.0000 
     68 CA          6.7790   30.2230   34.6790 C.3       6 GLP5        0.0000 
     69 CA          6.6260   33.3025   30.3773 C.3       3 GLC5        0.0000 
     70 CA          8.5485   26.5638   27.7700 C.3       3 GLC5        0.0000 
     71 CA          9.8420   26.1280   29.1840 C.3       6 GLP5        0.0000 
     72 CA          6.8974   25.6108   26.9825 C.3       3 GLC5        0.0000 
     73 CA          6.8010   24.0270   27.8080 C.3       6 GLP5        0.0000 
     74 CA          1.4896   32.1420   29.3286 C.3       3 GLC5        0.0000 
     75 CA          2.4036   34.6423   32.0676 C.3       3 GLC5        0.0000 
     76 CA          1.6630   33.7420   30.7530 C.3       9 GLL5        0.0000 
     77 CA         -5.8368   35.9647   30.2883 C.3       3 GLC5        0.0000 
     78 CA         -3.8100   34.8050   30.6760 C.3       9 GLL5        0.0000 
     79 CA         -6.9110   36.5470   28.9200 C.3       6 GLP5        0.0000 
     80 CA         -1.6839   35.9624   28.9940 C.3       3 GLC5        0.0000 
     81 CA         -1.3320   37.5410   27.8880 C.3       6 GLP5        0.0000 
@<TRIPOS>BOND
@<TRIPOS>SUBSTRUCTURE
     1 ALC1        1 GROUP        1 X    ALC  0     ROOT ALC X 1
     2 SEC2        4 GROUP        1 X    SEC  0     **** SEC X 2
     3 GLC5        7 GROUP        1 X    GLC  0     **** GLC X 6
     4 ALP1        3 GROUP        1 Y    ALP  0     ROOT ALP Y 8
     5 SEP2        6 GROUP        1 Y    SEP  0     **** SEP Y 9
     6 GLP5        9 GROUP        1 Y    GLP  0     **** GLP Y 13
     7 ALL1        2 GROUP        1 Z    ALL  0     ROOT ALL Z 15
     8 SEL2        5 GROUP        1 Z    SEL  0     **** SEL Z 16
     9 GLL5        8 GROUP        1 Z    GLL  0     **** GLL Z 20
@<TRIPOS>SET

