#    Name: 3gfe_P37_1_ligand
#    Modification time : Tue Mar 25 07:44:06 2014

@<TRIPOS>MOLECULE
3gfe_P37_1_ligand
   54    58     1     0     0
SMALL
NO_CHARGES


@<TRIPOS>ATOM
      1 N1          6.4920   28.1260   27.7220 N.am      1 P37361      0.0000 
      2 N3          0.5130   35.5450   30.4480 N.2       1 P37361      0.0000 
      3 C4          6.9060   27.6620   25.2640 C.3       1 P37361      0.0000 
      4 C5          5.6570   30.0530   28.9690 C.ar      1 P37361      0.0000 
      5 C6         -2.4610   34.5920   30.4380 C.ar      1 P37361      0.0000 
      6 C7         -3.8100   34.8050   30.6760 C.ar      1 P37361      0.0000 
      7 C8         -4.2020   35.4450   31.8440 C.ar      1 P37361      0.0000 
      8 C10        -1.8860   35.6530   32.5400 C.ar      1 P37361      0.0000 
      9 C13         1.6630   33.7420   30.7530 C.2       1 P37361      0.0000 
     10 C15         0.9630   31.3180   31.9650 C.2       1 P37361      0.0000 
     11 C17         2.5960   32.7020   30.8220 C.2       1 P37361      0.0000 
     12 C20         4.6880   31.0440   29.1200 C.ar      1 P37361      0.0000 
     13 C21         6.7110   29.9790   29.8880 C.ar      1 P37361      0.0000 
     14 C22         6.7840   30.8860   30.9500 C.ar      1 P37361      0.0000 
     15 C24         5.8910   32.8600   32.2680 C.3       1 P37361      0.0000 
     16 C3          7.9510   26.8820   26.0600 C.3       1 P37361      0.0000 
     17 C2          6.5590   27.1170   26.6520 C.3       1 P37361      0.0000 
     18 C1          5.5550   29.0750   27.7750 C.2       1 P37361      0.0000 
     19 O1          4.6630   29.2070   26.9340 O.2       1 P37361      0.0000 
     20 C23         5.8010   31.8700   31.1010 C.ar      1 P37361      0.0000 
     21 C19         4.7510   31.9510   30.1820 C.ar      1 P37361      0.0000 
     22 N5          3.8140   32.8980   30.3040 N.pl3     1 P37361      0.0000 
     23 C16         2.2430   31.4920   31.4330 C.2       1 P37361      0.0000 
     24 O2          0.6590   30.2500   32.4970 O.2       1 P37361      0.0000 
     25 N4          0.0180   32.3640   31.8920 N.am      1 P37361      0.0000 
     26 C18        -1.3370   32.1420   32.4700 C.3       1 P37361      0.0000 
     27 C12         0.3850   33.5870   31.2750 C.2       1 P37361      0.0000 
     28 C14         1.7030   34.9740   30.2450 C.2       1 P37361      0.0000 
     29 N2         -0.2240   34.7550   31.0490 N.pl3     1 P37361      0.0000 
     30 C11        -1.4960   35.0110   31.3600 C.ar      1 P37361      0.0000 
     31 C9         -3.2470   35.8670   32.7750 C.ar      1 P37361      0.0000 
     32 F2         -5.5190   35.6400   32.0530 F         1 P37361      0.0000 
     33 F1         -2.0930   33.9660   29.3010 F         1 P37361      0.0000 
     34 H           7.2419   28.0475   28.4510 H         1 P37361      0.0000 
     35 H           6.5339   27.0718   24.6269 H         1 P37361      0.0000 
     36 H           7.1011   28.5813   25.3614 H         1 P37361      0.0000 
     37 H          -4.5116   34.4935   29.9971 H         1 P37361      0.0000 
     38 H          -1.1893   35.9592   33.2164 H         1 P37361      0.0000 
     39 H           3.9141   31.1102   28.4404 H         1 P37361      0.0000 
     40 H           7.4324   29.2560   29.7811 H         1 P37361      0.0000 
     41 H           7.5596   30.8299   31.6196 H         1 P37361      0.0000 
     42 H           8.5363   27.5102   26.4544 H         1 P37361      0.0000 
     43 H           7.9691   26.0007   25.7199 H         1 P37361      0.0000 
     44 H           6.0662   26.3275   26.5242 H         1 P37361      0.0000 
     45 H           4.0577   33.8901   29.9603 H         1 P37361      0.0000 
     46 H           2.9299   30.7298   31.4894 H         1 P37361      0.0000 
     47 H           2.4628   35.3848   29.8048 H         1 P37361      0.0000 
     48 H          -3.5491   36.3380   33.6384 H         1 P37361      0.0000 
     49 H           6.7353   33.3950   32.2369 H         1 P37361      0.0000 
     50 H           5.1315   33.5104   32.2627 H         1 P37361      0.0000 
     51 H           5.8717   32.3941   33.1526 H         1 P37361      0.0000 
     52 H          -1.2944   31.9342   33.4472 H         1 P37361      0.0000 
     53 H          -1.9213   32.9470   32.3667 H         1 P37361      0.0000 
     54 H          -1.8087   31.3788   32.0283 H         1 P37361      0.0000 
@<TRIPOS>BOND
     1   17    1 1    
     2   18    1 am   
     3   34    1 1    
     4   28    2 2    
     5   29    2 1    
     6   16    3 1    
     7   17    3 1    
     8   35    3 1    
     9   36    3 1    
    10   12    4 ar   
    11   13    4 ar   
    12   18    4 1    
    13    6    5 ar   
    14   30    5 ar   
    15   33    5 1    
    16    7    6 ar   
    17   37    6 1    
    18   31    7 ar   
    19   32    7 1    
    20   30    8 ar   
    21   31    8 ar   
    22   38    8 1    
    23   11    9 1    
    24   27    9 2    
    25   28    9 1    
    26   23   10 1    
    27   24   10 2    
    28   25   10 am   
    29   22   11 1    
    30   23   11 2    
    31   21   12 ar   
    32   39   12 1    
    33   14   13 ar   
    34   40   13 1    
    35   20   14 ar   
    36   41   14 1    
    37   20   15 1    
    38   49   15 1    
    39   50   15 1    
    40   51   15 1    
    41   17   16 1    
    42   42   16 1    
    43   43   16 1    
    44   44   17 1    
    45   19   18 2    
    46   21   20 ar   
    47   22   21 1    
    48   45   22 1    
    49   46   23 1    
    50   26   25 1    
    51   27   25 1    
    52   52   26 1    
    53   53   26 1    
    54   54   26 1    
    55   29   27 1    
    56   47   28 1    
    57   30   29 1    
    58   48   31 1    
@<TRIPOS>SUBSTRUCTURE
     1 P37361      1 GROUP   
@<TRIPOS>SET

