#    Name: 2gqx_5CL_1_INTS_M
#    Modification time : Tue Mar 25 14:59:43 2014

@<TRIPOS>MOLECULE
2gqx_5CL_1_INTS_M
   39     0     3     0     0
SMALL
NO_CHARGES


@<TRIPOS>ATOM
      1 CA        -23.9585   16.1825    4.6715 C.3       1 GLC5        0.0000 
      2 CA        -25.0490   14.8430    4.0380 C.3       3 GLL5        0.0000 
      3 CA        -22.8680   17.5220    5.3050 C.3       2 GLP5        0.0000 
      4 CA        -26.0535   15.8615    5.2515 C.3       1 GLC5        0.0000 
      5 CA        -27.0580   16.8800    6.4650 C.3       2 GLP5        0.0000 
      6 CA        -25.0520   16.8245    3.0780 C.3       1 GLC5        0.0000 
      7 CA        -25.0550   18.8060    2.1180 C.3       2 GLP5        0.0000 
      8 CA        -22.4190   15.9985    4.5785 C.3       1 GLC5        0.0000 
      9 CA        -21.9700   14.4750    3.8520 C.3       3 GLL5        0.0000 
     10 CA        -20.1795   13.6930    3.5435 C.3       1 GLC5        0.0000 
     11 CA        -18.3890   12.9110    3.2350 C.3       2 GLP5        0.0000 
     12 CA        -21.1990   14.4230    5.8265 C.3       1 GLC5        0.0000 
     13 CA        -20.4280   14.3710    7.8010 C.3       2 GLP5        0.0000 
     14 CA        -20.6720   15.9655    4.5110 C.3       1 GLC5        0.0000 
     15 CA        -19.3740   17.4560    5.1700 C.3       2 GLP5        0.0000 
     16 CA        -20.2200   14.5895   -0.4760 C.3       1 GLC5        0.0000 
     17 CA        -20.6710   14.0660    1.1030 C.3       3 GLL5        0.0000 
     18 CA        -19.7690   15.1130   -2.0550 C.3       2 GLP5        0.0000 
     19 CA        -19.5300   13.4885    2.1690 C.3       1 GLC5        0.0000 
     20 CA        -19.5735   15.5570    1.1075 C.3       1 GLC5        0.0000 
     21 CA        -18.4760   17.0480    1.1120 C.3       2 GLP5        0.0000 
     22 CA        -27.6185   14.1120    3.4195 C.3       1 GLC5        0.0000 
     23 CA        -26.7860   14.7790    1.4400 C.3       3 GLL5        0.0000 
     24 CA        -28.4510   13.4450    5.3990 C.3       2 GLP5        0.0000 
     25 CA        -28.4115   15.6615    0.9390 C.3       1 GLC5        0.0000 
     26 CA        -30.0370   16.5440    0.4380 C.3       2 GLP5        0.0000 
     27 CA        -25.9205   16.7925    1.7790 C.3       1 GLC5        0.0000 
     28 CA        -23.7005   14.8445   -2.2490 C.3       1 GLC5        0.0000 
     29 CA        -22.4750   14.0150   -1.4820 C.3       3 GLL5        0.0000 
     30 CA        -24.9260   15.6740   -3.0160 C.3       2 GLP5        0.0000 
     31 CA        -21.1220   14.5640   -1.7685 C.3       1 GLC5        0.0000 
     32 CA        -24.3975   14.9913   -1.5285 C.3       1 GLC5        0.0000 
     33 CA        -23.1070   14.2180   -0.1010 C.3       3 GLL5        0.0000 
     34 CA        -21.2152   14.6715   -0.7620 C.3       1 GLC5        0.0000 
     35 CA        -24.9498   16.7132    2.0755 C.3       1 GLC5        0.0000 
     36 CA        -25.2860   14.6070    1.3940 C.3       3 GLL5        0.0000 
     37 CA        -25.8780   13.9162    4.5575 C.3       1 GLC5        0.0000 
     38 CA        -24.4030   14.6340    2.6720 C.3       3 GLL5        0.0000 
     39 CA        -27.0300   13.0940    5.7600 C.3       2 GLP5        0.0000 
@<TRIPOS>BOND
@<TRIPOS>SUBSTRUCTURE
     1 GLC5        1 GROUP        1 X    GLC  0     ROOT GLC X 6
     2 GLP5        3 GROUP        1 Y    GLP  0     ROOT GLP Y 13
     3 GLL5        2 GROUP        1 Z    GLL  0     ROOT GLL Z 20
@<TRIPOS>SET

