#    Name: 2gqx_5CL_1_ligand
#    Modification time : Tue Mar 25 14:59:43 2014

@<TRIPOS>MOLECULE
2gqx_5CL_1_ligand
   12    12     1     0     0
SMALL
NO_CHARGES


@<TRIPOS>ATOM
      1 C1        -23.1070   14.2180   -0.1010 C.ar      1 5CL1450     0.0000 
      2 C2        -24.6310   14.3990    0.0190 C.ar      1 5CL1450     0.0000 
      3 C3        -25.2860   14.6070    1.3940 C.ar      1 5CL1450     0.0000 
      4 C4        -24.4030   14.6340    2.6720 C.ar      1 5CL1450     0.0000 
      5 C5        -22.8620   14.4500    2.5610 C.ar      1 5CL1450     0.0000 
      6 C6        -22.2160   14.2420    1.1630 C.ar      1 5CL1450     0.0000 
      7 CL1       -25.0490   14.8430    4.0380 Cl        1 5CL1450     0.0000 
      8 CL2       -21.9700   14.4750    3.8520 Cl        1 5CL1450     0.0000 
      9 CL3       -20.6710   14.0660    1.1030 Cl        1 5CL1450     0.0000 
     10 CL4       -26.7860   14.7790    1.4400 Cl        1 5CL1450     0.0000 
     11 CL5       -22.4750   14.0150   -1.4820 Cl        1 5CL1450     0.0000 
     12 H         -25.1886   14.3813   -0.7902 H         1 5CL1450     0.0000 
@<TRIPOS>BOND
     1    2    1 ar   
     2    6    1 ar   
     3   11    1 1    
     4    3    2 ar   
     5   12    2 1    
     6    4    3 ar   
     7   10    3 1    
     8    5    4 ar   
     9    7    4 1    
    10    6    5 ar   
    11    8    5 1    
    12    9    6 1    
@<TRIPOS>SUBSTRUCTURE
     1 5CL1450     1 GROUP   
@<TRIPOS>SET

