#    Name: 1geu_FAD_3_INTS_M
#    Modification time : Tue Mar 25 03:11:35 2014

@<TRIPOS>MOLECULE
1geu_FAD_3_INTS_M
  122     0     9     0     0
SMALL
NO_CHARGES


@<TRIPOS>ATOM
      1 N          51.0555  -16.4690    0.7570 N.am      2 SEC2        0.0000 
      2 N          51.5100  -16.3940    2.0610 N.am      8 SEL2        0.0000 
      3 N          50.6010  -16.5440   -0.5470 N.am      5 SEP2        0.0000 
      4 N          51.4545  -13.8585    0.9095 N.am      2 SEC2        0.0000 
      5 N          51.3500  -13.8590    2.3680 N.am      8 SEL2        0.0000 
      6 N          51.5590  -13.8580   -0.5490 N.am      5 SEP2        0.0000 
      7 CA         53.2560  -17.3910    4.1155 C.3       3 GLC5        0.0000 
      8 CA         54.3860  -15.9420    3.3410 C.3       9 GLL5        0.0000 
      9 CA         52.1260  -18.8400    4.8900 C.3       6 GLP5        0.0000 
     10 CA         57.0980  -15.2125    3.8750 C.3       3 GLC5        0.0000 
     11 CA         55.7210  -15.7260    2.6800 C.3       9 GLL5        0.0000 
     12 CA         58.4750  -14.6990    5.0700 C.3       6 GLP5        0.0000 
     13 CA         54.6450  -14.4220    0.5065 C.3       3 GLC5        0.0000 
     14 CA         55.6020  -16.0780    1.2130 C.3       9 GLL5        0.0000 
     15 CA         53.6880  -12.7660   -0.2000 C.3       6 GLP5        0.0000 
     16 O          56.9760  -14.1640    0.7110 O.2       1 ALC1        0.0000 
     17 O          55.7990  -14.8940    0.4560 O.2       7 ALL1        0.0000 
     18 O          58.1530  -13.4340    0.9660 O.2       4 ALP1        0.0000 
     19 O          57.3750  -14.7925   -0.0580 O.2       1 ALC1        0.0000 
     20 O          58.9510  -14.6910   -0.5720 O.2       4 ALP1        0.0000 
     21 O          58.1575  -15.7925   -0.4010 O.2       1 ALC1        0.0000 
     22 O          57.3640  -16.8940   -0.2300 O.2       7 ALL1        0.0000 
     23 CA         58.0280  -15.7685    3.6265 C.3       3 GLC5        0.0000 
     24 CA         57.5810  -16.8380    2.1830 C.3       9 GLL5        0.0000 
     25 CA         59.0140  -19.5665    4.9040 C.3       3 GLC5        0.0000 
     26 CA         60.0940  -19.2180    3.1520 C.3       9 GLL5        0.0000 
     27 CA         57.9340  -19.9150    6.6560 C.3       6 GLP5        0.0000 
     28 CA         63.1845  -19.4840    2.5175 C.3       3 GLC5        0.0000 
     29 CA         61.3820  -19.4500    3.5720 C.3       9 GLL5        0.0000 
     30 CA         64.9870  -19.5180    1.4630 C.3       6 GLP5        0.0000 
     31 O          62.9695  -21.0890    4.8125 O.2       1 ALC1        0.0000 
     32 O          61.6550  -20.6280    4.1350 O.2       7 ALL1        0.0000 
     33 O          64.2840  -21.5500    5.4900 O.2       4 ALP1        0.0000 
     34 N          63.7055  -18.9400    3.6435 N.am      2 SEC2        0.0000 
     35 N          62.2810  -18.4810    3.4110 N.am      8 SEL2        0.0000 
     36 N          65.1300  -19.3990    3.8760 N.am      5 SEP2        0.0000 
     37 CA         61.5380  -17.7560    4.8245 C.3       3 GLC5        0.0000 
     38 CA         61.8970  -17.3270    2.8680 C.3       9 GLL5        0.0000 
     39 CA         61.1790  -18.1850    6.7810 C.3       6 GLP5        0.0000 
     40 CA         63.6150  -16.1765    3.4970 C.3       3 GLC5        0.0000 
     41 CA         65.3330  -15.0260    4.1260 C.3       6 GLP5        0.0000 
     42 CA         61.8290  -15.4660    2.1530 C.3       3 GLC5        0.0000 
     43 CA         61.7610  -13.6050    1.4380 C.3       6 GLP5        0.0000 
     44 CA         61.9035  -17.6010    1.0415 C.3       3 GLC5        0.0000 
     45 CA         61.9100  -17.8750   -0.7850 C.3       6 GLP5        0.0000 
     46 CA         63.4420  -18.4225    2.1655 C.3       3 GLC5        0.0000 
     47 N          61.2595  -16.2645    1.2990 N.am      2 SEC2        0.0000 
     48 N          60.6730  -16.9370    2.5460 N.am      8 SEL2        0.0000 
     49 N          61.8460  -15.5920    0.0520 N.am      5 SEP2        0.0000 
     50 CA         59.1240  -16.3260    3.8895 C.3       3 GLC5        0.0000 
     51 CA         59.7730  -17.9530    2.7090 C.3       9 GLL5        0.0000 
     52 CA         60.8415  -17.9140    0.9620 C.3       3 GLC5        0.0000 
     53 N          43.1715  -11.3965    4.3325 N.am      2 SEC2        0.0000 
     54 N          41.9070  -10.9540    3.5220 N.am      8 SEL2        0.0000 
     55 N          44.4360  -11.8390    5.1430 N.am      5 SEP2        0.0000 
     56 O          40.7785   -9.7150    1.4045 O.2       1 ALC1        0.0000 
     57 O          41.0630  -10.9930    1.4500 O.2       7 ALL1        0.0000 
     58 O          40.4940   -8.4370    1.3590 O.2       4 ALP1        0.0000 
     59 N          40.1655  -11.3595   -2.0090 N.am      2 SEC2        0.0000 
     60 N          40.4740  -10.8480   -0.7650 N.am      8 SEL2        0.0000 
     61 N          39.8570  -11.8710   -3.2530 N.am      5 SEP2        0.0000 
     62 CA         43.3575  -12.3265   -2.1520 C.3       3 GLC5        0.0000 
     63 CA         42.6740  -14.3230   -1.6100 C.3       9 GLL5        0.0000 
     64 CA         44.0410  -10.3300   -2.6940 C.3       6 GLP5        0.0000 
     65 CA         43.9310  -18.2550   -5.7255 C.3       3 GLC5        0.0000 
     66 CA         43.4190  -16.6250   -4.5470 C.3       9 GLL5        0.0000 
     67 CA         44.4430  -19.8850   -6.9040 C.3       6 GLP5        0.0000 
     68 CA         44.3140  -15.9270   -6.4365 C.3       3 GLC5        0.0000 
     69 CA         45.2090  -15.2290   -8.3260 C.3       6 GLP5        0.0000 
     70 CA         45.3775  -19.2710   -1.1920 C.3       3 GLC5        0.0000 
     71 CA         45.3660  -17.6060   -2.4510 C.3       9 GLL5        0.0000 
     72 CA         45.3890  -20.9360    0.0670 C.3       6 GLP5        0.0000 
     73 CA         44.1370  -12.7065   -0.2635 C.3       3 GLC5        0.0000 
     74 CA         43.5300  -14.8200   -0.6200 C.3       9 GLL5        0.0000 
     75 CA         44.7440  -10.5930    0.0930 C.3       6 GLP5        0.0000 
     76 CA         42.4630  -16.1965    0.7235 C.3       3 GLC5        0.0000 
     77 CA         41.3960  -17.5730    2.0670 C.3       6 GLP5        0.0000 
     78 CA         42.8160  -16.2485    1.8995 C.3       3 GLC5        0.0000 
     79 CA         44.2360  -14.9240    1.7320 C.3       9 GLL5        0.0000 
     80 CA         45.1350  -12.3725    1.0465 C.3       3 GLC5        0.0000 
     81 CA         45.5260  -14.1520    2.0000 C.3       9 GLL5        0.0000 
     82 O          46.2225  -16.2235    5.0605 O.2       1 ALC1        0.0000 
     83 O          45.7550  -15.2780    4.1430 O.2       7 ALL1        0.0000 
     84 O          46.6900  -17.1690    5.9780 O.2       4 ALP1        0.0000 
     85 O          46.5455  -16.5840    4.1010 O.2       1 ALC1        0.0000 
     86 O          47.3360  -17.8900    4.0590 O.2       4 ALP1        0.0000 
     87 CA         48.7730  -12.1890    4.2825 C.3       3 GLC5        0.0000 
     88 CA         47.6390  -13.9430    3.4870 C.3       9 GLL5        0.0000 
     89 CA         49.9070  -10.4350    5.0780 C.3       6 GLP5        0.0000 
     90 CA         46.5680  -12.4105    4.3510 C.3       3 GLC5        0.0000 
     91 CA         45.4970  -10.8780    5.2150 C.3       6 GLP5        0.0000 
     92 N          48.8075  -12.9820    0.9020 N.am      2 SEC2        0.0000 
     93 N          48.5130  -13.6170    2.3940 N.am      8 SEL2        0.0000 
     94 N          49.1020  -12.3470   -0.5900 N.am      5 SEP2        0.0000 
     95 CA         48.3535  -16.8410    5.2185 C.3       3 GLC5        0.0000 
     96 CA         48.4330  -14.7200    4.5230 C.3       9 GLL5        0.0000 
     97 CA         48.2740  -18.9620    5.9140 C.3       6 GLP5        0.0000 
     98 N          51.9135  -12.4160    6.7415 N.am      2 SEC2        0.0000 
     99 N          51.7030  -13.6830    6.2090 N.am      8 SEL2        0.0000 
    100 N          52.1240  -11.1490    7.2740 N.am      5 SEP2        0.0000 
    101 N          49.6665  -16.7785    7.1980 N.am      2 SEC2        0.0000 
    102 N          50.4930  -15.8560    6.4620 N.am      8 SEL2        0.0000 
    103 N          48.8400  -17.7010    7.9340 N.am      5 SEP2        0.0000 
    104 CA         54.5802  -13.7775    3.0922 C.3       3 GLC5        0.0000 
    105 CA         54.1070  -11.7210    3.1740 C.3       6 GLP5        0.0000 
    106 CA         55.4338  -17.2825    4.4588 C.3       3 GLC5        0.0000 
    107 CA         55.8140  -18.7310    5.9070 C.3       6 GLP5        0.0000 
    108 CA         60.7172  -18.4142    4.9083 C.3       3 GLC5        0.0000 
    109 CA         44.2645  -14.0525   -3.1242 C.3       3 GLC5        0.0000 
    110 CA         45.8790  -13.4860   -3.9990 C.3       6 GLP5        0.0000 
    111 CA         44.6600  -14.9020   -3.9315 C.3       3 GLC5        0.0000 
    112 CA         43.4630  -16.0110   -3.1810 C.3       9 GLL5        0.0000 
    113 CA         42.1930  -17.7460   -3.4585 C.3       3 GLC5        0.0000 
    114 CA         40.9450  -19.1740   -3.0530 C.3       6 GLP5        0.0000 
    115 CA         45.3785  -15.2698   -3.1590 C.3       3 GLC5        0.0000 
    116 CA         43.5245  -18.4958   -2.4225 C.3       3 GLC5        0.0000 
    117 CA         44.3900  -16.5010   -2.1870 C.3       9 GLL5        0.0000 
    118 CA         42.1710  -19.9380   -2.5260 C.3       6 GLP5        0.0000 
    119 CA         46.4850  -16.1536   -1.3578 C.3       3 GLC5        0.0000 
    120 CA         48.3310  -15.8280   -1.0970 C.3       6 GLP5        0.0000 
    121 CA         44.9220  -14.4243   -2.3840 C.3       3 GLC5        0.0000 
    122 CA         44.4000  -15.9050   -0.9180 C.3       9 GLL5        0.0000 
@<TRIPOS>BOND
@<TRIPOS>SUBSTRUCTURE
     1 ALC1       16 GROUP        1 X    ALC  0     ROOT ALC X 1
     2 SEC2        1 GROUP        1 X    SEC  0     **** SEC X 2
     3 GLC5        7 GROUP        1 X    GLC  0     **** GLC X 6
     4 ALP1       18 GROUP        1 Y    ALP  0     ROOT ALP Y 8
     5 SEP2        3 GROUP        1 Y    SEP  0     **** SEP Y 9
     6 GLP5        9 GROUP        1 Y    GLP  0     **** GLP Y 13
     7 ALL1       17 GROUP        1 Z    ALL  0     ROOT ALL Z 15
     8 SEL2        2 GROUP        1 Z    SEL  0     **** SEL Z 16
     9 GLL5        8 GROUP        1 Z    GLL  0     **** GLL Z 20
@<TRIPOS>SET

