#    Name: 1geu_FAD_3_ligand
#    Modification time : Tue Mar 25 03:11:36 2014

@<TRIPOS>MOLECULE
1geu_FAD_3_ligand
   84    89     1     0     0
SMALL
NO_CHARGES


@<TRIPOS>ATOM
      1 PA         51.8830  -15.1550    2.7870 P.3       1 FAD451      0.0000 
      2 O1A        51.5100  -16.3940    2.0610 O.co2     1 FAD451      0.0000 
      3 O2A        51.3500  -13.8590    2.3680 O.co2     1 FAD451      0.0000 
      4 O5B        53.4410  -15.0380    2.6060 O.3       1 FAD451      0.0000 
      5 C5B        54.3860  -15.9420    3.3410 C.3       1 FAD451      0.0000 
      6 C4B        55.7210  -15.7260    2.6800 C.3       1 FAD451      0.0000 
      7 O4B        56.6640  -16.6450    3.2110 O.3       1 FAD451      0.0000 
      8 C3B        55.6020  -16.0780    1.2130 C.3       1 FAD451      0.0000 
      9 O3B        55.7990  -14.8940    0.4560 O.3       1 FAD451      0.0000 
     10 C2B        56.6860  -17.1050    1.0130 C.3       1 FAD451      0.0000 
     11 O2B        57.3640  -16.8940   -0.2300 O.3       1 FAD451      0.0000 
     12 C1B        57.5810  -16.8380    2.1830 C.3       1 FAD451      0.0000 
     13 N9A        58.4040  -17.9770    2.5140 N.pl3     1 FAD451      0.0000 
     14 C8A        58.0130  -19.2600    2.7000 C.2       1 FAD451      0.0000 
     15 N7A        58.9920  -20.0200    3.0880 N.2       1 FAD451      0.0000 
     16 C5A        60.0940  -19.2180    3.1520 C.ar      1 FAD451      0.0000 
     17 C6A        61.3820  -19.4500    3.5720 C.ar      1 FAD451      0.0000 
     18 N6A        61.6550  -20.6280    4.1350 N.pl3     1 FAD451      0.0000 
     19 N1A        62.2810  -18.4810    3.4110 N.ar      1 FAD451      0.0000 
     20 C2A        61.8970  -17.3270    2.8680 C.ar      1 FAD451      0.0000 
     21 N3A        60.6730  -16.9370    2.5460 N.ar      1 FAD451      0.0000 
     22 C4A        59.7730  -17.9530    2.7090 C.ar      1 FAD451      0.0000 
     23 N1         42.6480  -12.6020    2.1710 N.2       1 FAD451      0.0000 
     24 C2         41.8750  -11.5320    2.4320 C.2       1 FAD451      0.0000 
     25 O2         41.9070  -10.9540    3.5220 O.2       1 FAD451      0.0000 
     26 N3         41.0630  -10.9930    1.4500 N.am      1 FAD451      0.0000 
     27 C4         41.0930  -11.4640    0.1210 C.2       1 FAD451      0.0000 
     28 O4         40.4740  -10.8480   -0.7650 O.2       1 FAD451      0.0000 
     29 C4X        41.9190  -12.6430   -0.1390 C.2       1 FAD451      0.0000 
     30 N5         41.8730  -13.2500   -1.3760 N.2       1 FAD451      0.0000 
     31 C5X        42.6740  -14.3230   -1.6100 C.ar      1 FAD451      0.0000 
     32 C6         42.6260  -14.9150   -2.8890 C.ar      1 FAD451      0.0000 
     33 C7         43.4630  -16.0110   -3.1810 C.ar      1 FAD451      0.0000 
     34 C7M        43.4190  -16.6250   -4.5470 C.3       1 FAD451      0.0000 
     35 C8         44.3900  -16.5010   -2.1870 C.ar      1 FAD451      0.0000 
     36 C8M        45.3660  -17.6060   -2.4510 C.3       1 FAD451      0.0000 
     37 C9         44.4000  -15.9050   -0.9180 C.ar      1 FAD451      0.0000 
     38 C9A        43.5300  -14.8200   -0.6200 C.ar      1 FAD451      0.0000 
     39 N10        43.4690  -14.2640    0.6520 N.pl3     1 FAD451      0.0000 
     40 C10        42.6790  -13.1610    0.9200 C.2       1 FAD451      0.0000 
     41 C1'        44.2360  -14.9240    1.7320 C.3       1 FAD451      0.0000 
     42 C2'        45.5260  -14.1520    2.0000 C.3       1 FAD451      0.0000 
     43 O2'        46.1530  -13.8740    0.7460 O.3       1 FAD451      0.0000 
     44 C3'        46.4890  -14.8370    3.0040 C.3       1 FAD451      0.0000 
     45 O3'        45.7550  -15.2780    4.1430 O.3       1 FAD451      0.0000 
     46 C4'        47.6390  -13.9430    3.4870 C.3       1 FAD451      0.0000 
     47 O4'        48.5130  -13.6170    2.3940 O.3       1 FAD451      0.0000 
     48 C5'        48.4330  -14.7200    4.5230 C.3       1 FAD451      0.0000 
     49 O5'        49.6700  -13.9830    4.9180 O.3       1 FAD451      0.0000 
     50 P          50.9040  -14.7430    5.5820 P.3       1 FAD451      0.0000 
     51 O1P        51.7030  -13.6830    6.2090 O.co2     1 FAD451      0.0000 
     52 O2P        50.4930  -15.8560    6.4620 O.co2     1 FAD451      0.0000 
     53 O3P        51.6820  -15.4380    4.3540 O.3       1 FAD451      0.0000 
     54 H          54.0835  -16.9621    3.2258 H         1 FAD451      0.0000 
     55 H          54.4398  -15.6581    4.3715 H         1 FAD451      0.0000 
     56 H          56.0274  -14.7279    2.7758 H         1 FAD451      0.0000 
     57 H          54.6563  -16.5310    1.0638 H         1 FAD451      0.0000 
     58 H          56.2619  -18.0662    1.1145 H         1 FAD451      0.0000 
     59 H          58.1454  -15.9673    1.9955 H         1 FAD451      0.0000 
     60 H          57.0717  -19.5580    2.5480 H         1 FAD451      0.0000 
     61 H          62.6100  -20.7844    4.3872 H         1 FAD451      0.0000 
     62 H          60.8802  -21.2488    4.2543 H         1 FAD451      0.0000 
     63 H          62.7069  -16.6028    2.6602 H         1 FAD451      0.0000 
     64 H          40.4101  -10.2206    1.6863 H         1 FAD451      0.0000 
     65 H          41.9899  -14.5525   -3.5978 H         1 FAD451      0.0000 
     66 H          45.0375  -16.2482   -0.1916 H         1 FAD451      0.0000 
     67 H          44.4941  -15.9447    1.4482 H         1 FAD451      0.0000 
     68 H          43.6513  -14.9544    2.6519 H         1 FAD451      0.0000 
     69 H          45.2190  -13.1843    2.4641 H         1 FAD451      0.0000 
     70 H          46.9321  -15.6999    2.4957 H         1 FAD451      0.0000 
     71 H          47.2297  -13.0764    3.9478 H         1 FAD451      0.0000 
     72 H          48.6981  -15.6973    4.1064 H         1 FAD451      0.0000 
     73 H          47.8013  -14.8865    5.4018 H         1 FAD451      0.0000 
     74 H          43.6556  -15.9640   -5.2591 H         1 FAD451      0.0000 
     75 H          44.0589  -17.3887   -4.6317 H         1 FAD451      0.0000 
     76 H          42.5097  -16.9788   -4.7660 H         1 FAD451      0.0000 
     77 H          45.9940  -17.3770   -3.1948 H         1 FAD451      0.0000 
     78 H          45.9252  -17.8076   -1.6469 H         1 FAD451      0.0000 
     79 H          44.9049  -18.4554   -2.7077 H         1 FAD451      0.0000 
     80 H          56.6874  -14.5428    0.7515 H         1 FAD451      0.0000 
     81 H          57.8944  -16.0568   -0.0965 H         1 FAD451      0.0000 
     82 H          47.1219  -13.7538    0.9623 H         1 FAD451      0.0000 
     83 H          46.3596  -15.9268    4.6051 H         1 FAD451      0.0000 
     84 H          49.4307  -13.8441    2.7200 H         1 FAD451      0.0000 
@<TRIPOS>BOND
     1    2    1 ar   
     2    3    1 ar   
     3    4    1 1    
     4   53    1 1    
     5    5    4 1    
     6    6    5 1    
     7   54    5 1    
     8   55    5 1    
     9    7    6 1    
    10    8    6 1    
    11   56    6 1    
    12   12    7 1    
    13    9    8 1    
    14   10    8 1    
    15   57    8 1    
    16   80    9 1    
    17   11   10 1    
    18   12   10 1    
    19   58   10 1    
    20   81   11 1    
    21   13   12 1    
    22   59   12 1    
    23   14   13 1    
    24   22   13 1    
    25   15   14 2    
    26   60   14 1    
    27   16   15 1    
    28   17   16 ar   
    29   22   16 ar   
    30   18   17 1    
    31   19   17 ar   
    32   61   18 1    
    33   62   18 1    
    34   20   19 ar   
    35   21   20 ar   
    36   63   20 1    
    37   22   21 ar   
    38   24   23 1    
    39   40   23 2    
    40   25   24 2    
    41   26   24 am   
    42   27   26 am   
    43   64   26 1    
    44   28   27 2    
    45   29   27 1    
    46   30   29 2    
    47   40   29 1    
    48   31   30 1    
    49   32   31 ar   
    50   38   31 ar   
    51   33   32 ar   
    52   65   32 1    
    53   34   33 1    
    54   35   33 ar   
    55   74   34 1    
    56   75   34 1    
    57   76   34 1    
    58   36   35 1    
    59   37   35 ar   
    60   77   36 1    
    61   78   36 1    
    62   79   36 1    
    63   38   37 ar   
    64   66   37 1    
    65   39   38 1    
    66   40   39 1    
    67   41   39 1    
    68   42   41 1    
    69   67   41 1    
    70   68   41 1    
    71   43   42 1    
    72   44   42 1    
    73   69   42 1    
    74   82   43 1    
    75   45   44 1    
    76   46   44 1    
    77   70   44 1    
    78   83   45 1    
    79   47   46 1    
    80   48   46 1    
    81   71   46 1    
    82   84   47 1    
    83   49   48 1    
    84   72   48 1    
    85   73   48 1    
    86   50   49 1    
    87   51   50 ar   
    88   52   50 ar   
    89   53   50 1    
@<TRIPOS>SUBSTRUCTURE
     1 FAD451      1 GROUP   
@<TRIPOS>SET

