#    Name: 1e8h_ADP_1_INTS_M
#    Modification time : Mon Mar 24 23:14:23 2014

@<TRIPOS>MOLECULE
1e8h_ADP_1_INTS_M
   52     0     9     0     0
SMALL
NO_CHARGES


@<TRIPOS>ATOM
      1 N         100.0855   43.4205   76.1810 N.am      2 SEC2        0.0000 
      2 N          99.8000   44.9120   75.7680 N.am      8 SEL2        0.0000 
      3 N         100.3710   41.9290   76.5940 N.am      5 SEP2        0.0000 
      4 N          99.4305   47.1525   78.0745 N.am      2 SEC2        0.0000 
      5 N         100.7580   46.7110   77.0490 N.am      8 SEL2        0.0000 
      6 N          98.1030   47.5940   79.1000 N.am      5 SEP2        0.0000 
      7 N         100.7285   47.4500   78.3415 N.am      2 SEC2        0.0000 
      8 N         100.6990   48.1890   79.6340 N.am      5 SEP2        0.0000 
      9 N         101.6850   48.0280   77.4910 N.am      2 SEC2        0.0000 
     10 N         102.6120   49.3450   77.9330 N.am      5 SEP2        0.0000 
     11 N          97.8610   47.8860   77.8765 N.am      2 SEC2        0.0000 
     12 N          97.6190   48.1780   76.6530 N.am      8 SEL2        0.0000 
     13 N          95.5260   46.2725   76.0035 N.am      2 SEC2        0.0000 
     14 N          97.0330   46.3760   75.2110 N.am      8 SEL2        0.0000 
     15 N          94.0190   46.1690   76.7960 N.am      5 SEP2        0.0000 
     16 N          96.6520   45.8595   76.8285 N.am      2 SEC2        0.0000 
     17 N          96.2710   45.3430   78.4460 N.am      5 SEP2        0.0000 
     18 CA         94.7835   51.1785   69.9945 C.3       3 GLC5        0.0000 
     19 CA         94.3880   50.0420   71.8550 C.3       9 GLL5        0.0000 
     20 CA         95.1790   52.3150   68.1340 C.3       6 GLP5        0.0000 
     21 N          95.6330   51.5425   69.8175 N.am      2 SEC2        0.0000 
     22 N          94.7890   50.8880   70.7590 N.am      8 SEL2        0.0000 
     23 N          96.4770   52.1970   68.8760 N.am      5 SEP2        0.0000 
     24 CA         96.6095   48.3190   70.4550 C.3       3 GLC5        0.0000 
     25 CA         94.6550   48.5950   71.4010 C.3       9 GLL5        0.0000 
     26 CA         98.5640   48.0430   69.5090 C.3       6 GLP5        0.0000 
     27 N          93.8635   44.9250   74.0680 N.am      2 SEC2        0.0000 
     28 N          93.4040   45.7210   73.2000 N.am      8 SEL2        0.0000 
     29 N          94.3230   44.1290   74.9360 N.am      5 SEP2        0.0000 
     30 CA         90.7605   44.0180   71.0060 C.3       3 GLC5        0.0000 
     31 CA         91.2770   45.2420   72.1750 C.3       9 GLL5        0.0000 
     32 CA         90.2440   42.7940   69.8370 C.3       6 GLP5        0.0000 
     33 O          90.0275   43.2885   72.7235 O.2       1 ALC1        0.0000 
     34 O          90.9220   44.1560   72.8070 O.2       7 ALL1        0.0000 
     35 O          89.1330   42.4210   72.6400 O.2       4 ALP1        0.0000 
     36 N          89.3760   44.9700   70.8705 N.am      2 SEC2        0.0000 
     37 N          90.4030   45.7090   71.2580 N.am      8 SEL2        0.0000 
     38 N          88.3490   44.2310   70.4830 N.am      5 SEP2        0.0000 
     39 CA         89.8925   48.4100   71.6990 C.3       3 GLC5        0.0000 
     40 CA         90.7050   46.8550   70.5600 C.3       9 GLL5        0.0000 
     41 CA         89.0800   49.9650   72.8380 C.3       6 GLP5        0.0000 
     42 CA         88.7280   46.4545   70.5910 C.3       3 GLC5        0.0000 
     43 CA         86.7510   46.0540   70.6220 C.3       6 GLP5        0.0000 
     44 CA         90.5355   45.1825   69.5310 C.3       3 GLC5        0.0000 
     45 CA         90.3660   43.5100   68.5020 C.3       6 GLP5        0.0000 
     46 CA         97.8970   48.6630   71.0252 C.3       3 GLC5        0.0000 
     47 CA         96.6330   49.5360   72.1390 C.3       9 GLL5        0.0000 
     48 CA         92.7065   43.6232   72.0435 C.3       3 GLC5        0.0000 
     49 CA         92.4210   45.9470   72.3710 C.3       9 GLL5        0.0000 
     50 CA         93.5640   41.6520   71.8140 C.3       6 GLP5        0.0000 
     51 CA         93.7480   45.6133   70.4805 C.3       3 GLC5        0.0000 
     52 CA         94.9770   44.7170   68.9740 C.3       6 GLP5        0.0000 
@<TRIPOS>BOND
@<TRIPOS>SUBSTRUCTURE
     1 ALC1       33 GROUP        1 X    ALC  0     ROOT ALC X 1
     2 SEC2        1 GROUP        1 X    SEC  0     **** SEC X 2
     3 GLC5       18 GROUP        1 X    GLC  0     **** GLC X 6
     4 ALP1       35 GROUP        1 Y    ALP  0     ROOT ALP Y 8
     5 SEP2        3 GROUP        1 Y    SEP  0     **** SEP Y 9
     6 GLP5       20 GROUP        1 Y    GLP  0     **** GLP Y 13
     7 ALL1       34 GROUP        1 Z    ALL  0     ROOT ALL Z 15
     8 SEL2        2 GROUP        1 Z    SEL  0     **** SEL Z 16
     9 GLL5       19 GROUP        1 Z    GLL  0     **** GLL Z 20
@<TRIPOS>SET

