#    Name: 1e8h_ADP_1_ligand
#    Modification time : Mon Mar 24 23:14:23 2014

@<TRIPOS>MOLECULE
1e8h_ADP_1_ligand
   38    40     1     0     0
SMALL
NO_CHARGES


@<TRIPOS>ATOM
      1 PB        100.4090   46.2510   75.6890 P.3       1 ADP600      0.0000 
      2 O1B       101.5280   46.3420   74.5480 O.co2     1 ADP600      0.0000 
      3 O2B        99.8000   44.9120   75.7680 O.co2     1 ADP600      0.0000 
      4 O3B       100.7580   46.7110   77.0490 O.co2     1 ADP600      0.0000 
      5 PA         97.8260   47.6160   75.2920 P.3       1 ADP600      0.0000 
      6 O1A        97.6190   48.1780   76.6530 O.co2     1 ADP600      0.0000 
      7 O2A        97.0330   46.3760   75.2110 O.co2     1 ADP600      0.0000 
      8 O3A        99.4030   47.3540   75.0670 O.3       1 ADP600      0.0000 
      9 O5'        97.4810   48.7690   74.2860 O.3       1 ADP600      0.0000 
     10 C5'        97.8270   49.0300   72.9440 C.3       1 ADP600      0.0000 
     11 C4'        96.6330   49.5360   72.1390 C.3       1 ADP600      0.0000 
     12 O4'        95.9840   48.3660   71.5960 O.3       1 ADP600      0.0000 
     13 C3'        95.5160   50.2410   72.9140 C.3       1 ADP600      0.0000 
     14 O3'        95.7870   51.6500   73.0810 O.3       1 ADP600      0.0000 
     15 C2'        94.3880   50.0420   71.8550 C.3       1 ADP600      0.0000 
     16 O2'        94.7890   50.8880   70.7590 O.3       1 ADP600      0.0000 
     17 C1'        94.6550   48.5950   71.4010 C.3       1 ADP600      0.0000 
     18 N9         93.8550   47.5590   72.0070 N.pl3     1 ADP600      0.0000 
     19 C8         94.2250   46.6710   72.9560 C.2       1 ADP600      0.0000 
     20 N7         93.4040   45.7210   73.2000 N.2       1 ADP600      0.0000 
     21 C5         92.4210   45.9470   72.3710 C.ar      1 ADP600      0.0000 
     22 C6         91.2770   45.2420   72.1750 C.ar      1 ADP600      0.0000 
     23 N6         90.9220   44.1560   72.8070 N.pl3     1 ADP600      0.0000 
     24 N1         90.4030   45.7090   71.2580 N.ar      1 ADP600      0.0000 
     25 C2         90.7050   46.8550   70.5600 C.ar      1 ADP600      0.0000 
     26 N3         91.8050   47.5720   70.6780 N.ar      1 ADP600      0.0000 
     27 C4         92.6170   47.0720   71.6030 C.ar      1 ADP600      0.0000 
     28 H          98.2092   48.1257   72.4322 H         1 ADP600      0.0000 
     29 H          98.6250   49.7933   72.8638 H         1 ADP600      0.0000 
     30 H          96.9603   50.1601   71.3402 H         1 ADP600      0.0000 
     31 H          95.2773   49.7056   73.7470 H         1 ADP600      0.0000 
     32 H          93.5016   50.1697   72.2390 H         1 ADP600      0.0000 
     33 H          94.4562   48.6022   70.2932 H         1 ADP600      0.0000 
     34 H          95.1294   46.7845   73.4379 H         1 ADP600      0.0000 
     35 H          89.9517   47.1822   69.8495 H         1 ADP600      0.0000 
     36 H          95.5982   52.0574   72.1874 H         1 ADP600      0.0000 
     37 H          94.2108   50.6093   69.9921 H         1 ADP600      0.0000 
     38 H          90.1885   43.7623   72.2529 H         1 ADP600      0.0000 
@<TRIPOS>BOND
     1    2    1 ar   
     2    3    1 ar   
     3    4    1 ar   
     4    8    1 1    
     5    6    5 ar   
     6    7    5 ar   
     7    8    5 1    
     8    9    5 1    
     9   10    9 1    
    10   11   10 1    
    11   28   10 1    
    12   29   10 1    
    13   12   11 1    
    14   13   11 1    
    15   30   11 1    
    16   17   12 1    
    17   14   13 1    
    18   15   13 1    
    19   31   13 1    
    20   36   14 1    
    21   16   15 1    
    22   17   15 1    
    23   32   15 1    
    24   37   16 1    
    25   18   17 1    
    26   33   17 1    
    27   19   18 1    
    28   27   18 1    
    29   20   19 2    
    30   34   19 1    
    31   21   20 1    
    32   22   21 ar   
    33   27   21 ar   
    34   23   22 1    
    35   24   22 ar   
    36   38   23 1    
    37   25   24 ar   
    38   26   25 ar   
    39   35   25 1    
    40   27   26 ar   
@<TRIPOS>SUBSTRUCTURE
     1 ADP600      1 GROUP   
@<TRIPOS>SET

