#    Name: 2h63_NAP_3_INTS_M
#    Modification time : Tue Mar 25 15:32:56 2014

@<TRIPOS>MOLECULE
2h63_NAP_3_INTS_M
   84     0    12     0     0
SMALL
NO_CHARGES


@<TRIPOS>ATOM
      1 N           6.2360    6.7155   23.7170 N.am      2 SEC2        0.0000 
      2 N           6.3180    5.6750   25.1130 N.am     10 SEL2        0.0000 
      3 N           6.1540    7.7560   22.3210 N.am      6 SEP2        0.0000 
      4 N           5.6325    3.4600   22.0145 N.am      2 SEC2        0.0000 
      5 N           5.8530    4.3670   22.9710 N.am     10 SEL2        0.0000 
      6 N           5.4120    2.5530   21.0580 N.am      6 SEP2        0.0000 
      7 N           6.0035    6.0615   22.6460 N.am      2 SEC2        0.0000 
      8 CA          6.9225    1.9560   24.2045 C.3       4 GLC5        0.0000 
      9 CA          8.2520    3.0370   25.6450 C.3      12 GLL5        0.0000 
     10 CA          5.5930    0.8750   22.7640 C.3       8 GLP5        0.0000 
     11 CA         10.1580    1.8555   25.6300 C.3       4 GLC5        0.0000 
     12 CA         12.0640    0.6740   25.6150 C.3       8 GLP5        0.0000 
     13 CA          8.4120   -1.1650   25.5420 C.3       4 GLC5        0.0000 
     14 CA          7.3550    0.6400   25.9900 C.3      12 GLL5        0.0000 
     15 CA          9.4690   -2.9700   25.0940 C.3       8 GLP5        0.0000 
     16 CA          2.4655   -0.3155   28.9875 C.3       4 GLC5        0.0000 
     17 CA          2.4470    1.4890   27.9500 C.3      12 GLL5        0.0000 
     18 CA          2.4840   -2.1200   30.0250 C.3       8 GLP5        0.0000 
     19 N           1.4095    0.1405   26.7070 N.am      2 SEC2        0.0000 
     20 N           1.3790    1.5730   25.8400 N.am     10 SEL2        0.0000 
     21 N           1.4400   -1.2920   27.5740 N.am      6 SEP2        0.0000 
     22 CA          4.0805    1.1605   24.0095 C.3       4 GLC5        0.0000 
     23 CA          2.5680    1.4460   25.2550 C.3      12 GLL5        0.0000 
     24 NZ          6.7430    7.3065   21.4425 N.4       3 LYC4        0.0000 
     25 NZ          8.2470    6.4140   21.4200 N.4      11 LYL4        0.0000 
     26 NZ          5.2390    8.1990   21.4650 N.4       7 LYP4        0.0000 
     27 N           7.9370    3.2480   20.4100 N.am      2 SEC2        0.0000 
     28 N           8.2230    3.8570   21.6570 N.am     10 SEL2        0.0000 
     29 N           7.6510    2.6390   19.1630 N.am      6 SEP2        0.0000 
     30 CA         11.6695    4.2315   25.0000 C.3       4 GLC5        0.0000 
     31 CA         10.9460    4.2670   22.8780 C.3      12 GLL5        0.0000 
     32 CA         12.3930    4.1960   27.1220 C.3       8 GLP5        0.0000 
     33 CA         13.7150    3.6840   20.9255 C.3       4 GLC5        0.0000 
     34 CA         12.3440    4.3420   22.3560 C.3      12 GLL5        0.0000 
     35 CA         15.0860    3.0260   19.4950 C.3       8 GLP5        0.0000 
     36 CA         12.7165    4.8860   25.0375 C.3       4 GLC5        0.0000 
     37 CA         13.0400    5.5760   22.9530 C.3      12 GLL5        0.0000 
     38 CA         14.8185    4.6615   23.3280 C.3       4 GLC5        0.0000 
     39 CA         16.5970    3.7470   23.7030 C.3       8 GLP5        0.0000 
     40 CA         11.5765    6.8605   24.0230 C.3       4 GLC5        0.0000 
     41 CA         10.1130    8.1450   25.0930 C.3       8 GLP5        0.0000 
     42 N          14.8485    6.4795   24.1785 N.am      2 SEC2        0.0000 
     43 N          14.4760    5.4050   23.0090 N.am     10 SEL2        0.0000 
     44 N          15.2210    7.5540   25.3480 N.am      6 SEP2        0.0000 
     45 O          15.4035    6.0710   22.0100 O.2       1 ALC1        0.0000 
     46 O          14.4760    5.4050   23.0090 O.2       9 ALL1        0.0000 
     47 O          16.3310    6.7370   21.0110 O.2       5 ALP1        0.0000 
     48 CA         12.0030    7.7745   23.6410 C.3       4 GLC5        0.0000 
     49 CA         12.7720    6.6310   21.9320 C.3      12 GLL5        0.0000 
     50 CA         11.2340    8.9180   25.3500 C.3       8 GLP5        0.0000 
     51 O          15.0805    7.1585   21.5630 O.2       1 ALC1        0.0000 
     52 O          13.8300    7.5800   22.1150 O.2       9 ALL1        0.0000 
     53 CA         14.0375    4.3930   20.0930 C.3       4 GLC5        0.0000 
     54 CA         12.9890    5.7600   20.6910 C.3      12 GLL5        0.0000 
     55 CA         10.6080    4.3155   19.1445 C.3       4 GLC5        0.0000 
     56 CA         11.1600    6.3540   19.0960 C.3      12 GLL5        0.0000 
     57 CA         10.0560    2.2770   19.1930 C.3       8 GLP5        0.0000 
     58 CA         14.2915    4.7840   18.9515 C.3       4 GLC5        0.0000 
     59 CA         13.4970    6.5420   18.4080 C.3      12 GLL5        0.0000 
     60 NZ          3.9455   -1.9630   28.3905 N.4       3 LYC4        0.0000 
     61 NZ          5.3600   -1.8890   29.2150 N.4      11 LYL4        0.0000 
     62 NZ          2.5310   -2.0370   27.5660 N.4       7 LYP4        0.0000 
     63 NZ          4.4920   -2.7280   26.7210 N.4       3 LYC4        0.0000 
     64 NZ          5.9020   -3.1000   27.0400 N.4      11 LYL4        0.0000 
     65 N           6.5610   -3.0495   25.6390 N.am      2 SEC2        0.0000 
     66 N           5.9020   -3.1000   27.0400 N.am     10 SEL2        0.0000 
     67 N           7.2200   -2.9990   24.2380 N.am      6 SEP2        0.0000 
     68 N           5.5080   -4.2045   27.6785 N.am      2 SEC2        0.0000 
     69 N           5.1140   -5.3090   28.3170 N.am      6 SEP2        0.0000 
     70 N           4.4755   -2.7800   27.8770 N.am      2 SEC2        0.0000 
     71 N           3.0490   -2.4600   28.7140 N.am      6 SEP2        0.0000 
     72 N           4.4920   -2.7280   26.7210 N.am      2 SEC2        0.0000 
     73 N           3.0820   -2.3560   26.4020 N.am      6 SEP2        0.0000 
     74 NZ          8.8490   -2.2505   29.4580 N.4       3 LYC4        0.0000 
     75 NZ          7.7340   -3.0990   28.8550 N.4      11 LYL4        0.0000 
     76 NZ          9.9640   -1.4020   30.0610 N.4       7 LYP4        0.0000 
     77 N           7.6030   -4.1680   29.6415 N.am      2 SEC2        0.0000 
     78 N           7.7340   -3.0990   28.8550 N.am     10 SEL2        0.0000 
     79 N           7.4720   -5.2370   30.4280 N.am      6 SEP2        0.0000 
     80 CA          9.3448    3.2778   27.6105 C.3       4 GLC5        0.0000 
     81 CA          7.7970    1.9360   26.6810 C.3      12 GLL5        0.0000 
     82 CA         10.6650    4.0690   29.0580 C.3       8 GLP5        0.0000 
     83 CA          6.2428    0.5955   24.6390 C.3       4 GLC5        0.0000 
     84 CA         10.8505    3.2908   20.9050 C.3       4 GLC5        0.0000 
@<TRIPOS>BOND
@<TRIPOS>SUBSTRUCTURE
     1 ALC1       45 GROUP        1 X    ALC  0     ROOT ALC X 1
     2 SEC2        1 GROUP        1 X    SEC  0     **** SEC X 2
     3 LYC4       24 GROUP        1 X    LYC  0     **** LYC X 4
     4 GLC5        8 GROUP        1 X    GLC  0     **** GLC X 6
     5 ALP1       47 GROUP        1 Y    ALP  0     ROOT ALP Y 8
     6 SEP2        3 GROUP        1 Y    SEP  0     **** SEP Y 9
     7 LYP4       26 GROUP        1 Y    LYP  0     **** LYP Y 11
     8 GLP5       10 GROUP        1 Y    GLP  0     **** GLP Y 13
     9 ALL1       46 GROUP        1 Z    ALL  0     ROOT ALL Z 15
    10 SEL2        2 GROUP        1 Z    SEL  0     **** SEL Z 16
    11 LYL4       25 GROUP        1 Z    LYL  0     **** LYL Z 18
    12 GLL5        9 GROUP        1 Z    GLL  0     **** GLL Z 20
@<TRIPOS>SET

