#    Name: 2h63_NAP_3_ligand
#    Modification time : Tue Mar 25 15:32:56 2014

@<TRIPOS>MOLECULE
2h63_NAP_3_ligand
   73    77     1     0     0
SMALL
NO_CHARGES


@<TRIPOS>ATOM
      1 PA          6.7600    4.6950   24.1000 P.3       1 NAP501      0.0000 
      2 O1A         6.3180    5.6750   25.1130 O.co2     1 NAP501      0.0000 
      3 O2A         5.8530    4.3670   22.9710 O.co2     1 NAP501      0.0000 
      4 O5B         7.1800    3.2660   24.6970 O.3       1 NAP501      0.0000 
      5 C5B         8.2520    3.0370   25.6450 C.3       1 NAP501      0.0000 
      6 C4B         7.7970    1.9360   26.6810 C.3       1 NAP501      0.0000 
      7 O4B         6.5830    2.3100   27.4190 O.3       1 NAP501      0.0000 
      8 C3B         7.3550    0.6400   25.9900 C.3       1 NAP501      0.0000 
      9 O3B         8.5060   -0.1730   25.6790 O.3       1 NAP501      0.0000 
     10 C2B         6.4300   -0.0080   27.0380 C.3       1 NAP501      0.0000 
     11 O2B         7.1930   -0.9340   27.7740 O.3       1 NAP501      0.0000 
     12 C1B         6.0850    1.1190   28.0220 C.3       1 NAP501      0.0000 
     13 N9A         4.6160    1.2680   28.2350 N.pl3     1 NAP501      0.0000 
     14 C8A         4.0030    1.3390   29.4310 C.2       1 NAP501      0.0000 
     15 N7A         2.6810    1.4740   29.2590 N.2       1 NAP501      0.0000 
     16 C5A         2.4470    1.4890   27.9500 C.ar      1 NAP501      0.0000 
     17 C6A         1.2870    1.6050   27.1860 C.ar      1 NAP501      0.0000 
     18 N6A         0.1080    1.7170   27.7830 N.pl3     1 NAP501      0.0000 
     19 N1A         1.3790    1.5730   25.8400 N.ar      1 NAP501      0.0000 
     20 C2A         2.5680    1.4460   25.2550 C.ar      1 NAP501      0.0000 
     21 N3A         3.6970    1.3410   25.9570 N.ar      1 NAP501      0.0000 
     22 C4A         3.6710    1.3570   27.2970 C.ar      1 NAP501      0.0000 
     23 O3          8.2450    5.2360   23.6850 O.3       1 NAP501      0.0000 
     24 PN          8.6860    5.1890   22.1280 P.3       1 NAP501      0.0000 
     25 O1N         8.2470    6.4140   21.4200 O.co2     1 NAP501      0.0000 
     26 O2N         8.2230    3.8570   21.6570 O.co2     1 NAP501      0.0000 
     27 O5D        10.2650    5.3100   22.3290 O.3       1 NAP501      0.0000 
     28 C5D        10.9460    4.2670   22.8780 C.3       1 NAP501      0.0000 
     29 C4D        12.3440    4.3420   22.3560 C.3       1 NAP501      0.0000 
     30 O4D        12.1410    4.6380   20.9620 O.3       1 NAP501      0.0000 
     31 C3D        13.0400    5.5760   22.9530 C.3       1 NAP501      0.0000 
     32 O3D        14.4760    5.4050   23.0090 O.3       1 NAP501      0.0000 
     33 C2D        12.7720    6.6310   21.9320 C.3       1 NAP501      0.0000 
     34 O2D        13.8300    7.5800   22.1150 O.3       1 NAP501      0.0000 
     35 C1D        12.9890    5.7600   20.6910 C.3       1 NAP501      0.0000 
     36 N1N        12.5250    6.2430   19.3720 N.pl3     1 NAP501      0.0000 
     37 C2N        11.1600    6.3540   19.0960 C.ar      1 NAP501      0.0000 
     38 C3N        10.7460    6.7950   17.8530 C.ar      1 NAP501      0.0000 
     39 C7N         9.2450    6.9770   17.4850 C.2       1 NAP501      0.0000 
     40 O7N         8.8910    7.2200   16.3320 O.2       1 NAP501      0.0000 
     41 N7N         8.3590    6.8910   18.4730 N.am      1 NAP501      0.0000 
     42 C4N        11.7230    7.1030   16.9160 C.ar      1 NAP501      0.0000 
     43 C5N        13.0830    6.9750   17.1630 C.ar      1 NAP501      0.0000 
     44 C6N        13.4970    6.5420   18.4080 C.ar      1 NAP501      0.0000 
     45 P2B         6.6090   -2.3380   28.2640 P.3       1 NAP501      0.0000 
     46 O1X         5.3600   -1.8890   29.2150 O.co2     1 NAP501      0.0000 
     47 O2X         5.9020   -3.1000   27.0400 O.co2     1 NAP501      0.0000 
     48 O3X         7.7340   -3.0990   28.8550 O.co2     1 NAP501      0.0000 
     49 H           8.4908    3.9290   26.2161 H         1 NAP501      0.0000 
     50 H           9.1516    2.6657   25.1637 H         1 NAP501      0.0000 
     51 H           8.5866    1.7104   27.3454 H         1 NAP501      0.0000 
     52 H           6.7734    0.9025   25.1472 H         1 NAP501      0.0000 
     53 H           5.5844   -0.3712   26.6015 H         1 NAP501      0.0000 
     54 H           6.5825    0.9237   28.9444 H         1 NAP501      0.0000 
     55 H           4.4579    1.2979   30.2955 H         1 NAP501      0.0000 
     56 H          -0.6852    1.7963   27.1792 H         1 NAP501      0.0000 
     57 H           0.1189    1.7120   28.7829 H         1 NAP501      0.0000 
     58 H           2.6203    1.4276   24.1942 H         1 NAP501      0.0000 
     59 H          10.5367    3.2888   22.5992 H         1 NAP501      0.0000 
     60 H          10.9947    4.3107   23.9725 H         1 NAP501      0.0000 
     61 H          12.8686    3.4917   22.5201 H         1 NAP501      0.0000 
     62 H          12.6016    5.8299   23.8532 H         1 NAP501      0.0000 
     63 H          11.8310    6.9584   21.9944 H         1 NAP501      0.0000 
     64 H          13.9967    5.4256   20.6607 H         1 NAP501      0.0000 
     65 H          10.4726    6.1075   19.8175 H         1 NAP501      0.0000 
     66 H           8.7338    6.7475   19.3889 H         1 NAP501      0.0000 
     67 H           7.3979    6.9776   18.2109 H         1 NAP501      0.0000 
     68 H          11.4172    7.4509   15.9712 H         1 NAP501      0.0000 
     69 H          13.7643    7.1981   16.4342 H         1 NAP501      0.0000 
     70 H          14.4857    6.4394   18.6293 H         1 NAP501      0.0000 
     71 H           8.4330   -0.9666   26.2830 H         1 NAP501      0.0000 
     72 H          14.8337    5.9785   22.2720 H         1 NAP501      0.0000 
     73 H          14.6375    7.1478   21.7136 H         1 NAP501      0.0000 
@<TRIPOS>BOND
     1    2    1 ar   
     2    3    1 ar   
     3    4    1 1    
     4   23    1 1    
     5    5    4 1    
     6    6    5 1    
     7   49    5 1    
     8   50    5 1    
     9    7    6 1    
    10    8    6 1    
    11   51    6 1    
    12   12    7 1    
    13    9    8 1    
    14   10    8 1    
    15   52    8 1    
    16   71    9 1    
    17   11   10 1    
    18   12   10 1    
    19   53   10 1    
    20   45   11 1    
    21   13   12 1    
    22   54   12 1    
    23   14   13 1    
    24   22   13 1    
    25   15   14 2    
    26   55   14 1    
    27   16   15 1    
    28   17   16 ar   
    29   22   16 ar   
    30   18   17 1    
    31   19   17 ar   
    32   56   18 1    
    33   57   18 1    
    34   20   19 ar   
    35   21   20 ar   
    36   58   20 1    
    37   22   21 ar   
    38   24   23 1    
    39   25   24 ar   
    40   26   24 ar   
    41   27   24 1    
    42   28   27 1    
    43   29   28 1    
    44   59   28 1    
    45   60   28 1    
    46   30   29 1    
    47   31   29 1    
    48   61   29 1    
    49   35   30 1    
    50   32   31 1    
    51   33   31 1    
    52   62   31 1    
    53   72   32 1    
    54   34   33 1    
    55   35   33 1    
    56   63   33 1    
    57   73   34 1    
    58   36   35 1    
    59   64   35 1    
    60   37   36 ar   
    61   44   36 ar   
    62   38   37 ar   
    63   65   37 1    
    64   39   38 1    
    65   42   38 ar   
    66   40   39 2    
    67   41   39 am   
    68   66   41 1    
    69   67   41 1    
    70   43   42 ar   
    71   68   42 1    
    72   44   43 ar   
    73   69   43 1    
    74   70   44 1    
    75   46   45 ar   
    76   47   45 ar   
    77   48   45 ar   
@<TRIPOS>SUBSTRUCTURE
     1 NAP501      1 GROUP   
@<TRIPOS>SET

