#    Name: 3qg2_UMP_3_INTS_M
#    Modification time : Tue Mar 25 09:43:31 2014

@<TRIPOS>MOLECULE
3qg2_UMP_3_INTS_M
   59     0    12     0     0
SMALL
NO_CHARGES


@<TRIPOS>ATOM
      1 O          41.3480   20.0715   21.8950 O.2       1 ALC1        0.0000 
      2 O          42.2780   20.5450   21.0690 O.2       9 ALL1        0.0000 
      3 O          40.4180   19.5980   22.7210 O.2       5 ALP1        0.0000 
      4 N          43.4990   17.0725   20.6180 N.am      2 SEC2        0.0000 
      5 N          43.1790   18.4510   20.9180 N.am     10 SEL2        0.0000 
      6 N          43.8190   15.6940   20.3180 N.am      6 SEP2        0.0000 
      7 N          40.8940   22.0960   22.5600 N.am      2 SEC2        0.0000 
      8 N          41.3490   22.6640   21.2480 N.am     10 SEL2        0.0000 
      9 N          40.4390   21.5280   23.8720 N.am      6 SEP2        0.0000 
     10 CA         43.1595   16.7640   18.4635 C.3       4 GLC5        0.0000 
     11 CA         44.5700   18.2230   17.7660 C.3      12 GLL5        0.0000 
     12 CA         41.7490   15.3050   19.1610 C.3       8 GLP5        0.0000 
     13 N          47.9780   16.9215   17.0760 N.am      2 SEC2        0.0000 
     14 N          46.7100   17.2030   17.5180 N.am     10 SEL2        0.0000 
     15 N          49.2460   16.6400   16.6340 N.am      6 SEP2        0.0000 
     16 O          46.2695   15.9710   17.4140 O.2       1 ALC1        0.0000 
     17 O          46.7100   17.2030   17.5180 O.2       9 ALL1        0.0000 
     18 O          45.8290   14.7390   17.3100 O.2       5 ALP1        0.0000 
     19 CA         43.8360   20.6520   15.9320 C.3       4 GLC5        0.0000 
     20 CA         45.7810   20.1930   15.4370 C.3      12 GLL5        0.0000 
     21 CA         41.8910   21.1110   16.4270 C.3       8 GLP5        0.0000 
     22 N          46.9335   18.2170   13.9795 N.am      2 SEC2        0.0000 
     23 N          46.2160   19.5640   14.1890 N.am     10 SEL2        0.0000 
     24 N          47.6510   16.8700   13.7700 N.am      6 SEP2        0.0000 
     25 NZ         46.8810   17.9725   12.7615 N.4       3 LYC4        0.0000 
     26 NZ         46.1110   19.0750   11.7530 N.4      11 LYL4        0.0000 
     27 NZ         46.8940   15.7900   13.6430 N.4       7 LYP4        0.0000 
     28 N          46.8810   17.9725   12.7615 N.am      2 SEC2        0.0000 
     29 N          46.1110   19.0750   11.7530 N.am     10 SEL2        0.0000 
     30 NZ         42.8985   18.9235   12.6775 N.4       3 LYC4        0.0000 
     31 NZ         44.2330   18.6220   13.1970 N.4      11 LYL4        0.0000 
     32 NZ         41.0410   20.4330   12.3210 N.4       7 LYP4        0.0000 
     33 NZ         44.9265   17.2655   13.2375 N.4       3 LYC4        0.0000 
     34 N          42.8985   18.9235   12.6775 N.am      2 SEC2        0.0000 
     35 N          44.2330   18.6220   13.1970 N.am     10 SEL2        0.0000 
     36 N          41.5640   19.2250   12.1580 N.am      6 SEP2        0.0000 
     37 N          43.7560   17.6945   14.1280 N.am      2 SEC2        0.0000 
     38 N          43.2790   16.7670   15.0590 N.am      6 SEP2        0.0000 
     39 N          44.9265   17.2655   13.2375 N.am      2 SEC2        0.0000 
     40 N          45.6200   15.9090   13.2780 N.am      6 SEP2        0.0000 
     41 NZ         43.3395   21.1715   12.5950 N.4       3 LYC4        0.0000 
     42 NZ         44.8440   20.8880   12.5960 N.4      11 LYL4        0.0000 
     43 NZ         45.4355   21.7800   11.6125 N.4       3 LYC4        0.0000 
     44 NZ         45.3190   22.4090    9.5330 N.4       7 LYP4        0.0000 
     45 N          43.3395   21.1715   12.5950 N.am      2 SEC2        0.0000 
     46 N          44.8440   20.8880   12.5960 N.am     10 SEL2        0.0000 
     47 N          41.8350   21.4550   12.5940 N.am      6 SEP2        0.0000 
     48 N          44.5980   21.1915   11.0835 N.am      2 SEC2        0.0000 
     49 N          44.3520   21.4950    9.5710 N.am      6 SEP2        0.0000 
     50 N          45.4355   21.7800   11.6125 N.am      2 SEC2        0.0000 
     51 N          46.0270   22.6720   10.6290 N.am      6 SEP2        0.0000 
     52 CA         42.6840   21.5108   17.8863 C.3       4 GLC5        0.0000 
     53 CA         43.9220   21.4470   19.0620 C.3      12 GLL5        0.0000 
     54 CA         43.3400   19.9460   17.3387 C.3       4 GLC5        0.0000 
     55 CA         45.0080   19.3390   18.7350 C.3      12 GLL5        0.0000 
     56 CA         43.5643   17.6938   16.1000 C.3       4 GLC5        0.0000 
     57 CA         41.9630   17.2500   14.9040 C.3       8 GLP5        0.0000 
     58 CA         45.6040   17.5267   19.2996 C.3       4 GLC5        0.0000 
     59 CA         45.9330   16.6370   21.0610 C.3       8 GLP5        0.0000 
@<TRIPOS>BOND
@<TRIPOS>SUBSTRUCTURE
     1 ALC1        1 GROUP        1 X    ALC  0     ROOT ALC X 1
     2 SEC2        4 GROUP        1 X    SEC  0     **** SEC X 2
     3 LYC4       25 GROUP        1 X    LYC  0     **** LYC X 4
     4 GLC5       10 GROUP        1 X    GLC  0     **** GLC X 6
     5 ALP1        3 GROUP        1 Y    ALP  0     ROOT ALP Y 8
     6 SEP2        6 GROUP        1 Y    SEP  0     **** SEP Y 9
     7 LYP4       27 GROUP        1 Y    LYP  0     **** LYP Y 11
     8 GLP5       12 GROUP        1 Y    GLP  0     **** GLP Y 13
     9 ALL1        2 GROUP        1 Z    ALL  0     ROOT ALL Z 15
    10 SEL2        5 GROUP        1 Z    SEL  0     **** SEL Z 16
    11 LYL4       26 GROUP        1 Z    LYL  0     **** LYL Z 18
    12 GLL5       11 GROUP        1 Z    GLL  0     **** GLL Z 20
@<TRIPOS>SET

