#    Name: 3qg2_UMP_3_ligand
#    Modification time : Tue Mar 25 09:43:31 2014

@<TRIPOS>MOLECULE
3qg2_UMP_3_ligand
   31    32     1     0     0
SMALL
NO_CHARGES


@<TRIPOS>ATOM
      1 N1         43.9850   20.1470   19.4750 N.am      1 UMP611      0.0000 
      2 C2         43.1600   19.6110   20.5110 C.2       1 UMP611      0.0000 
      3 N3         42.2780   20.5450   21.0690 N.am      1 UMP611      0.0000 
      4 C4         42.1470   21.9130   20.7020 C.2       1 UMP611      0.0000 
      5 C5         43.0320   22.3740   19.6290 C.2       1 UMP611      0.0000 
      6 C6         43.9220   21.4470   19.0620 C.2       1 UMP611      0.0000 
      7 O2         43.1790   18.4510   20.9180 O.2       1 UMP611      0.0000 
      8 O4         41.3490   22.6640   21.2480 O.2       1 UMP611      0.0000 
      9 C1'        45.0080   19.3390   18.7350 C.3       1 UMP611      0.0000 
     10 C2'        44.5700   18.2230   17.7660 C.3       1 UMP611      0.0000 
     11 C3'        45.7610   18.0520   16.8260 C.3       1 UMP611      0.0000 
     12 C4'        46.3970   19.4440   16.6220 C.3       1 UMP611      0.0000 
     13 O3'        46.7100   17.2030   17.5180 O.3       1 UMP611      0.0000 
     14 O4'        45.9400   20.1240   17.8580 O.3       1 UMP611      0.0000 
     15 C5'        45.7810   20.1930   15.4370 C.3       1 UMP611      0.0000 
     16 O5'        46.2160   19.5640   14.1890 O.3       1 UMP611      0.0000 
     17 P          45.3390   19.5480   12.8980 P.3       1 UMP611      0.0000 
     18 OP1        46.1110   19.0750   11.7530 O.co2     1 UMP611      0.0000 
     19 OP2        44.2330   18.6220   13.1970 O.co2     1 UMP611      0.0000 
     20 OP3        44.8440   20.8880   12.5960 O.co2     1 UMP611      0.0000 
     21 H          41.6341   20.2029   21.8511 H         1 UMP611      0.0000 
     22 H          42.9824   23.3266   19.3289 H         1 UMP611      0.0000 
     23 H          44.5529   21.7810   18.2962 H         1 UMP611      0.0000 
     24 H          45.6878   18.8212   19.4718 H         1 UMP611      0.0000 
     25 H          43.7194   18.5440   17.2197 H         1 UMP611      0.0000 
     26 H          44.4056   17.3276   18.3104 H         1 UMP611      0.0000 
     27 H          45.4481   17.6627   15.9180 H         1 UMP611      0.0000 
     28 H          47.4105   19.3793   16.5819 H         1 UMP611      0.0000 
     29 H          46.1040   21.2323   15.4841 H         1 UMP611      0.0000 
     30 H          44.6967   20.1567   15.5357 H         1 UMP611      0.0000 
     31 H          46.2673   16.3078   17.5685 H         1 UMP611      0.0000 
@<TRIPOS>BOND
     1    2    1 1    
     2    6    1 1    
     3    9    1 1    
     4    3    2 1    
     5    7    2 2    
     6    4    3 1    
     7   21    3 1    
     8    5    4 1    
     9    8    4 2    
    10    6    5 2    
    11   22    5 1    
    12   23    6 1    
    13   10    9 1    
    14   14    9 1    
    15   24    9 1    
    16   11   10 1    
    17   25   10 1    
    18   26   10 1    
    19   12   11 1    
    20   13   11 1    
    21   27   11 1    
    22   14   12 1    
    23   15   12 1    
    24   28   12 1    
    25   31   13 1    
    26   16   15 1    
    27   29   15 1    
    28   30   15 1    
    29   17   16 1    
    30   18   17 ar   
    31   19   17 ar   
    32   20   17 ar   
@<TRIPOS>SUBSTRUCTURE
     1 UMP611      1 GROUP   
@<TRIPOS>SET

