#    Name: 3ti0_DG3_1_INTS_M
#    Modification time : Mon Mar 24 20:09:01 2014

@<TRIPOS>MOLECULE
3ti0_DG3_1_INTS_M
   60     0    12     0     0
SMALL
NO_CHARGES


@<TRIPOS>ATOM
      1 NZ        131.3610  -24.0815   46.5950 N.4       2 LYC4        0.0000 
      2 NZ        131.2420  -25.2970   45.7800 N.4      10 LYL4        0.0000 
      3 NZ        132.5750  -22.1560   47.1730 N.4       6 LYP4        0.0000 
      4 NZ        129.8260  -24.8980   45.4675 N.4       2 LYC4        0.0000 
      5 NZ        128.4100  -24.4990   45.1550 N.4       6 LYP4        0.0000 
      6 N         131.3610  -24.0815   46.5950 N.am      1 SEC2        0.0000 
      7 N         131.2420  -25.2970   45.7800 N.am      9 SEL2        0.0000 
      8 N         131.4800  -22.8660   47.4100 N.am      5 SEP2        0.0000 
      9 N         129.8260  -24.8980   45.4675 N.am      1 SEC2        0.0000 
     10 N         128.4100  -24.4990   45.1550 N.am      5 SEP2        0.0000 
     11 Zn        131.6790  -27.8850   43.6575 Zn        3 ZIC7        0.0000 
     12 Zn        131.9300  -27.2260   44.4700 Zn       11 ZIL7        0.0000 
     13 Zn        131.4280  -28.5440   42.8450 Zn        7 ZIP7        0.0000 
     14 N         132.5085  -27.9280   45.4765 N.am      1 SEC2        0.0000 
     15 N         131.9300  -27.2260   44.4700 N.am      9 SEL2        0.0000 
     16 N         133.0870  -28.6300   46.4830 N.am      5 SEP2        0.0000 
     17 N         133.9320  -25.3975   43.2375 N.am      1 SEC2        0.0000 
     18 N         133.3260  -25.2320   44.4950 N.am      9 SEL2        0.0000 
     19 N         134.5380  -25.5630   41.9800 N.am      5 SEP2        0.0000 
     20 N         133.3820  -23.9070   45.3780 N.am      1 SEC2        0.0000 
     21 N         133.4380  -22.5820   46.2610 N.am      5 SEP2        0.0000 
     22 N         129.7510  -24.7690   44.2540 N.am      1 SEC2        0.0000 
     23 N         131.0920  -25.0390   43.3530 N.am      9 SEL2        0.0000 
     24 N         131.3330  -23.1600   41.4670 N.am      1 SEC2        0.0000 
     25 N         131.0590  -24.4020   40.9130 N.am      9 SEL2        0.0000 
     26 N         131.6070  -21.9180   42.0210 N.am      5 SEP2        0.0000 
     27 N         131.1840  -24.0680   39.6155 N.am      1 SEC2        0.0000 
     28 N         131.3090  -23.7340   38.3180 N.am      5 SEP2        0.0000 
     29 Zn        131.4760  -27.6565   42.1465 Zn        3 ZIC7        0.0000 
     30 Zn        131.5240  -26.7690   41.4480 Zn       11 ZIL7        0.0000 
     31 N         132.6345  -26.5280   40.4055 N.am      1 SEC2        0.0000 
     32 N         131.5240  -26.7690   41.4480 N.am      9 SEL2        0.0000 
     33 N         133.7450  -26.2870   39.3630 N.am      5 SEP2        0.0000 
     34 NZ        127.9130  -25.4655   44.2365 N.4       2 LYC4        0.0000 
     35 NZ        127.4160  -26.4320   43.3180 N.4      10 LYL4        0.0000 
     36 N         127.9130  -25.4655   44.2365 N.am      1 SEC2        0.0000 
     37 N         127.4160  -26.4320   43.3180 N.am      9 SEL2        0.0000 
     38 Zn        130.3635  -28.2785   42.8825 Zn        3 ZIC7        0.0000 
     39 Zn        129.2990  -28.0130   42.9200 Zn       11 ZIL7        0.0000 
     40 N         129.1845  -29.6155   42.3515 N.am      1 SEC2        0.0000 
     41 N         129.2990  -28.0130   42.9200 N.am      9 SEL2        0.0000 
     42 N         129.0700  -31.2180   41.7830 N.am      5 SEP2        0.0000 
     43 CA        129.4305  -29.8205   39.9250 C.3       4 GLC5        0.0000 
     44 CA        128.4240  -27.9680   39.9920 C.3      12 GLL5        0.0000 
     45 CA        130.4370  -31.6730   39.8580 C.3       8 GLP5        0.0000 
     46 N         126.2735  -28.4660   37.4370 N.am      1 SEC2        0.0000 
     47 N         126.7930  -27.4800   38.3410 N.am      9 SEL2        0.0000 
     48 N         125.7540  -29.4520   36.5330 N.am      5 SEP2        0.0000 
     49 CA        130.1784  -27.6119   38.6355 C.3       4 GLC5        0.0000 
     50 CA        128.1790  -27.5070   38.6060 C.3      12 GLL5        0.0000 
     51 CA        131.8770  -28.3040   38.4150 C.3       8 GLP5        0.0000 
     52 CA        129.2982  -26.2410   36.2795 C.3       4 GLC5        0.0000 
     53 CA        128.6580  -26.1020   38.4130 C.3      12 GLL5        0.0000 
     54 CA        130.4020  -26.6660   34.6340 C.3       8 GLP5        0.0000 
     55 CA        128.7267  -24.2415   38.4305 C.3       4 GLC5        0.0000 
     56 CA        127.7310  -25.5300   37.4370 C.3      12 GLL5        0.0000 
     57 CA        129.2590  -22.6670   38.9360 C.3       8 GLP5        0.0000 
     58 CA        125.8243  -22.1540   37.6770 C.3       4 GLC5        0.0000 
     59 CA        125.0280  -24.3040   37.8530 C.3      12 GLL5        0.0000 
     60 CA        126.9370  -20.3780   37.0000 C.3       8 GLP5        0.0000 
@<TRIPOS>BOND
@<TRIPOS>SUBSTRUCTURE
     1 SEC2        6 GROUP        1 X    SEC  0     ROOT SEC X 2
     2 LYC4        1 GROUP        1 X    LYC  0     **** LYC X 4
     3 ZIC7       11 GROUP        1 X    ZIC  0     **** ZIC X 5
     4 GLC5       43 GROUP        1 X    GLC  0     **** GLC X 6
     5 SEP2        8 GROUP        1 Y    SEP  0     ROOT SEP Y 9
     6 LYP4        3 GROUP        1 Y    LYP  0     **** LYP Y 11
     7 ZIP7       13 GROUP        1 Y    ZIP  0     **** ZIP Y 12
     8 GLP5       45 GROUP        1 Y    GLP  0     **** GLP Y 13
     9 SEL2        7 GROUP        1 Z    SEL  0     ROOT SEL Z 16
    10 LYL4        2 GROUP        1 Z    LYL  0     **** LYL Z 18
    11 ZIL7       12 GROUP        1 Z    ZIL  0     **** ZIL Z 19
    12 GLL5       44 GROUP        1 Z    GLL  0     **** GLL Z 20
@<TRIPOS>SET

