#    Name: 3ti0_DG3_1_ligand
#    Modification time : Mon Mar 24 20:09:01 2014

@<TRIPOS>MOLECULE
3ti0_DG3_1_ligand
   42    44     1     0     0
SMALL
NO_CHARGES


@<TRIPOS>ATOM
      1 PG        131.9130  -25.7430   44.5330 P.3       1 DG3201      0.0000 
      2 O1G       131.2420  -25.2970   45.7800 O.co2     1 DG3201      0.0000 
      3 O2G       131.9300  -27.2260   44.4700 O.co2     1 DG3201      0.0000 
      4 O3G       133.3260  -25.2320   44.4950 O.co2     1 DG3201      0.0000 
      5 O3B       131.0920  -25.0390   43.3530 O.3       1 DG3201      0.0000 
      6 PB        130.8260  -25.5530   41.8630 P.3       1 DG3201      0.0000 
      7 O1B       131.0590  -24.4020   40.9130 O.co2     1 DG3201      0.0000 
      8 O2B       131.5240  -26.7690   41.4480 O.co2     1 DG3201      0.0000 
      9 O3A       129.2170  -25.6870   41.8000 O.3       1 DG3201      0.0000 
     10 PA        128.4220  -26.9460   42.3300 P.3       1 DG3201      0.0000 
     11 O1A       127.4160  -26.4320   43.3180 O.co2     1 DG3201      0.0000 
     12 O2A       129.2990  -28.0130   42.9200 O.co2     1 DG3201      0.0000 
     13 O5'       127.6860  -27.4290   41.0360 O.3       1 DG3201      0.0000 
     14 C5'       128.4240  -27.9680   39.9920 C.3       1 DG3201      0.0000 
     15 C4'       128.1790  -27.5070   38.6060 C.3       1 DG3201      0.0000 
     16 O4'       126.7930  -27.4800   38.3410 O.3       1 DG3201      0.0000 
     17 C3'       128.6580  -26.1020   38.4130 C.3       1 DG3201      0.0000 
     18 C2'       127.7310  -25.5300   37.4370 C.3       1 DG3201      0.0000 
     19 C1'       126.4440  -26.2420   37.6780 C.3       1 DG3201      0.0000 
     20 N9        125.6510  -25.3460   38.4220 N.pl3     1 DG3201      0.0000 
     21 C8        125.4700  -25.2480   39.7650 C.2       1 DG3201      0.0000 
     22 N7        124.6940  -24.1670   40.0400 N.2       1 DG3201      0.0000 
     23 C5        124.3950  -23.5560   38.8550 C.2       1 DG3201      0.0000 
     24 C6        123.6590  -22.4280   38.4520 C.2       1 DG3201      0.0000 
     25 O6        123.0080  -21.6100   39.3350 O.2       1 DG3201      0.0000 
     26 N1        123.5830  -22.1220   37.1450 N.am      1 DG3201      0.0000 
     27 C2        124.2150  -22.8690   36.2300 C.2       1 DG3201      0.0000 
     28 N2        124.0780  -22.4770   34.8140 N.pl3     1 DG3201      0.0000 
     29 N3        124.9080  -23.9490   36.5500 N.2       1 DG3201      0.0000 
     30 C4        125.0280  -24.3040   37.8530 C.2       1 DG3201      0.0000 
     31 H         128.3298  -29.1131   39.9834 H         1 DG3201      0.0000 
     32 H         129.5490  -27.8439   40.1900 H         1 DG3201      0.0000 
     33 H         128.6922  -28.1408   37.9090 H         1 DG3201      0.0000 
     34 H         129.6609  -26.1140   38.0288 H         1 DG3201      0.0000 
     35 H         128.6068  -25.5736   39.3467 H         1 DG3201      0.0000 
     36 H         128.0674  -25.7193   36.4334 H         1 DG3201      0.0000 
     37 H         127.5994  -24.4763   37.6064 H         1 DG3201      0.0000 
     38 H         126.0161  -26.4413   36.7050 H         1 DG3201      0.0000 
     39 H         125.8374  -25.8550   40.4247 H         1 DG3201      0.0000 
     40 H         123.0224  -21.2891   36.8407 H         1 DG3201      0.0000 
     41 H         124.5722  -23.0401   34.1517 H         1 DG3201      0.0000 
     42 H         123.5020  -21.6801   34.6318 H         1 DG3201      0.0000 
@<TRIPOS>BOND
     1    2    1 ar   
     2    3    1 ar   
     3    4    1 ar   
     4    5    1 1    
     5    6    5 1    
     6    7    6 ar   
     7    8    6 ar   
     8    9    6 1    
     9   10    9 1    
    10   11   10 ar   
    11   12   10 ar   
    12   13   10 1    
    13   14   13 1    
    14   15   14 1    
    15   31   14 1    
    16   32   14 1    
    17   16   15 1    
    18   17   15 1    
    19   33   15 1    
    20   19   16 1    
    21   18   17 1    
    22   34   17 1    
    23   35   17 1    
    24   19   18 1    
    25   36   18 1    
    26   37   18 1    
    27   20   19 1    
    28   38   19 1    
    29   21   20 1    
    30   30   20 1    
    31   22   21 2    
    32   39   21 1    
    33   23   22 1    
    34   24   23 1    
    35   30   23 2    
    36   25   24 2    
    37   26   24 am   
    38   27   26 1    
    39   40   26 1    
    40   28   27 1    
    41   29   27 2    
    42   41   28 1    
    43   42   28 1    
    44   30   29 1    
@<TRIPOS>SUBSTRUCTURE
     1 DG3201      1 GROUP   
@<TRIPOS>SET

