#    Name: 1oit_HDT_1_INTS_M
#    Modification time : Mon Mar 24 20:12:35 2014

@<TRIPOS>MOLECULE
1oit_HDT_1_INTS_M
   68     0     9     0     0
SMALL
NO_CHARGES


@<TRIPOS>ATOM
      1 CA         10.1065  -12.9115    9.6770 C.3       3 GLC5        0.0000 
      2 CA          8.7010  -11.7790   10.8180 C.3       9 GLL5        0.0000 
      3 CA         11.5120  -14.0440    8.5360 C.3       6 GLP5        0.0000 
      4 CA         15.0445   -9.9595    9.9815 C.3       3 GLC5        0.0000 
      5 CA         13.6440   -8.7730    9.6490 C.3       9 GLL5        0.0000 
      6 CA         16.4450  -11.1460   10.3140 C.3       6 GLP5        0.0000 
      7 CA         15.4300   -9.5620    8.6490 C.3       3 GLC5        0.0000 
      8 CA         13.8620   -8.5060    8.3010 C.3       9 GLL5        0.0000 
      9 CA         16.9980  -10.6180    8.9970 C.3       6 GLP5        0.0000 
     10 CA         15.2805   -9.8055   15.6100 C.3       3 GLC5        0.0000 
     11 CA         13.8370   -9.4040   13.9460 C.3       9 GLL5        0.0000 
     12 CA         16.7240  -10.2070   17.2740 C.3       6 GLP5        0.0000 
     13 CA         17.2440   -7.0210   12.1590 C.3       3 GLC5        0.0000 
     14 CA         15.0280   -7.0750   12.3850 C.3       9 GLL5        0.0000 
     15 CA         19.4600   -6.9670   11.9330 C.3       6 GLP5        0.0000 
     16 CA         14.3125   -5.8070   13.6040 C.3       3 GLC5        0.0000 
     17 CA         13.5970   -4.5390   14.8230 C.3       6 GLP5        0.0000 
     18 CA         13.4140   -9.0280   16.4230 C.3       3 GLC5        0.0000 
     19 CA         13.0600  -10.3220   14.6380 C.3       9 GLL5        0.0000 
     20 CA         13.7680   -7.7340   18.2080 C.3       6 GLP5        0.0000 
     21 CA         12.3575  -11.8820   15.7515 C.3       3 GLC5        0.0000 
     22 CA         11.6550  -13.4420   16.8650 C.3       6 GLP5        0.0000 
     23 CA         11.9815   -8.9005   14.5800 C.3       3 GLC5        0.0000 
     24 CA         10.9030   -7.4790   14.5220 C.3       6 GLP5        0.0000 
     25 CA         13.3685  -11.4825   13.4860 C.3       3 GLC5        0.0000 
     26 CA         11.5570  -10.4680   12.8310 C.3       9 GLL5        0.0000 
     27 CA         15.1800  -12.4970   14.1410 C.3       6 GLP5        0.0000 
     28 CA         11.2300   -8.9735   13.6765 C.3       3 GLC5        0.0000 
     29 N           6.0070   -8.5960    9.2700 N.am      2 SEC2        0.0000 
     30 N           6.0810   -9.4490    7.9890 N.am      8 SEL2        0.0000 
     31 N           5.9330   -7.7430   10.5510 N.am      5 SEP2        0.0000 
     32 O           8.0695   -8.1485    6.9760 O.2       1 ALC1        0.0000 
     33 O           8.0040   -9.4540    6.4390 O.2       7 ALL1        0.0000 
     34 O           8.1350   -6.8430    7.5130 O.2       4 ALP1        0.0000 
     35 O           9.5310  -11.7490   13.0890 O.2       1 ALC1        0.0000 
     36 O          10.4440  -11.0810   12.3350 O.2       7 ALL1        0.0000 
     37 O           8.6180  -12.4170   13.8430 O.2       4 ALP1        0.0000 
     38 N          10.8665  -11.4405   15.1355 N.am      2 SEC2        0.0000 
     39 N          11.9590  -10.8300   14.0680 N.am      8 SEL2        0.0000 
     40 N           9.7740  -12.0510   16.2030 N.am      5 SEP2        0.0000 
     41 O          16.6505   -5.4550   12.3025 O.2       1 ALC1        0.0000 
     42 O          15.5600   -6.4310   11.4210 O.2       7 ALL1        0.0000 
     43 O          17.7410   -4.4790   13.1840 O.2       4 ALP1        0.0000 
     44 CA          7.1165  -12.3233   11.8635 C.3       3 GLC5        0.0000 
     45 CA          5.9260  -12.9610   13.4760 C.3       6 GLP5        0.0000 
     46 CA         13.3240  -10.2862    8.7970 C.3       3 GLC5        0.0000 
     47 CA         12.8950  -11.9330    8.6190 C.3       6 GLP5        0.0000 
     48 CA         14.2700   -9.1867    6.4125 C.3       3 GLC5        0.0000 
     49 CA         14.7240   -7.4570    7.9590 C.3       9 GLL5        0.0000 
     50 CA         14.2470  -10.3920    4.6950 C.3       6 GLP5        0.0000 
     51 CA         16.3287   -8.2151    8.9935 C.3       3 GLC5        0.0000 
     52 CA         17.6840   -9.2820    9.2180 C.3       6 GLP5        0.0000 
     53 CA         15.1365   -9.8425   11.2988 C.3       3 GLC5        0.0000 
     54 CA         13.4260   -9.0330   12.6760 C.3       9 GLL5        0.0000 
     55 CA         12.4169   -8.0554   13.5615 C.3       3 GLC5        0.0000 
     56 CA         14.2300   -8.0450   11.8910 C.3       9 GLL5        0.0000 
     57 CA         14.2629  -11.1336   14.0577 C.3       3 GLC5        0.0000 
     58 CA         11.3528  -11.1252    9.6805 C.3       3 GLC5        0.0000 
     59 CA          9.7240  -10.8810   11.1420 C.3       9 GLL5        0.0000 
     60 CA          8.5315   -7.8500    9.7555 C.3       3 GLC5        0.0000 
     61 CA          9.8970   -9.7540   10.3420 C.3       9 GLL5        0.0000 
     62 CA          7.5610   -6.0420    9.7370 C.3       6 GLP5        0.0000 
     63 CA          9.4684   -8.3454   11.2960 C.3       3 GLC5        0.0000 
     64 CA          9.1070   -9.5620    9.2060 C.3       9 GLL5        0.0000 
     65 CA          9.4780   -6.7510   12.6180 C.3       6 GLP5        0.0000 
     66 CA          6.6445  -10.4569   10.5038 C.3       3 GLC5        0.0000 
     67 CA          8.1190  -10.4800    8.8680 C.3       9 GLL5        0.0000 
     68 CA          5.0760   -9.8310   11.4480 C.3       6 GLP5        0.0000 
@<TRIPOS>BOND
@<TRIPOS>SUBSTRUCTURE
     1 ALC1       32 GROUP        1 X    ALC  0     ROOT ALC X 1
     2 SEC2       29 GROUP        1 X    SEC  0     **** SEC X 2
     3 GLC5        1 GROUP        1 X    GLC  0     **** GLC X 6
     4 ALP1       34 GROUP        1 Y    ALP  0     ROOT ALP Y 8
     5 SEP2       31 GROUP        1 Y    SEP  0     **** SEP Y 9
     6 GLP5        3 GROUP        1 Y    GLP  0     **** GLP Y 13
     7 ALL1       33 GROUP        1 Z    ALL  0     ROOT ALL Z 15
     8 SEL2       30 GROUP        1 Z    SEL  0     **** SEL Z 16
     9 GLL5        2 GROUP        1 Z    GLL  0     **** GLL Z 20
@<TRIPOS>SET

