#    Name: 1oit_HDT_1_ligand
#    Modification time : Mon Mar 24 20:12:35 2014

@<TRIPOS>MOLECULE
1oit_HDT_1_ligand
   41    44     1     0     0
SMALL
NO_CHARGES


@<TRIPOS>ATOM
      1 C22         8.7010  -11.7790   10.8180 C.ar      1 HDT1299     0.0000 
      2 N1         14.2760   -8.0000   10.5420 N.pl3     1 HDT1299     0.0000 
      3 C2         13.6440   -8.7730    9.6490 C.2       1 HDT1299     0.0000 
      4 C6         15.0850   -7.0060   10.2360 C.2       1 HDT1299     0.0000 
      5 C5         15.3610   -6.6730    8.9220 C.2       1 HDT1299     0.0000 
      6 C4         14.7240   -7.4570    7.9590 C.2       1 HDT1299     0.0000 
      7 C3         13.8620   -8.5060    8.3010 C.2       1 HDT1299     0.0000 
      8 C11        13.8370   -9.4040   13.9460 C.ar      1 HDT1299     0.0000 
      9 C10        13.4260   -9.0330   12.6760 C.ar      1 HDT1299     0.0000 
     10 C9         14.2300   -8.0450   11.8910 C.2       1 HDT1299     0.0000 
     11 C8         15.0280   -7.0750   12.3850 C.2       1 HDT1299     0.0000 
     12 C12        13.0600  -10.3220   14.6380 C.ar      1 HDT1299     0.0000 
     13 C17         9.7240  -10.8810   11.1420 C.ar      1 HDT1299     0.0000 
     14 C14        11.5570  -10.4680   12.8310 C.ar      1 HDT1299     0.0000 
     15 N15        12.3030   -9.5790   12.1380 N.ar      1 HDT1299     0.0000 
     16 C18         9.8970   -9.7540   10.3420 C.ar      1 HDT1299     0.0000 
     17 C19         9.1070   -9.5620    9.2060 C.ar      1 HDT1299     0.0000 
     18 C20         8.1190  -10.4800    8.8680 C.ar      1 HDT1299     0.0000 
     19 O26         6.0810   -9.4490    7.9890 O.2       1 HDT1299     0.0000 
     20 S23         7.1980  -10.2430    7.5750 S.o2      1 HDT1299     0.0000 
     21 O25         6.7240  -11.4980    7.0520 O.2       1 HDT1299     0.0000 
     22 N24         8.0040   -9.4540    6.4390 N.pl3     1 HDT1299     0.0000 
     23 C21         7.9130  -11.5920    9.6840 C.ar      1 HDT1299     0.0000 
     24 N16        10.4440  -11.0810   12.3350 N.pl3     1 HDT1299     0.0000 
     25 N13        11.9590  -10.8300   14.0680 N.ar      1 HDT1299     0.0000 
     26 N7         15.5600   -6.4310   11.4210 N.pl3     1 HDT1299     0.0000 
     27 H           8.5290  -12.5933   11.4312 H         1 HDT1299     0.0000 
     28 H          13.0222   -9.5337    9.9215 H         1 HDT1299     0.0000 
     29 H          15.9720   -5.9255    8.6737 H         1 HDT1299     0.0000 
     30 H          14.8944   -7.2565    6.9511 H         1 HDT1299     0.0000 
     31 H          13.4081   -9.0572    7.5784 H         1 HDT1299     0.0000 
     32 H          14.6801   -9.0169   14.3583 H         1 HDT1299     0.0000 
     33 H          15.1525   -6.9219   13.3521 H         1 HDT1299     0.0000 
     34 H          13.3493  -10.6008   15.5940 H         1 HDT1299     0.0000 
     35 H          10.6131   -9.0551   10.5886 H         1 HDT1299     0.0000 
     36 H           9.2602   -8.7310    8.6147 H         1 HDT1299     0.0000 
     37 H           8.4702  -10.0184    5.7578 H         1 HDT1299     0.0000 
     38 H           7.9809   -8.4559    6.4957 H         1 HDT1299     0.0000 
     39 H           7.1807  -12.2725    9.4489 H         1 HDT1299     0.0000 
     40 H          10.0187  -11.8836   12.9764 H         1 HDT1299     0.0000 
     41 H          16.1731   -5.6889   11.4275 H         1 HDT1299     0.0000 
@<TRIPOS>BOND
     1   13    1 ar   
     2   23    1 ar   
     3   27    1 1    
     4    3    2 1    
     5    4    2 1    
     6   10    2 1    
     7    7    3 2    
     8   28    3 1    
     9    5    4 1    
    10   26    4 2    
    11    6    5 2    
    12   29    5 1    
    13    7    6 1    
    14   30    6 1    
    15   31    7 1    
    16    9    8 ar   
    17   12    8 ar   
    18   32    8 1    
    19   10    9 1    
    20   15    9 ar   
    21   11   10 2    
    22   26   11 1    
    23   33   11 1    
    24   25   12 ar   
    25   34   12 1    
    26   16   13 ar   
    27   24   13 1    
    28   15   14 ar   
    29   24   14 1    
    30   25   14 ar   
    31   17   16 ar   
    32   35   16 1    
    33   18   17 ar   
    34   36   17 1    
    35   20   18 1    
    36   23   18 ar   
    37   20   19 2    
    38   21   20 2    
    39   22   20 1    
    40   37   22 1    
    41   38   22 1    
    42   39   23 1    
    43   40   24 1    
    44   41   26 1    
@<TRIPOS>SUBSTRUCTURE
     1 HDT1299     1 GROUP   
@<TRIPOS>SET

