#    Name: 4hge_15V_2_INTS_M
#    Modification time : Tue Mar 25 01:01:09 2014

@<TRIPOS>MOLECULE
4hge_15V_2_INTS_M
   50     0     6     0     0
SMALL
NO_CHARGES


@<TRIPOS>ATOM
      1 CA         52.6085   26.3860  -39.5035 C.3       2 GLC5        0.0000 
      2 CA         53.8880   24.5420  -39.6290 C.3       6 GLL5        0.0000 
      3 CA         51.3290   28.2300  -39.3780 C.3       4 GLP5        0.0000 
      4 CA         56.8210   21.9445  -39.6875 C.3       2 GLC5        0.0000 
      5 CA         55.1580   21.4230  -38.9920 C.3       6 GLL5        0.0000 
      6 CA         58.4840   22.4660  -40.3830 C.3       4 GLP5        0.0000 
      7 CA         58.2210   21.4245  -38.5165 C.3       2 GLC5        0.0000 
      8 CA         57.9580   20.3830  -36.6500 C.3       6 GLL5        0.0000 
      9 CA         58.7275   22.8855  -38.4295 C.3       2 GLC5        0.0000 
     10 CA         58.9710   23.3050  -36.4760 C.3       6 GLL5        0.0000 
     11 CA         54.4530   23.0895  -36.7670 C.3       2 GLC5        0.0000 
     12 CA         55.1290   22.7910  -38.7630 C.3       6 GLL5        0.0000 
     13 CA         53.7770   23.3880  -34.7710 C.3       4 GLP5        0.0000 
     14 CA         53.1070   23.4050  -38.3510 C.3       2 GLC5        0.0000 
     15 CA         51.0850   24.0190  -37.9390 C.3       4 GLP5        0.0000 
     16 CA         56.1035   23.5815  -40.0110 C.3       2 GLC5        0.0000 
     17 CA         57.0780   24.3720  -41.2590 C.3       4 GLP5        0.0000 
     18 N          52.9345   21.9575  -41.6595 N.am      1 SEC2        0.0000 
     19 N          53.5880   22.2670  -40.3290 N.am      5 SEL2        0.0000 
     20 N          52.2810   21.6480  -42.9900 N.am      3 SEP2        0.0000 
     21 CA         58.8310   23.1885  -30.6145 C.3       2 GLC5        0.0000 
     22 CA         58.7640   24.6450  -32.0930 C.3       6 GLL5        0.0000 
     23 CA         58.8980   21.7320  -29.1360 C.3       4 GLP5        0.0000 
     24 CA         60.1750   24.5475  -30.5855 C.3       2 GLC5        0.0000 
     25 CA         61.5860   24.4500  -29.0780 C.3       4 GLP5        0.0000 
     26 CA         57.1855   24.4200  -30.5345 C.3       2 GLC5        0.0000 
     27 CA         55.6070   24.1950  -28.9760 C.3       4 GLP5        0.0000 
     28 CA         58.2365   21.1890  -33.0905 C.3       2 GLC5        0.0000 
     29 CA         58.8040   22.7570  -34.1640 C.3       6 GLL5        0.0000 
     30 CA         57.6690   19.6210  -32.0170 C.3       4 GLP5        0.0000 
     31 CA         57.1075   23.8330  -33.8830 C.3       2 GLC5        0.0000 
     32 CA         55.4110   24.9090  -33.6020 C.3       4 GLP5        0.0000 
     33 CA         53.8735   26.7115  -37.6885 C.3       2 GLC5        0.0000 
     34 CA         54.5920   25.4170  -38.8090 C.3       6 GLL5        0.0000 
     35 CA         53.1550   28.0060  -36.5680 C.3       4 GLP5        0.0000 
     36 CA         52.6625   24.4992  -38.5790 C.3       2 GLC5        0.0000 
     37 CA         54.3185   26.1887  -40.8100 C.3       2 GLC5        0.0000 
     38 CA         54.3970   27.3980  -42.4010 C.3       4 GLP5        0.0000 
     39 CA         55.6590   24.6758  -40.2390 C.3       2 GLC5        0.0000 
     40 CA         57.2007   24.8822  -34.5442 C.3       2 GLC5        0.0000 
     41 CA         59.0180   24.6550  -36.1530 C.3       6 GLL5        0.0000 
     42 CA         59.7002   26.6163  -35.9868 C.3       2 GLC5        0.0000 
     43 CA         58.9630   25.0560  -34.8200 C.3       6 GLL5        0.0000 
     44 CA         60.4100   28.3770  -36.4870 C.3       4 GLP5        0.0000 
     45 CA         53.9098   21.0635  -37.7493 C.3       2 GLC5        0.0000 
     46 CA         52.6760   20.0200  -36.6210 C.3       4 GLP5        0.0000 
     47 CA         56.2520   19.4217  -35.8338 C.3       2 GLC5        0.0000 
     48 CA         54.3940   19.1320  -35.0000 C.3       4 GLP5        0.0000 
     49 CA         57.1103   24.6425  -33.2782 C.3       2 GLC5        0.0000 
     50 CA         58.8550   24.1070  -33.8160 C.3       6 GLL5        0.0000 
@<TRIPOS>BOND
@<TRIPOS>SUBSTRUCTURE
     1 SEC2       18 GROUP        1 X    SEC  0     ROOT SEC X 2
     2 GLC5        1 GROUP        1 X    GLC  0     **** GLC X 6
     3 SEP2       20 GROUP        1 Y    SEP  0     ROOT SEP Y 9
     4 GLP5        3 GROUP        1 Y    GLP  0     **** GLP Y 13
     5 SEL2       19 GROUP        1 Z    SEL  0     ROOT SEL Z 16
     6 GLL5        2 GROUP        1 Z    GLL  0     **** GLL Z 20
@<TRIPOS>SET

