#    Name: 4hge_15V_2_ligand
#    Modification time : Tue Mar 25 01:01:09 2014

@<TRIPOS>MOLECULE
4hge_15V_2_ligand
   38    41     1     0     0
SMALL
NO_CHARGES


@<TRIPOS>ATOM
      1 C4         53.8880   24.5420  -39.6290 C.2       1 15V1201     0.0000 
      2 C14        59.0180   24.6550  -36.1530 C.ar      1 15V1201     0.0000 
      3 C5         55.1580   21.4230  -38.9920 C.2       1 15V1201     0.0000 
      4 C6         54.2160   21.1350  -39.9600 C.2       1 15V1201     0.0000 
      5 C11        58.8520   22.3100  -35.5060 C.ar      1 15V1201     0.0000 
      6 C7         56.1360   20.5220  -38.2810 C.2       1 15V1201     0.0000 
      7 C8         59.3350   18.9290  -35.7850 C.2       1 15V1201     0.0000 
      8 C9         58.2620   19.0400  -36.6850 C.2       1 15V1201     0.0000 
      9 C10        57.9580   20.3830  -36.6500 C.2       1 15V1201     0.0000 
     10 C12        59.9240   17.5600  -35.5860 C.3       1 15V1201     0.0000 
     11 C13        58.9710   23.3050  -36.4760 C.ar      1 15V1201     0.0000 
     12 N1         55.8630   23.5920  -37.9560 N.2       1 15V1201     0.0000 
     13 N2         54.1870   23.2420  -39.5610 N.pl3     1 15V1201     0.0000 
     14 C3         55.1290   22.7910  -38.7630 C.2       1 15V1201     0.0000 
     15 N3         53.5880   22.2670  -40.3290 N.2       1 15V1201     0.0000 
     16 CL1        58.7640   24.6450  -32.0930 Cl        1 15V1201     0.0000 
     17 C16        58.8550   24.1070  -33.8160 C.ar      1 15V1201     0.0000 
     18 C15        58.9630   25.0560  -34.8200 C.ar      1 15V1201     0.0000 
     19 C17        58.8040   22.7570  -34.1640 C.ar      1 15V1201     0.0000 
     20 N5         58.8130   21.0030  -35.8260 N.pl3     1 15V1201     0.0000 
     21 N4         59.6920   20.1040  -35.2340 N.2       1 15V1201     0.0000 
     22 N6         56.9830   21.0280  -37.3790 N.am      1 15V1201     0.0000 
     23 O1         56.1470   19.3440  -38.6050 O.2       1 15V1201     0.0000 
     24 C2         55.5880   24.9160  -37.9650 C.2       1 15V1201     0.0000 
     25 C1         54.5920   25.4170  -38.8090 C.2       1 15V1201     0.0000 
     26 H          53.1672   24.9087  -40.2569 H         1 15V1201     0.0000 
     27 H          59.0935   25.3609  -36.8974 H         1 15V1201     0.0000 
     28 H          54.0479   20.2475  -40.3072 H         1 15V1201     0.0000 
     29 H          57.8706   18.3689  -37.1706 H         1 15V1201     0.0000 
     30 H          59.0265   23.0226  -37.4798 H         1 15V1201     0.0000 
     31 H          59.0027   26.0562  -34.5846 H         1 15V1201     0.0000 
     32 H          58.7273   22.0406  -33.4098 H         1 15V1201     0.0000 
     33 H          56.9019   22.1088  -37.1808 H         1 15V1201     0.0000 
     34 H          56.1020   25.5741  -37.3562 H         1 15V1201     0.0000 
     35 H          54.3858   26.4188  -38.8205 H         1 15V1201     0.0000 
     36 H          60.2808   17.1815  -36.4400 H         1 15V1201     0.0000 
     37 H          60.6806   17.5727  -34.9323 H         1 15V1201     0.0000 
     38 H          59.2470   16.9114  -35.2382 H         1 15V1201     0.0000 
@<TRIPOS>BOND
     1   13    1 1    
     2   25    1 2    
     3   26    1 1    
     4   11    2 ar   
     5   18    2 ar   
     6   27    2 1    
     7    4    3 1    
     8    6    3 1    
     9   14    3 2    
    10   15    4 2    
    11   28    4 1    
    12   11    5 ar   
    13   19    5 ar   
    14   20    5 1    
    15   22    6 am   
    16   23    6 2    
    17    8    7 1    
    18   10    7 1    
    19   21    7 2    
    20    9    8 2    
    21   29    8 1    
    22   20    9 1    
    23   22    9 1    
    24   36   10 1    
    25   37   10 1    
    26   38   10 1    
    27   30   11 1    
    28   14   12 1    
    29   24   12 2    
    30   14   13 1    
    31   15   13 1    
    32   17   16 1    
    33   18   17 ar   
    34   19   17 ar   
    35   31   18 1    
    36   32   19 1    
    37   21   20 1    
    38   33   22 1    
    39   25   24 1    
    40   34   24 1    
    41   35   25 1    
@<TRIPOS>SUBSTRUCTURE
     1 15V1201     1 GROUP   
@<TRIPOS>SET

