#    Name: 2znq_401_2_INTS_M
#    Modification time : Tue Mar 25 10:53:45 2014

@<TRIPOS>MOLECULE
2znq_401_2_INTS_M
   93     0     6     0     0
SMALL
NO_CHARGES


@<TRIPOS>ATOM
      1 N          22.5985  -33.7180   15.7300 N.am      1 SEC2        0.0000 
      2 N          23.4890  -34.5210   14.5360 N.am      5 SEL2        0.0000 
      3 N          21.7080  -32.9150   16.9240 N.am      3 SEP2        0.0000 
      4 N          23.9375  -33.9410   15.6690 N.am      1 SEC2        0.0000 
      5 N          24.3860  -33.3610   16.8020 N.am      3 SEP2        0.0000 
      6 N          20.4365  -33.3755   13.7145 N.am      1 SEC2        0.0000 
      7 N          21.7030  -33.1860   14.2810 N.am      5 SEL2        0.0000 
      8 N          19.1700  -33.5650   13.1480 N.am      3 SEP2        0.0000 
      9 N          21.7055  -33.0505   15.6025 N.am      1 SEC2        0.0000 
     10 CA         20.1805  -33.7965   13.2025 C.3       2 GLC5        0.0000 
     11 CA         21.7100  -35.3610   13.1640 C.3       6 GLL5        0.0000 
     12 CA         18.6510  -32.2320   13.2410 C.3       4 GLP5        0.0000 
     13 CA         21.6160  -33.8385   10.5430 C.3       2 GLC5        0.0000 
     14 CA         22.3910  -35.3550   11.7770 C.3       6 GLL5        0.0000 
     15 CA         20.8410  -32.3220    9.3090 C.3       4 GLP5        0.0000 
     16 CA         25.3340  -35.4960   10.7055 C.3       2 GLC5        0.0000 
     17 CA         23.8960  -35.3270   11.7700 C.3       6 GLL5        0.0000 
     18 CA         26.7720  -35.6650    9.6410 C.3       4 GLP5        0.0000 
     19 CA         25.2255  -34.3700   12.3475 C.3       2 GLC5        0.0000 
     20 CA         26.5550  -33.4130   12.9250 C.3       4 GLP5        0.0000 
     21 CA         21.1640  -37.6580   15.4570 C.3       2 GLC5        0.0000 
     22 CA         21.8690  -36.6680   13.9480 C.3       6 GLL5        0.0000 
     23 CA         20.4590  -38.6480   16.9660 C.3       4 GLP5        0.0000 
     24 CA         23.3590  -36.5745   15.5660 C.3       2 GLC5        0.0000 
     25 CA         24.8490  -36.4810   17.1840 C.3       4 GLP5        0.0000 
     26 CA         20.6570  -37.2545   10.6850 C.3       2 GLC5        0.0000 
     27 CA         20.0410  -37.8150   12.6160 C.3       6 GLL5        0.0000 
     28 CA         21.2730  -36.6940    8.7540 C.3       4 GLP5        0.0000 
     29 CA         22.3070  -41.3010   11.2455 C.3       2 GLC5        0.0000 
     30 CA         21.3470  -40.2610   12.8420 C.3       6 GLL5        0.0000 
     31 CA         23.2670  -42.3410    9.6490 C.3       4 GLP5        0.0000 
     32 CA         21.2985  -41.3025   14.4775 C.3       2 GLC5        0.0000 
     33 CA         21.2500  -42.3440   16.1130 C.3       4 GLP5        0.0000 
     34 CA         23.6100  -38.9205   12.3730 C.3       2 GLC5        0.0000 
     35 CA         21.9030  -39.1160   13.4240 C.3       6 GLL5        0.0000 
     36 CA         25.3170  -38.7250   11.3220 C.3       4 GLP5        0.0000 
     37 CA         22.5315  -39.9495   14.9700 C.3       2 GLC5        0.0000 
     38 CA         23.1600  -40.7830   16.5160 C.3       4 GLP5        0.0000 
     39 CA         18.3535  -42.7005   12.9120 C.3       2 GLC5        0.0000 
     40 CA         20.1140  -42.5440   11.6120 C.3       6 GLL5        0.0000 
     41 CA         16.5930  -42.8570   14.2120 C.3       4 GLP5        0.0000 
     42 CA         21.6905  -42.4425   10.6305 C.3       2 GLC5        0.0000 
     43 CA         20.4970  -43.1435   13.6335 C.3       2 GLC5        0.0000 
     44 CA         20.8800  -43.7430   15.6550 C.3       4 GLP5        0.0000 
     45 CA         16.6695  -37.3950   11.0075 C.3       2 GLC5        0.0000 
     46 CA         18.1740  -38.8430   11.2870 C.3       6 GLL5        0.0000 
     47 CA         15.1650  -35.9470   10.7280 C.3       4 GLP5        0.0000 
     48 CA         16.7390  -39.8540   12.3820 C.3       2 GLC5        0.0000 
     49 CA         15.3040  -40.8650   13.4770 C.3       4 GLP5        0.0000 
     50 CA         17.5650  -42.4230    6.8165 C.3       2 GLC5        0.0000 
     51 CA         18.5920  -40.6700    5.8660 C.3       6 GLL5        0.0000 
     52 CA         16.5380  -44.1760    7.7670 C.3       4 GLP5        0.0000 
     53 CA         19.5265  -43.1520    7.5955 C.3       2 GLC5        0.0000 
     54 CA         19.0640  -41.0850    8.1800 C.3       6 GLL5        0.0000 
     55 CA         19.9890  -45.2190    7.0110 C.3       4 GLP5        0.0000 
     56 CA         18.5245  -39.8310    0.6375 C.3       2 GLC5        0.0000 
     57 CA         18.5730  -39.1930    2.7260 C.3       6 GLL5        0.0000 
     58 CA         18.4760  -40.4690   -1.4510 C.3       4 GLP5        0.0000 
     59 CA         20.6090  -38.7270    2.9770 C.3       2 GLC5        0.0000 
     60 CA         22.6450  -38.2610    3.2280 C.3       4 GLP5        0.0000 
     61 CA         18.0085  -37.6250    2.2265 C.3       2 GLC5        0.0000 
     62 CA         17.4440  -36.0570    1.7270 C.3       4 GLP5        0.0000 
     63 CA         16.0025  -41.6890    1.3965 C.3       2 GLC5        0.0000 
     64 CA         16.9010  -40.4820    2.7640 C.3       6 GLL5        0.0000 
     65 CA         15.1040  -42.8960    0.0290 C.3       4 GLP5        0.0000 
     66 CA         17.6885  -40.4755    0.6565 C.3       2 GLC5        0.0000 
     67 CA         20.1495  -42.7325    4.2000 C.3       2 GLC5        0.0000 
     68 CA         18.8370  -41.2610    3.1200 C.3       6 GLL5        0.0000 
     69 CA         21.4620  -44.2040    5.2800 C.3       4 GLP5        0.0000 
     70 CA         22.2082  -36.0175   10.2637 C.3       2 GLC5        0.0000 
     71 CA         24.2302  -37.0330   11.5477 C.3       2 GLC5        0.0000 
     72 CA         20.1241  -38.8143    9.9916 C.3       2 GLC5        0.0000 
     73 CA         19.4720  -38.9730   12.0240 C.3       6 GLL5        0.0000 
     74 CA         21.2590  -38.4150    8.2980 C.3       4 GLP5        0.0000 
     75 CA         20.2283  -40.3395    4.9495 C.3       2 GLC5        0.0000 
     76 CA         17.8770  -39.9400    4.8680 C.3       6 GLL5        0.0000 
     77 CA         22.2220  -40.3740    4.5320 C.3       4 GLP5        0.0000 
     78 CA         17.2677  -41.8765    4.4740 C.3       2 GLC5        0.0000 
     79 CA         16.3010  -43.4480    3.5810 C.3       4 GLP5        0.0000 
     80 CA         17.8675  -37.4024    4.8674 C.3       2 GLC5        0.0000 
     81 CA         16.7740  -38.6590    6.6150 C.3       6 GLL5        0.0000 
     82 CA         18.6350  -35.7560    3.8930 C.3       4 GLP5        0.0000 
     83 CA         20.3337  -40.5575    3.8945 C.3       2 GLC5        0.0000 
     84 CA         18.0540  -40.2210    3.3940 C.3       6 GLL5        0.0000 
     85 CA         15.8832  -40.8233    4.2195 C.3       2 GLC5        0.0000 
     86 CA         14.2890  -41.2950    5.3600 C.3       4 GLP5        0.0000 
     87 CA         19.9603  -39.5473    7.8556 C.3       2 GLC5        0.0000 
     88 CA         17.1915  -41.5542    8.6892 C.3       2 GLC5        0.0000 
     89 CA         15.8880  -42.6270    9.5750 C.3       4 GLP5        0.0000 
     90 CA         16.3006  -39.5388    1.9425 C.3       2 GLC5        0.0000 
     91 CA         14.9940  -38.9830    0.9730 C.3       4 GLP5        0.0000 
     92 CA         17.2291  -42.1271    3.3403 C.3       2 GLC5        0.0000 
     93 CA         15.9653  -40.4681    5.5695 C.3       2 GLC5        0.0000 
@<TRIPOS>BOND
@<TRIPOS>SUBSTRUCTURE
     1 SEC2        1 GROUP        1 X    SEC  0     ROOT SEC X 2
     2 GLC5       10 GROUP        1 X    GLC  0     **** GLC X 6
     3 SEP2        3 GROUP        1 Y    SEP  0     ROOT SEP Y 9
     4 GLP5       12 GROUP        1 Y    GLP  0     **** GLP Y 13
     5 SEL2        2 GROUP        1 Z    SEL  0     ROOT SEL Z 16
     6 GLL5       11 GROUP        1 Z    GLL  0     **** GLL Z 20
@<TRIPOS>SET

