#    Name: 2znq_401_2_ligand
#    Modification time : Tue Mar 25 10:53:46 2014

@<TRIPOS>MOLECULE
2znq_401_2_ligand
   50    51     1     0     0
SMALL
NO_CHARGES


@<TRIPOS>ATOM
      1 O22        23.4890  -34.5210   14.5360 O.co2     1 401923      0.0000 
      2 O23        21.7030  -33.1860   14.2810 O.co2     1 401923      0.0000 
      3 C1         22.2610  -34.2470   14.0300 C.2       1 401923      0.0000 
      4 C2         21.7100  -35.3610   13.1640 C.3       1 401923      0.0000 
      5 C3         22.3910  -35.3550   11.7770 C.3       1 401923      0.0000 
      6 C4         23.8960  -35.3270   11.7700 C.3       1 401923      0.0000 
      7 C5         21.8690  -36.6680   13.9480 C.3       1 401923      0.0000 
      8 C6         21.2590  -37.8800   13.3190 C.ar      1 401923      0.0000 
      9 C7         20.0410  -37.8150   12.6160 C.ar      1 401923      0.0000 
     10 C8         19.4720  -38.9730   12.0240 C.ar      1 401923      0.0000 
     11 C9         20.1370  -40.1950   12.1430 C.ar      1 401923      0.0000 
     12 C10        21.3470  -40.2610   12.8420 C.ar      1 401923      0.0000 
     13 C11        21.9030  -39.1160   13.4240 C.ar      1 401923      0.0000 
     14 O30        19.5160  -41.2490   11.5440 O.3       1 401923      0.0000 
     15 C21        20.1140  -42.5440   11.6120 C.3       1 401923      0.0000 
     16 C12        18.1740  -38.8430   11.2870 C.3       1 401923      0.0000 
     17 N24        18.2960  -39.1250    9.8760 N.am      1 401923      0.0000 
     18 C13        17.2210  -39.0630    9.0290 C.2       1 401923      0.0000 
     19 O25        16.0850  -38.7720    9.3930 O.2       1 401923      0.0000 
     20 C14        17.4700  -39.3760    7.6110 C.ar      1 401923      0.0000 
     21 C15        18.3820  -40.3800    7.2430 C.ar      1 401923      0.0000 
     22 C16        18.5920  -40.6700    5.8660 C.ar      1 401923      0.0000 
     23 C17        17.8770  -39.9400    4.8680 C.ar      1 401923      0.0000 
     24 C18        16.9750  -38.9370    5.2690 C.ar      1 401923      0.0000 
     25 C19        16.7740  -38.6590    6.6150 C.ar      1 401923      0.0000 
     26 C20        18.0540  -40.2210    3.3940 C.3       1 401923      0.0000 
     27 F26        19.0640  -41.0850    8.1800 F         1 401923      0.0000 
     28 F27        18.5730  -39.1930    2.7260 F         1 401923      0.0000 
     29 F28        16.9010  -40.4820    2.7640 F         1 401923      0.0000 
     30 F29        18.8370  -41.2610    3.1200 F         1 401923      0.0000 
     31 H          20.6445  -35.1746   13.0290 H         1 401923      0.0000 
     32 H          22.0020  -34.4788   11.2094 H         1 401923      0.0000 
     33 H          22.0350  -36.2505   11.2180 H         1 401923      0.0000 
     34 H          21.4353  -36.5173   14.9622 H         1 401923      0.0000 
     35 H          22.9562  -36.8418   14.1126 H         1 401923      0.0000 
     36 H          19.5508  -36.9149   12.5269 H         1 401923      0.0000 
     37 H          21.8359  -41.1649   12.9298 H         1 401923      0.0000 
     38 H          22.7949  -39.1858   13.9342 H         1 401923      0.0000 
     39 H          17.7826  -37.8158   11.4463 H         1 401923      0.0000 
     40 H          17.4345  -39.5251   11.7578 H         1 401923      0.0000 
     41 H          19.2380  -39.3789    9.5242 H         1 401923      0.0000 
     42 H          19.2487  -41.3944    5.5906 H         1 401923      0.0000 
     43 H          16.4612  -38.4068    4.5492 H         1 401923      0.0000 
     44 H          16.1114  -37.9229    6.8989 H         1 401923      0.0000 
     45 H          24.2844  -36.1230   12.2342 H         1 401923      0.0000 
     46 H          24.2630  -35.3222   10.8398 H         1 401923      0.0000 
     47 H          24.2545  -34.5151   12.2308 H         1 401923      0.0000 
     48 H          21.0247  -42.5547   11.1991 H         1 401923      0.0000 
     49 H          20.2166  -42.8566   12.5563 H         1 401923      0.0000 
     50 H          19.5672  -43.2311   11.1336 H         1 401923      0.0000 
@<TRIPOS>BOND
     1    3    1 ar   
     2    3    2 ar   
     3    4    3 1    
     4    5    4 1    
     5    7    4 1    
     6   31    4 1    
     7    6    5 1    
     8   32    5 1    
     9   33    5 1    
    10   45    6 1    
    11   46    6 1    
    12   47    6 1    
    13    8    7 1    
    14   34    7 1    
    15   35    7 1    
    16    9    8 ar   
    17   13    8 ar   
    18   10    9 ar   
    19   36    9 1    
    20   11   10 ar   
    21   16   10 1    
    22   12   11 ar   
    23   14   11 1    
    24   13   12 ar   
    25   37   12 1    
    26   38   13 1    
    27   15   14 1    
    28   48   15 1    
    29   49   15 1    
    30   50   15 1    
    31   17   16 1    
    32   39   16 1    
    33   40   16 1    
    34   18   17 am   
    35   41   17 1    
    36   19   18 2    
    37   20   18 1    
    38   21   20 ar   
    39   25   20 ar   
    40   22   21 ar   
    41   27   21 1    
    42   23   22 ar   
    43   42   22 1    
    44   24   23 ar   
    45   26   23 1    
    46   25   24 ar   
    47   43   24 1    
    48   44   25 1    
    49   28   26 1    
    50   29   26 1    
    51   30   26 1    
@<TRIPOS>SUBSTRUCTURE
     1 401923      1 GROUP   
@<TRIPOS>SET

