#    Name: 2gtn_LIE_1_INTS_M
#    Modification time : Tue Mar 25 15:07:10 2014

@<TRIPOS>MOLECULE
2gtn_LIE_1_INTS_M
   90     0     6     0     0
SMALL
NO_CHARGES


@<TRIPOS>ATOM
      1 CA         -3.3750   -3.9975   23.2655 C.3       2 GLC5        0.0000 
      2 CA         -1.6120   -3.2020   22.6350 C.3       6 GLL5        0.0000 
      3 CA         -5.1380   -4.7930   23.8960 C.3       4 GLP5        0.0000 
      4 CA         -0.6365   -5.0845   22.3705 C.3       2 GLC5        0.0000 
      5 CA          0.3390   -6.9670   22.1060 C.3       4 GLP5        0.0000 
      6 CA          0.3045   -3.5160   21.7810 C.3       2 GLC5        0.0000 
      7 CA          2.2210   -3.8300   20.9270 C.3       4 GLP5        0.0000 
      8 CA         -4.1690    2.0335   21.7055 C.3       2 GLC5        0.0000 
      9 CA         -2.3840    1.0750   21.9590 C.3       6 GLL5        0.0000 
     10 CA         -5.9540    2.9920   21.4520 C.3       4 GLP5        0.0000 
     11 CA         -3.6280    0.5365   25.0905 C.3       2 GLC5        0.0000 
     12 CA         -2.9800    0.9110   23.3360 C.3       6 GLL5        0.0000 
     13 CA         -4.2760    0.1620   26.8450 C.3       4 GLP5        0.0000 
     14 CA         -4.8220    0.8410   22.8355 C.3       2 GLC5        0.0000 
     15 CA         -6.6640    0.7710   22.3350 C.3       4 GLP5        0.0000 
     16 CA         -2.6680    2.4675   24.3470 C.3       2 GLC5        0.0000 
     17 CA         -2.3560    4.0240   25.3580 C.3       4 GLP5        0.0000 
     18 CA         -6.3690    0.3005   20.5510 C.3       2 GLC5        0.0000 
     19 CA         -6.0740   -0.1700   18.7670 C.3       6 GLL5        0.0000 
     20 CA         -8.1800   -0.4815   19.0640 C.3       2 GLC5        0.0000 
     21 CA        -10.2860   -0.7930   19.3610 C.3       4 GLP5        0.0000 
     22 CA         -2.6800   -0.8305   15.2195 C.3       2 GLC5        0.0000 
     23 CA         -3.8640    0.9840   15.4900 C.3       6 GLL5        0.0000 
     24 CA         -1.4960   -2.6450   14.9490 C.3       4 GLP5        0.0000 
     25 CA         -1.5420    0.2535   17.6745 C.3       2 GLC5        0.0000 
     26 CA         -3.3050    1.0990   16.7490 C.3       6 GLL5        0.0000 
     27 CA          0.2210   -0.5920   18.6000 C.3       4 GLP5        0.0000 
     28 CA         -1.3375   -3.8180   18.7520 C.3       2 GLC5        0.0000 
     29 CA         -2.4180   -3.5680   20.4920 C.3       6 GLL5        0.0000 
     30 CA         -0.2570   -4.0680   17.0120 C.3       4 GLP5        0.0000 
     31 CA         -3.4540   -5.2280   21.0355 C.3       2 GLC5        0.0000 
     32 CA         -4.4900   -6.8880   21.5790 C.3       4 GLP5        0.0000 
     33 CA         -1.0565   -5.2730   20.5280 C.3       2 GLC5        0.0000 
     34 CA          0.3050   -6.9780   20.5640 C.3       4 GLP5        0.0000 
     35 CA          0.5280    0.7780   21.0870 C.3       2 GLC5        0.0000 
     36 CA         -0.9250    1.5590   21.9580 C.3       6 GLL5        0.0000 
     37 CA          1.9810   -0.0030   20.2160 C.3       4 GLP5        0.0000 
     38 CA          0.4290    2.7780   21.6840 C.3       2 GLC5        0.0000 
     39 CA          1.7830    3.9970   21.4100 C.3       4 GLP5        0.0000 
     40 CA         -0.9615    2.4740   23.8430 C.3       2 GLC5        0.0000 
     41 CA         -0.9980    3.3890   25.7280 C.3       4 GLP5        0.0000 
     42 N          -2.0120   -5.5190   21.9665 N.am      1 SEC2        0.0000 
     43 N          -1.8970   -4.0760   21.6350 N.am      5 SEL2        0.0000 
     44 N          -2.1270   -6.9620   22.2980 N.am      3 SEP2        0.0000 
     45 N          -1.1300   -5.1580   24.3520 N.am      1 SEC2        0.0000 
     46 N          -1.0740   -3.6730   23.7970 N.am      5 SEL2        0.0000 
     47 N          -1.1860   -6.6430   24.9070 N.am      3 SEP2        0.0000 
     48 CA         -3.8290   -4.2725   24.9085 C.3       2 GLC5        0.0000 
     49 CA         -2.5200   -3.7520   25.9210 C.3       6 GLL5        0.0000 
     50 CA          1.5900   -2.8455   22.2565 C.3       2 GLC5        0.0000 
     51 CA          0.9590   -1.8610   23.5860 C.3       6 GLL5        0.0000 
     52 CA          1.4700   -0.9320   21.9010 C.3       2 GLC5        0.0000 
     53 CA         -3.1552   -1.5693   26.3892 C.3       2 GLC5        0.0000 
     54 CA         -1.5490   -2.8490   25.9460 C.3       6 GLL5        0.0000 
     55 CA         -0.4780    0.7670   26.6738 C.3       2 GLC5        0.0000 
     56 CA          0.5280   -0.9750   25.7670 C.3       6 GLL5        0.0000 
     57 CA         -1.0780    2.5480   27.0100 C.3       4 GLP5        0.0000 
     58 CA         -5.9897   -1.4072   19.4140 C.3       2 GLC5        0.0000 
     59 CA         -6.2710   -2.8180   20.6010 C.3       4 GLP5        0.0000 
     60 CA         -5.2640   -1.3890   16.0050 C.3       2 GLC5        0.0000 
     61 CA         -5.3430    0.1770   17.6870 C.3       6 GLL5        0.0000 
     62 CA         -4.9030   -2.8810   14.9550 C.3       4 GLP5        0.0000 
     63 CA         -6.7599    1.4531   17.6625 C.3       2 GLC5        0.0000 
     64 CA         -5.9070    0.0290   16.4230 C.3       6 GLL5        0.0000 
     65 CA         -7.7120    2.8900   18.0000 C.3       4 GLP5        0.0000 
     66 CA         -6.9900    0.8462   14.8027 C.3       2 GLC5        0.0000 
     67 CA         -8.4570    1.4560   13.7330 C.3       4 GLP5        0.0000 
     68 CA         -5.2633    2.5390   16.1915 C.3       2 GLC5        0.0000 
     69 CA         -5.1390    0.4440   15.3220 C.3       6 GLL5        0.0000 
     70 CA         -6.0250    4.3640   16.9770 C.3       4 GLP5        0.0000 
     71 CA         -4.4207    1.1575   13.6075 C.3       2 GLC5        0.0000 
     72 CA         -4.3400    1.6010   11.8090 C.3       4 GLP5        0.0000 
     73 CA         -4.7022   -1.0835   15.1805 C.3       2 GLC5        0.0000 
     74 CA         -4.8520    2.6322   17.1363 C.3       2 GLC5        0.0000 
     75 CA         -4.3614   -2.7498   20.6420 C.3       2 GLC5        0.0000 
     76 CA         -2.3210   -1.3800   21.3880 C.3       6 GLL5        0.0000 
     77 CA         -1.1154   -1.6368   19.6415 C.3       2 GLC5        0.0000 
     78 CA         -2.6500   -2.2100   20.3600 C.3       6 GLL5        0.0000 
     79 CA         -1.5732   -4.9496   26.0055 C.3       2 GLC5        0.0000 
     80 CA         -0.7850   -2.7840   24.8120 C.3       6 GLL5        0.0000 
     81 CA         -1.3030   -6.6150   26.3610 C.3       4 GLP5        0.0000 
     82 CA         -0.0628   -3.8776   26.3465 C.3       2 GLC5        0.0000 
     83 CA          1.7180   -4.4710   27.0430 C.3       4 GLP5        0.0000 
     84 CA         -2.5393   -0.6767   26.9000 C.3       2 GLC5        0.0000 
     85 CA         -1.3210   -1.9780   27.0020 C.3       6 GLL5        0.0000 
     86 CA          0.5593   -2.9835   26.8564 C.3       2 GLC5        0.0000 
     87 CA          1.1630   -3.1655   25.5972 C.3       2 GLC5        0.0000 
     88 CA          0.2570   -1.8590   24.7170 C.3       6 GLL5        0.0000 
     89 CA          2.5269   -1.3315   24.7830 C.3       2 GLC5        0.0000 
     90 CA          4.3780   -1.0240   25.1520 C.3       4 GLP5        0.0000 
@<TRIPOS>BOND
@<TRIPOS>SUBSTRUCTURE
     1 SEC2       42 GROUP        1 X    SEC  0     ROOT SEC X 2
     2 GLC5        1 GROUP        1 X    GLC  0     **** GLC X 6
     3 SEP2       44 GROUP        1 Y    SEP  0     ROOT SEP Y 9
     4 GLP5        3 GROUP        1 Y    GLP  0     **** GLP Y 13
     5 SEL2       43 GROUP        1 Z    SEL  0     ROOT SEL Z 16
     6 GLL5        2 GROUP        1 Z    GLL  0     **** GLL Z 20
@<TRIPOS>SET

