#    Name: 2gtn_LIE_1_ligand
#    Modification time : Tue Mar 25 15:07:10 2014

@<TRIPOS>MOLECULE
2gtn_LIE_1_ligand
   45    48     1     0     0
SMALL
NO_CHARGES


@<TRIPOS>ATOM
      1 C5         -1.6120   -3.2020   22.6350 C.ar      1 LIE354      0.0000 
      2 C6         -2.3210   -1.3800   21.3880 C.ar      1 LIE354      0.0000 
      3 C7         -2.3840    1.0750   21.9590 C.3       1 LIE354      0.0000 
      4 C10        -3.0640   -0.2450   19.8160 C.2       1 LIE354      0.0000 
      5 N12        -3.4760    0.8380   19.1410 N.pl3     1 LIE354      0.0000 
      6 C13        -0.7850   -2.7840   24.8120 C.ar      1 LIE354      0.0000 
      7 C15        -1.5490   -2.8490   25.9460 C.ar      1 LIE354      0.0000 
      8 C17         0.5280   -0.9750   25.7670 C.ar      1 LIE354      0.0000 
      9 C26        -2.9800    0.9110   23.3360 C.3       1 LIE354      0.0000 
     10 F40        -6.0740   -0.1700   18.7670 F         1 LIE354      0.0000 
     11 C36        -5.3430    0.1770   17.6870 C.ar      1 LIE354      0.0000 
     12 C39        -5.9070    0.0290   16.4230 C.ar      1 LIE354      0.0000 
     13 C35        -5.1390    0.4440   15.3220 C.ar      1 LIE354      0.0000 
     14 C38        -3.8640    0.9840   15.4900 C.ar      1 LIE354      0.0000 
     15 C37        -3.3050    1.0990   16.7490 C.ar      1 LIE354      0.0000 
     16 C34        -4.0530    0.7020   17.8420 C.ar      1 LIE354      0.0000 
     17 N11        -3.1510   -1.4870   19.2970 N.2       1 LIE354      0.0000 
     18 C3         -2.6500   -2.2100   20.3600 C.ar      1 LIE354      0.0000 
     19 C1         -2.4180   -3.5680   20.4920 C.ar      1 LIE354      0.0000 
     20 N8         -2.5960   -0.1390   21.0970 N.pl3     1 LIE354      0.0000 
     21 C25        -0.9250    1.5590   21.9580 C.3       1 LIE354      0.0000 
     22 N2         -1.7540   -1.8820   22.5160 N.ar      1 LIE354      0.0000 
     23 N4         -1.8970   -4.0760   21.6350 N.ar      1 LIE354      0.0000 
     24 O9         -1.0740   -3.6730   23.7970 O.3       1 LIE354      0.0000 
     25 F19        -2.5200   -3.7520   25.9210 F         1 LIE354      0.0000 
     26 C18        -1.3210   -1.9780   27.0020 C.ar      1 LIE354      0.0000 
     27 C14        -0.2840   -1.0530   26.9080 C.ar      1 LIE354      0.0000 
     28 C16         0.2570   -1.8590   24.7170 C.ar      1 LIE354      0.0000 
     29 F20         0.9590   -1.8610   23.5860 F         1 LIE354      0.0000 
     30 H          -2.9775    1.9132   21.4608 H         1 LIE354      0.0000 
     31 H          -3.3924    1.7921   19.5293 H         1 LIE354      0.0000 
     32 H           1.2793   -0.3056   25.7073 H         1 LIE354      0.0000 
     33 H          -6.8273   -0.3589   16.2963 H         1 LIE354      0.0000 
     34 H          -5.5309    0.3452   14.3698 H         1 LIE354      0.0000 
     35 H          -3.3350    1.3005   14.6594 H         1 LIE354      0.0000 
     36 H          -2.3613    1.4687   16.8693 H         1 LIE354      0.0000 
     37 H          -2.6511   -4.1968   19.6954 H         1 LIE354      0.0000 
     38 H          -1.9061   -2.0130   27.8402 H         1 LIE354      0.0000 
     39 H          -0.1048   -0.4053   27.6974 H         1 LIE354      0.0000 
     40 H          -2.5771    0.1376   23.8254 H         1 LIE354      0.0000 
     41 H          -2.8364    1.7228   23.9019 H         1 LIE354      0.0000 
     42 H          -3.9664    0.7515   23.2971 H         1 LIE354      0.0000 
     43 H          -0.3219    0.9214   22.4373 H         1 LIE354      0.0000 
     44 H          -0.5675    1.6589   21.0295 H         1 LIE354      0.0000 
     45 H          -0.8282    2.4475   22.4065 H         1 LIE354      0.0000 
@<TRIPOS>BOND
     1   22    1 ar   
     2   23    1 ar   
     3   24    1 1    
     4   18    2 ar   
     5   20    2 1    
     6   22    2 ar   
     7    9    3 1    
     8   20    3 1    
     9   21    3 1    
    10   30    3 1    
    11    5    4 1    
    12   17    4 2    
    13   20    4 1    
    14   16    5 1    
    15   31    5 1    
    16    7    6 ar   
    17   24    6 1    
    18   28    6 ar   
    19   25    7 1    
    20   26    7 ar   
    21   27    8 ar   
    22   28    8 ar   
    23   32    8 1    
    24   40    9 1    
    25   41    9 1    
    26   42    9 1    
    27   11   10 1    
    28   12   11 ar   
    29   16   11 ar   
    30   13   12 ar   
    31   33   12 1    
    32   14   13 ar   
    33   34   13 1    
    34   15   14 ar   
    35   35   14 1    
    36   16   15 ar   
    37   36   15 1    
    38   18   17 1    
    39   19   18 ar   
    40   23   19 ar   
    41   37   19 1    
    42   43   21 1    
    43   44   21 1    
    44   45   21 1    
    45   27   26 ar   
    46   38   26 1    
    47   39   27 1    
    48   29   28 1    
@<TRIPOS>SUBSTRUCTURE
     1 LIE354      1 GROUP   
@<TRIPOS>SET

