#    Name: 1i9n_IOA_1_INTS_M
#    Modification time : Tue Mar 25 06:48:50 2014

@<TRIPOS>MOLECULE
1i9n_IOA_1_INTS_M
   38     0    12     0     0
SMALL
NO_CHARGES


@<TRIPOS>ATOM
      1 CA         -2.3525    0.4730   15.2345 C.3       4 GLC5        0.0000 
      2 CA         -4.2550    1.6000   15.4550 C.3      12 GLL5        0.0000 
      3 CA         -0.4500   -0.6540   15.0140 C.3       8 GLP5        0.0000 
      4 O          -6.6465   -1.2745   15.1150 O.2       1 ALC1        0.0000 
      5 O          -5.6460   -1.3760   16.2760 O.2       9 ALL1        0.0000 
      6 O          -7.6470   -1.1730   13.9540 O.2       5 ALP1        0.0000 
      7 O          -4.7285   -2.0515   17.1455 O.2       1 ALC1        0.0000 
      8 O          -3.8110   -2.7270   18.0150 O.2       5 ALP1        0.0000 
      9 Zn         -6.3135   -1.6735   15.8375 Zn        3 ZIC7        0.0000 
     10 Zn         -5.6460   -1.3760   16.2760 Zn       11 ZIL7        0.0000 
     11 Zn         -6.9810   -1.9710   15.3990 Zn        7 ZIP7        0.0000 
     12 N          -4.1245    0.0550   18.7690 N.am      2 SEC2        0.0000 
     13 N          -5.4160    0.4830   18.1730 N.am     10 SEL2        0.0000 
     14 N          -2.8330   -0.3730   19.3650 N.am      6 SEP2        0.0000 
     15 CA         -0.0435    7.1570   16.9255 C.3       4 GLC5        0.0000 
     16 CA         -1.7210    7.7970   17.0360 C.3      12 GLL5        0.0000 
     17 CA          1.6340    6.5170   16.8150 C.3       8 GLP5        0.0000 
     18 CA         -4.2858    3.1162   16.6983 C.3       4 GLC5        0.0000 
     19 CA         -3.8580    2.6650   14.6340 C.3      12 GLL5        0.0000 
     20 CA         -4.5150    4.1000   18.3520 C.3       8 GLP5        0.0000 
     21 CA         -5.2952    3.0542   17.0128 C.3       4 GLC5        0.0000 
     22 CA         -5.6300    1.5110   15.8800 C.3      12 GLL5        0.0000 
     23 CA         -8.1785    2.8752   15.1175 C.3       4 GLC5        0.0000 
     24 CA         -6.5210    2.5060   15.4670 C.3      12 GLL5        0.0000 
     25 CA        -10.0510    2.7150   15.1760 C.3       8 GLP5        0.0000 
     26 CA         -4.9718    3.8552   16.3933 C.3       4 GLC5        0.0000 
     27 CA         -6.0910    3.5650   14.6510 C.3      12 GLL5        0.0000 
     28 CA         -0.2375    6.2870   14.8855 C.3       4 GLC5        0.0000 
     29 CA         -2.1550    7.0100   14.7610 C.3      12 GLL5        0.0000 
     30 CA          1.5390    5.4980   15.7220 C.3       8 GLP5        0.0000 
     31 CA         -2.9108    9.0063   17.2365 C.3       4 GLC5        0.0000 
     32 CA         -4.2240   10.1660   18.1050 C.3       8 GLP5        0.0000 
     33 CA          0.5010    7.6070   15.7100 C.3       4 GLC5        0.0000 
     34 CA         -1.4740    7.8960   15.7000 C.3      12 GLL5        0.0000 
     35 CA         -1.9814    6.3130   17.0446 C.3       4 GLC5        0.0000 
     36 CA         -2.1950    5.0010   17.9560 C.3       8 GLP5        0.0000 
     37 CA         -0.6258    8.4462   17.7325 C.3       4 GLC5        0.0000 
     38 CA          0.1110    8.7980   19.2220 C.3       8 GLP5        0.0000 
@<TRIPOS>BOND
@<TRIPOS>SUBSTRUCTURE
     1 ALC1        4 GROUP        1 X    ALC  0     ROOT ALC X 1
     2 SEC2       12 GROUP        1 X    SEC  0     **** SEC X 2
     3 ZIC7        9 GROUP        1 X    ZIC  0     **** ZIC X 5
     4 GLC5        1 GROUP        1 X    GLC  0     **** GLC X 6
     5 ALP1        6 GROUP        1 Y    ALP  0     ROOT ALP Y 8
     6 SEP2       14 GROUP        1 Y    SEP  0     **** SEP Y 9
     7 ZIP7       11 GROUP        1 Y    ZIP  0     **** ZIP Y 12
     8 GLP5        3 GROUP        1 Y    GLP  0     **** GLP Y 13
     9 ALL1        5 GROUP        1 Z    ALL  0     ROOT ALL Z 15
    10 SEL2       13 GROUP        1 Z    SEL  0     **** SEL Z 16
    11 ZIL7       10 GROUP        1 Z    ZIL  0     **** ZIL Z 19
    12 GLL5        2 GROUP        1 Z    GLL  0     **** GLL Z 20
@<TRIPOS>SET

