#    Name: 1i9n_IOA_1_ligand
#    Modification time : Tue Mar 25 06:48:50 2014

@<TRIPOS>MOLECULE
1i9n_IOA_1_ligand
   34    35     1     0     0
SMALL
NO_CHARGES


@<TRIPOS>ATOM
      1 C01        -3.8580    2.6650   14.6340 C.ar      1 IOA555      0.0000 
      2 C02        -4.2550    1.6000   15.4550 C.ar      1 IOA555      0.0000 
      3 C03        -5.6300    1.5110   15.8800 C.ar      1 IOA555      0.0000 
      4 C04        -6.5210    2.5060   15.4670 C.ar      1 IOA555      0.0000 
      5 C05        -6.0910    3.5650   14.6510 C.ar      1 IOA555      0.0000 
      6 C06        -4.7660    3.6560   14.2180 C.ar      1 IOA555      0.0000 
      7 C07        -4.2940    4.7950   13.3100 C.2       1 IOA555      0.0000 
      8 O08        -5.1660    5.6310   12.9800 O.2       1 IOA555      0.0000 
      9 N09        -2.9430    4.9470   12.8050 N.am      1 IOA555      0.0000 
     10 C10        -2.5340    6.2940   12.4270 C.3       1 IOA555      0.0000 
     11 S11        -6.0970    0.1220   16.9150 S.o2      1 IOA555      0.0000 
     12 NP2        -5.6460   -1.3760   16.2760 N.pl3     1 IOA555      0.0000 
     13 O13        -7.5310    0.3470   17.0640 O.2       1 IOA555      0.0000 
     14 O14        -5.4160    0.4830   18.1730 O.2       1 IOA555      0.0000 
     15 C15        -1.8730    7.1420   13.3370 C.ar      1 IOA555      0.0000 
     16 C16        -2.1550    7.0100   14.7610 C.ar      1 IOA555      0.0000 
     17 C17        -1.4740    7.8960   15.7000 C.ar      1 IOA555      0.0000 
     18 C18        -0.5340    8.8880   15.2000 C.ar      1 IOA555      0.0000 
     19 C19        -0.2600    9.0020   13.7600 C.ar      1 IOA555      0.0000 
     20 C20        -0.9230    8.1380   12.8340 C.ar      1 IOA555      0.0000 
     21 F21        -0.6810    8.2560   11.6550 F         1 IOA555      0.0000 
     22 F22        -1.7210    7.7970   17.0360 F         1 IOA555      0.0000 
     23 H          -2.8715    2.7256   14.3247 H         1 IOA555      0.0000 
     24 H          -3.5965    0.8916   15.7561 H         1 IOA555      0.0000 
     25 H          -7.5074    2.4643   15.7639 H         1 IOA555      0.0000 
     26 H          -6.7712    4.2903   14.3667 H         1 IOA555      0.0000 
     27 H          -2.3313    4.1824   12.7206 H         1 IOA555      0.0000 
     28 H          -3.4674    6.8348   12.0102 H         1 IOA555      0.0000 
     29 H          -1.9045    6.2061   11.4608 H         1 IOA555      0.0000 
     30 H          -4.9785   -1.8979   16.8070 H         1 IOA555      0.0000 
     31 H          -6.0786   -1.6342   15.4122 H         1 IOA555      0.0000 
     32 H          -2.8025    6.3258   15.0892 H         1 IOA555      0.0000 
     33 H          -0.0623    9.5067   15.8426 H         1 IOA555      0.0000 
     34 H           0.3998    9.6967   13.4428 H         1 IOA555      0.0000 
@<TRIPOS>BOND
     1    2    1 ar   
     2    6    1 ar   
     3   23    1 1    
     4    3    2 ar   
     5   24    2 1    
     6    4    3 ar   
     7   11    3 1    
     8    5    4 ar   
     9   25    4 1    
    10    6    5 ar   
    11   26    5 1    
    12    7    6 1    
    13    8    7 2    
    14    9    7 am   
    15   10    9 1    
    16   27    9 1    
    17   15   10 1    
    18   28   10 1    
    19   29   10 1    
    20   12   11 1    
    21   13   11 2    
    22   14   11 2    
    23   30   12 1    
    24   31   12 1    
    25   16   15 ar   
    26   20   15 ar   
    27   17   16 ar   
    28   32   16 1    
    29   18   17 ar   
    30   22   17 1    
    31   19   18 ar   
    32   33   18 1    
    33   20   19 ar   
    34   34   19 1    
    35   21   20 1    
@<TRIPOS>SUBSTRUCTURE
     1 IOA555      1 GROUP   
@<TRIPOS>SET

