#    Name: 3gur_BYG_2_INTS_M
#    Modification time : Tue Mar 25 13:00:11 2014

@<TRIPOS>MOLECULE
3gur_BYG_2_INTS_M
   77     0    15     0     0
SMALL
NO_CHARGES


@<TRIPOS>ATOM
      1 OD1        12.4445    8.1015   73.3390 O.co2     3 ASC3        0.0000 
      2 OD1        13.3820    9.5760   73.0880 O.co2    13 ASL3        0.0000 
      3 OD1        11.5070    6.6270   73.5900 O.co2     8 ASP3        0.0000 
      4 OD1        11.9830    8.9705   73.8405 O.co2     3 ASC3        0.0000 
      5 OD1        10.5840    8.3650   74.5930 O.co2     8 ASP3        0.0000 
      6 O          11.9830    8.9705   73.8405 O.2       1 ALC1        0.0000 
      7 O          13.3820    9.5760   73.0880 O.2      11 ALL1        0.0000 
      8 O          10.5840    8.3650   74.5930 O.2       6 ALP1        0.0000 
      9 CA         19.2765   14.1645   80.2340 C.3       5 GLC5        0.0000 
     10 CA         19.8640   12.1300   79.7100 C.3      15 GLL5        0.0000 
     11 CA         18.6890   16.1990   80.7580 C.3      10 GLP5        0.0000 
     12 O          14.7285   13.5700   77.4685 O.2       1 ALC1        0.0000 
     13 O          15.1150   12.3930   78.0390 O.2      11 ALL1        0.0000 
     14 O          14.3420   14.7470   76.8980 O.2       6 ALP1        0.0000 
     15 N          16.7855   14.6315   81.4575 N.am      2 SEC2        0.0000 
     16 N          15.7370   13.6620   81.2640 N.am     12 SEL2        0.0000 
     17 N          17.8340   15.6010   81.6510 N.am      7 SEP2        0.0000 
     18 O          12.7330   13.1160   79.3100 O.2       1 ALC1        0.0000 
     19 O          13.8400   13.0790   80.1800 O.2      11 ALL1        0.0000 
     20 O          11.6260   13.1530   78.4400 O.2       6 ALP1        0.0000 
     21 N          14.7405   12.4495   71.0225 N.am      2 SEC2        0.0000 
     22 N          14.2090   11.5040   71.8800 N.am     12 SEL2        0.0000 
     23 N          15.2720   13.3950   70.1650 N.am      7 SEP2        0.0000 
     24 N          13.0715   13.7770   71.8445 N.am      2 SEC2        0.0000 
     25 N          13.3950   12.9880   73.0060 N.am     12 SEL2        0.0000 
     26 N          12.7480   14.5660   70.6830 N.am      7 SEP2        0.0000 
     27 N          14.3335   13.1915   71.5855 N.am      2 SEC2        0.0000 
     28 NZ         10.5250   13.4160   83.5290 N.4       4 LYC4        0.0000 
     29 NZ         12.0030   13.8310   83.1150 N.4      14 LYL4        0.0000 
     30 NZ          9.0470   13.0010   83.9430 N.4       9 LYP4        0.0000 
     31 N          12.0995   15.0170   83.4785 N.am      2 SEC2        0.0000 
     32 N          12.0030   13.8310   83.1150 N.am     12 SEL2        0.0000 
     33 N          12.1960   16.2030   83.8420 N.am      7 SEP2        0.0000 
     34 N          10.5250   13.4160   83.5290 N.am      2 SEC2        0.0000 
     35 N           9.0470   13.0010   83.9430 N.am      7 SEP2        0.0000 
     36 CA         12.3675   15.5515   82.0850 C.3       5 GLC5        0.0000 
     37 CA         13.0310   13.8680   81.0490 C.3      15 GLL5        0.0000 
     38 CA         11.7040   17.2350   83.1210 C.3      10 GLP5        0.0000 
     39 CA         11.4915   14.6265   79.9105 C.3       5 GLC5        0.0000 
     40 CA          9.9520   15.3850   78.7720 C.3      10 GLP5        0.0000 
     41 CA         13.7655   15.3715   80.0570 C.3       5 GLC5        0.0000 
     42 CA         14.5000   16.8750   79.0650 C.3      10 GLP5        0.0000 
     43 N          23.4450   11.6660   72.9335 N.am      2 SEC2        0.0000 
     44 N          22.1300   11.4880   73.5780 N.am     12 SEL2        0.0000 
     45 N          24.7600   11.8440   72.2890 N.am      7 SEP2        0.0000 
     46 CA         17.9290   14.6460   79.8620 C.3       5 GLC5        0.0000 
     47 CA         17.1690   13.0930   78.9660 C.3      15 GLL5        0.0000 
     48 CA         18.7980   12.6435   84.5075 C.3       5 GLC5        0.0000 
     49 CA         16.9950   11.5020   83.9020 C.3      15 GLL5        0.0000 
     50 CA         20.6010   13.7850   85.1130 C.3      10 GLP5        0.0000 
     51 CA         21.6945    9.8725   80.4165 C.3       5 GLC5        0.0000 
     52 CA         19.7450   10.6330   80.5970 C.3      15 GLL5        0.0000 
     53 CA         23.6440    9.1120   80.2360 C.3      10 GLP5        0.0000 
     54 CA         21.7265   13.9015   77.6635 C.3       5 GLC5        0.0000 
     55 CA         20.3470   12.5290   76.9980 C.3      15 GLL5        0.0000 
     56 CA         23.1060   15.2740   78.3290 C.3      10 GLP5        0.0000 
     57 CA         23.1255   10.5285   76.0190 C.3       5 GLC5        0.0000 
     58 CA         21.1390   10.7270   75.5880 C.3      15 GLL5        0.0000 
     59 CA         25.1120   10.3300   76.4500 C.3      10 GLP5        0.0000 
     60 CA         17.6155   12.3585   75.9440 C.3       5 GLC5        0.0000 
     61 CA         18.0170   12.3170   77.6660 C.3      15 GLL5        0.0000 
     62 CA         17.2140   12.4000   74.2220 C.3      10 GLP5        0.0000 
     63 CA         20.9838   12.3017   80.8478 C.3       5 GLC5        0.0000 
     64 CA         22.1630   13.2220   81.5420 C.3      10 GLP5        0.0000 
     65 CA         17.8265   14.4865   77.3700 C.3       5 GLC5        0.0000 
     66 CA         18.0600   16.2680   76.4240 C.3      10 GLP5        0.0000 
     67 CA         16.7085   11.8812   85.5823 C.3       5 GLC5        0.0000 
     68 CA         16.6620   12.9800   87.2510 C.3      10 GLP5        0.0000 
     69 CA         20.0353   14.1732   76.3918 C.3       5 GLC5        0.0000 
     70 CA         19.4240   16.0620   76.3620 C.3      10 GLP5        0.0000 
     71 CA         21.7293   13.5813   75.5027 C.3       5 GLC5        0.0000 
     72 CA         22.8120   14.8780   74.5840 C.3      10 GLP5        0.0000 
     73 CA         19.6639   12.0834   74.7029 C.3       5 GLC5        0.0000 
     74 CA         20.9460   12.0400   75.8450 C.3      15 GLL5        0.0000 
     75 CA         18.4350   12.6610   73.4010 C.3      10 GLP5        0.0000 
     76 CA         15.5377   11.7939   74.7265 C.3       5 GLC5        0.0000 
     77 CA         14.0900   11.7200   76.0130 C.3      15 GLL5        0.0000 
@<TRIPOS>BOND
@<TRIPOS>SUBSTRUCTURE
     1 ALC1        6 GROUP        1 X    ALC  0     ROOT ALC X 1
     2 SEC2       15 GROUP        1 X    SEC  0     **** SEC X 2
     3 ASC3        1 GROUP        1 X    ASC  0     **** ASC X 3
     4 LYC4       28 GROUP        1 X    LYC  0     **** LYC X 4
     5 GLC5        9 GROUP        1 X    GLC  0     **** GLC X 6
     6 ALP1        8 GROUP        1 Y    ALP  0     ROOT ALP Y 8
     7 SEP2       17 GROUP        1 Y    SEP  0     **** SEP Y 9
     8 ASP3        3 GROUP        1 Y    ASP  0     **** ASP Y 10
     9 LYP4       30 GROUP        1 Y    LYP  0     **** LYP Y 11
    10 GLP5       11 GROUP        1 Y    GLP  0     **** GLP Y 13
    11 ALL1        7 GROUP        1 Z    ALL  0     ROOT ALL Z 15
    12 SEL2       16 GROUP        1 Z    SEL  0     **** SEL Z 16
    13 ASL3        2 GROUP        1 Z    ASL  0     **** ASL Z 17
    14 LYL4       29 GROUP        1 Z    LYL  0     **** LYL Z 18
    15 GLL5       10 GROUP        1 Z    GLL  0     **** GLL Z 20
@<TRIPOS>SET

