#    Name: 3gur_BYG_2_ligand
#    Modification time : Tue Mar 25 13:00:12 2014

@<TRIPOS>MOLECULE
3gur_BYG_2_ligand
   71    72     1     0     0
SMALL
NO_CHARGES


@<TRIPOS>ATOM
      1 C1         13.6370   11.8390   72.8620 C.2       1 BYG218      0.0000 
      2 N1         13.3820    9.5760   73.0880 N.4       1 BYG218      0.0000 
      3 S1         19.8640   12.1300   79.7100 S.3       1 BYG218      0.0000 
      4 C2         15.1540   12.6700   80.4830 C.2       1 BYG218      0.0000 
      5 N2         15.1150   12.3930   78.0390 N.am      1 BYG218      0.0000 
      6 O2         15.7370   13.6620   81.2640 O.2       1 BYG218      0.0000 
      7 C3         12.5170   13.1550   82.2430 C.2       1 BYG218      0.0000 
      8 N3         13.8400   13.0790   80.1800 N.am      1 BYG218      0.0000 
      9 CI         20.6370    9.7790   76.6430 C.2       1 BYG218      0.0000 
     10 CL         19.9500   10.3190   77.8470 C.2       1 BYG218      0.0000 
     11 O11        14.2090   11.5040   71.8800 O.co2     1 BYG218      0.0000 
     12 O12        13.3950   12.9880   73.0060 O.co2     1 BYG218      0.0000 
     13 O31        12.6240   11.9550   82.3370 O.co2     1 BYG218      0.0000 
     14 O32        12.0030   13.8310   83.1150 O.co2     1 BYG218      0.0000 
     15 CA1        13.2410   10.7680   73.8120 C.3       1 BYG218      0.0000 
     16 NA1        20.6030    8.4510   76.8010 N.2       1 BYG218      0.0000 
     17 CA2        15.9130   12.2890   79.2190 C.3       1 BYG218      0.0000 
     18 OA2        19.9850    8.1870   78.0390 O.3       1 BYG218      0.0000 
     19 CA3        13.0310   13.8680   81.0490 C.3       1 BYG218      0.0000 
     20 NA3        19.5740    9.3540   78.6950 N.2       1 BYG218      0.0000 
     21 OA3        22.1300   11.4880   73.5780 O.2       1 BYG218      0.0000 
     22 NA4        21.7510   10.4850   74.3980 N.pl3     1 BYG218      0.0000 
     23 OA4        22.0710    9.2680   73.9270 O.2       1 BYG218      0.0000 
     24 OA5        18.3920   11.4160   83.9070 O.3       1 BYG218      0.0000 
     25 CB1        14.0250   10.5430   75.0860 C.3       1 BYG218      0.0000 
     26 CB2        17.1690   13.0930   78.9660 C.3       1 BYG218      0.0000 
     27 CD1        14.4010   11.3480   77.4030 C.2       1 BYG218      0.0000 
     28 CE1        16.9950   11.5020   83.9020 C.3       1 BYG218      0.0000 
     29 OE1        15.0960   10.1740   77.4490 O.2       1 BYG218      0.0000 
     30 CE2        16.5150   10.0630   83.9250 C.3       1 BYG218      0.0000 
     31 CE3        16.8010    9.2980   82.6420 C.3       1 BYG218      0.0000 
     32 CE4        18.2300    9.5110   82.1710 C.3       1 BYG218      0.0000 
     33 CE5        18.3040   10.2390   80.8410 C.3       1 BYG218      0.0000 
     34 CE6        19.7450   10.6330   80.5970 C.3       1 BYG218      0.0000 
     35 CF4        19.6800   11.7710   78.0450 C.3       1 BYG218      0.0000 
     36 CF5        20.3470   12.5290   76.9980 C.3       1 BYG218      0.0000 
     37 CF6        20.9460   12.0400   75.8450 C.2       1 BYG218      0.0000 
     38 CF7        21.1390   10.7270   75.5880 C.2       1 BYG218      0.0000 
     39 CG1        14.0900   11.7200   76.0130 C.3       1 BYG218      0.0000 
     40 SG2        18.0170   12.3170   77.6660 S.3       1 BYG218      0.0000 
     41 H          15.0530   13.3607   77.5934 H         1 BYG218      0.0000 
     42 H          13.4265   12.7889   79.2618 H         1 BYG218      0.0000 
     43 H          12.1842   10.8824   74.0694 H         1 BYG218      0.0000 
     44 H          16.2371   11.2294   79.3283 H         1 BYG218      0.0000 
     45 H          13.5980   14.7722   81.3984 H         1 BYG218      0.0000 
     46 H          12.1541   14.2921   80.4901 H         1 BYG218      0.0000 
     47 H          15.0591   10.2322   74.8172 H         1 BYG218      0.0000 
     48 H          13.5841    9.6762   75.6267 H         1 BYG218      0.0000 
     49 H          17.8496   13.0640   79.7732 H         1 BYG218      0.0000 
     50 H          16.9728   14.0655   78.6035 H         1 BYG218      0.0000 
     51 H          16.6067   11.9694   83.0070 H         1 BYG218      0.0000 
     52 H          16.6022   11.9992   84.7788 H         1 BYG218      0.0000 
     53 H          15.4277   10.0485   84.1154 H         1 BYG218      0.0000 
     54 H          16.9931    9.5369   84.7695 H         1 BYG218      0.0000 
     55 H          16.1105    9.6317   81.8623 H         1 BYG218      0.0000 
     56 H          16.6329    8.2311   82.8139 H         1 BYG218      0.0000 
     57 H          18.7266    8.5358   82.0765 H         1 BYG218      0.0000 
     58 H          18.7762   10.0884   82.9291 H         1 BYG218      0.0000 
     59 H          17.6859   11.1244   80.8792 H         1 BYG218      0.0000 
     60 H          17.9671    9.5832   80.0512 H         1 BYG218      0.0000 
     61 H          20.2842   10.8299   81.5060 H         1 BYG218      0.0000 
     62 H          20.2728    9.9273   79.9812 H         1 BYG218      0.0000 
     63 H          21.1272   13.2347   77.5537 H         1 BYG218      0.0000 
     64 H          19.5892   13.3921   76.6879 H         1 BYG218      0.0000 
     65 H          21.2686   12.7562   75.1269 H         1 BYG218      0.0000 
     66 H          13.1214   12.2575   75.9750 H         1 BYG218      0.0000 
     67 H          14.8517   12.4304   75.6341 H         1 BYG218      0.0000 
     68 H          12.5457    9.0281   73.1080 H         1 BYG218      0.0000 
     69 H          13.5963    9.7486   72.1266 H         1 BYG218      0.0000 
     70 H          14.1160    9.0039   73.4539 H         1 BYG218      0.0000 
     71 H          18.9694   11.9934   84.4844 H         1 BYG218      0.0000 
@<TRIPOS>BOND
     1   11    1 ar   
     2   12    1 ar   
     3   15    1 1    
     4   15    2 1    
     5   68    2 1    
     6   69    2 1    
     7   70    2 1    
     8   34    3 1    
     9   35    3 1    
    10    6    4 2    
    11    8    4 am   
    12   17    4 1    
    13   17    5 1    
    14   27    5 am   
    15   41    5 1    
    16   13    7 ar   
    17   14    7 ar   
    18   19    7 1    
    19   19    8 1    
    20   42    8 1    
    21   10    9 1    
    22   16    9 2    
    23   38    9 1    
    24   20   10 2    
    25   35   10 1    
    26   25   15 1    
    27   43   15 1    
    28   18   16 1    
    29   26   17 1    
    30   44   17 1    
    31   20   18 1    
    32   45   19 1    
    33   46   19 1    
    34   22   21 2    
    35   23   22 2    
    36   38   22 1    
    37   28   24 1    
    38   71   24 1    
    39   39   25 1    
    40   47   25 1    
    41   48   25 1    
    42   40   26 1    
    43   49   26 1    
    44   50   26 1    
    45   29   27 2    
    46   39   27 1    
    47   30   28 1    
    48   51   28 1    
    49   52   28 1    
    50   31   30 1    
    51   53   30 1    
    52   54   30 1    
    53   32   31 1    
    54   55   31 1    
    55   56   31 1    
    56   33   32 1    
    57   57   32 1    
    58   58   32 1    
    59   34   33 1    
    60   59   33 1    
    61   60   33 1    
    62   61   34 1    
    63   62   34 1    
    64   36   35 1    
    65   40   35 1    
    66   37   36 1    
    67   63   36 1    
    68   64   36 1    
    69   38   37 2    
    70   65   37 1    
    71   66   39 1    
    72   67   39 1    
@<TRIPOS>SUBSTRUCTURE
     1 BYG218      1 GROUP   
@<TRIPOS>SET

