#    Name: 3bgl_RID_4_INTS_M
#    Modification time : Mon Mar 24 19:30:19 2014

@<TRIPOS>MOLECULE
3bgl_RID_4_INTS_M
   94     0    12     0     0
SMALL
NO_CHARGES


@<TRIPOS>ATOM
      1 CA         21.2685  -19.5375   23.7985 C.3       4 GLC5        0.0000 
      2 CA         21.5500  -18.1470   25.3670 C.3      12 GLL5        0.0000 
      3 CA         20.9870  -20.9280   22.2300 C.3       8 GLP5        0.0000 
      4 CA         21.2040  -15.0995   26.0200 C.3       4 GLC5        0.0000 
      5 CA         20.7030  -16.9020   25.4130 C.3      12 GLL5        0.0000 
      6 CA         21.7050  -13.2970   26.6270 C.3       8 GLP5        0.0000 
      7 CA         18.4610  -14.3190   25.1885 C.3       4 GLC5        0.0000 
      8 CA         19.0940  -15.6970   23.9970 C.3      12 GLL5        0.0000 
      9 CA         17.8280  -12.9410   26.3800 C.3       8 GLP5        0.0000 
     10 CA         16.9405  -16.0290   23.7280 C.3       4 GLC5        0.0000 
     11 CA         14.7870  -16.3610   23.4590 C.3       8 GLP5        0.0000 
     12 CA         20.4840  -18.4755   30.6490 C.3       4 GLC5        0.0000 
     13 CA         21.6380  -17.2670   29.3740 C.3      12 GLL5        0.0000 
     14 CA         19.3300  -19.6840   31.9240 C.3       8 GLP5        0.0000 
     15 CA         22.1790  -17.0785   31.1555 C.3       4 GLC5        0.0000 
     16 CA         22.7200  -16.8900   32.9370 C.3       8 GLP5        0.0000 
     17 CA         22.7240  -15.8430   28.3610 C.3       4 GLC5        0.0000 
     18 CA         23.8100  -14.4190   27.3480 C.3       8 GLP5        0.0000 
     19 CA         25.5905  -19.3650   20.2760 C.3       4 GLC5        0.0000 
     20 CA         25.1660  -18.1030   21.9180 C.3      12 GLL5        0.0000 
     21 CA         26.0150  -20.6270   18.6340 C.3       8 GLP5        0.0000 
     22 CA         24.5490  -21.2255   30.1890 C.3       4 GLC5        0.0000 
     23 CA         25.7960  -20.4360   29.3770 C.3      12 GLL5        0.0000 
     24 CA         23.3020  -22.0150   31.0010 C.3       8 GLP5        0.0000 
     25 CA         25.5590  -22.4015   29.6675 C.3       4 GLC5        0.0000 
     26 CA         26.8190  -21.3510   28.7090 C.3      12 GLL5        0.0000 
     27 CA         24.2990  -23.4520   30.6260 C.3       8 GLP5        0.0000 
     28 CA         23.8695  -15.3345   25.4600 C.3       4 GLC5        0.0000 
     29 CA         23.9290  -16.2500   23.5720 C.3      12 GLL5        0.0000 
     30 CA         27.9180  -16.5660   29.4295 C.3       4 GLC5        0.0000 
     31 CA         27.6150  -18.6890   29.4290 C.3      12 GLL5        0.0000 
     32 CA         28.2210  -14.4430   29.4300 C.3       8 GLP5        0.0000 
     33 CA         22.6245  -20.8905   30.0140 C.3       4 GLC5        0.0000 
     34 CA         21.9470  -19.7660   29.0270 C.3      12 GLL5        0.0000 
     35 CA         20.6385  -19.7250   30.4755 C.3       4 GLC5        0.0000 
     36 CA         25.5325  -18.5730   19.3870 C.3       4 GLC5        0.0000 
     37 CA         25.0500  -16.5190   20.1400 C.3      12 GLL5        0.0000 
     38 N          17.7915  -17.1890   26.0515 N.am      2 SEC2        0.0000 
     39 N          18.5350  -17.8420   24.9570 N.am     10 SEL2        0.0000 
     40 N          17.0480  -16.5360   27.1460 N.am      6 SEP2        0.0000 
     41 N          17.0150  -18.1830   24.7690 N.am      2 SEC2        0.0000 
     42 N          15.4950  -18.5240   24.5810 N.am      6 SEP2        0.0000 
     43 O          18.5430  -19.1045   25.4050 O.2       1 ALC1        0.0000 
     44 O          18.5350  -17.8420   24.9570 O.2       9 ALL1        0.0000 
     45 O          18.5510  -20.3670   25.8530 O.2       5 ALP1        0.0000 
     46 N          20.7435  -15.5335   20.4775 N.am      2 SEC2        0.0000 
     47 N          20.0910  -15.7430   21.8200 N.am     10 SEL2        0.0000 
     48 N          21.3960  -15.3240   19.1350 N.am      6 SEP2        0.0000 
     49 N          20.8295  -16.6185   20.8360 N.am      2 SEC2        0.0000 
     50 N          21.5680  -17.4940   19.8520 N.am      6 SEP2        0.0000 
     51 O          18.9665  -16.1540   21.3525 O.2       1 ALC1        0.0000 
     52 O          20.0910  -15.7430   21.8200 O.2       9 ALL1        0.0000 
     53 O          17.8420  -16.5650   20.8850 O.2       5 ALP1        0.0000 
     54 CA         18.6810  -13.2775   24.5690 C.3       4 GLC5        0.0000 
     55 CA         19.5340  -13.6140   22.7580 C.3      12 GLL5        0.0000 
     56 CA         18.6120  -14.2345   20.9690 C.3       4 GLC5        0.0000 
     57 CA         17.6900  -14.8550   19.1800 C.3       8 GLP5        0.0000 
     58 NZ         22.1005  -11.3000   22.1635 N.4       3 LYC4        0.0000 
     59 NZ         21.5740  -12.4080   22.7560 N.4      11 LYL4        0.0000 
     60 NZ         22.6270  -10.1920   21.5710 N.4       7 LYP4        0.0000 
     61 N          22.1005  -11.3000   22.1635 N.am      2 SEC2        0.0000 
     62 N          21.5740  -12.4080   22.7560 N.am     10 SEL2        0.0000 
     63 N          22.6270  -10.1920   21.5710 N.am      6 SEP2        0.0000 
     64 NZ         21.5610  -11.3470   21.1985 N.4       3 LYC4        0.0000 
     65 NZ         20.4950  -12.5020   20.8260 N.4      11 LYL4        0.0000 
     66 NZ         19.3955  -11.5270   21.0975 N.4       3 LYC4        0.0000 
     67 NZ         18.2960  -10.5520   21.3690 N.4       7 LYP4        0.0000 
     68 N          21.6030  -12.2870   20.2375 N.am      2 SEC2        0.0000 
     69 N          20.4950  -12.5020   20.8260 N.am     10 SEL2        0.0000 
     70 N          22.7110  -12.0720   19.6490 N.am      6 SEP2        0.0000 
     71 CA         23.8552  -19.0060   21.8128 C.3       4 GLC5        0.0000 
     72 CA         24.8070  -16.8470   21.4230 C.3      12 GLL5        0.0000 
     73 CA         22.7240  -20.5370   21.9550 C.3       8 GLP5        0.0000 
     74 CA         25.4622  -14.5315   23.3072 C.3       4 GLC5        0.0000 
     75 CA         24.1900  -15.9200   22.2510 C.3      12 GLL5        0.0000 
     76 CA         26.8650  -12.9780   23.7030 C.3       8 GLP5        0.0000 
     77 CA         27.9108  -15.2242   27.7398 C.3       4 GLC5        0.0000 
     78 CA         26.9300  -16.1190   26.1970 C.3      12 GLL5        0.0000 
     79 CA         27.2327  -14.4917   24.8762 C.3       4 GLC5        0.0000 
     80 CA         28.2710  -15.8920   25.9020 C.3      12 GLL5        0.0000 
     81 CA         25.2462  -15.5935   26.7820 C.3       4 GLC5        0.0000 
     82 CA         26.4350  -17.4170   26.2350 C.3      12 GLL5        0.0000 
     83 CA         23.6615  -19.2510   22.8068 C.3       4 GLC5        0.0000 
     84 CA         24.2930  -17.4970   24.0720 C.3      12 GLL5        0.0000 
     85 CA         24.2792  -16.1850   19.0903 C.3       4 GLC5        0.0000 
     86 CA         23.6300  -15.6870   17.3990 C.3       8 GLP5        0.0000 
     87 CA         26.3976  -15.9391   20.9702 C.3       4 GLC5        0.0000 
     88 CA         27.9760  -15.2700   20.8900 C.3       8 GLP5        0.0000 
     89 CA         24.3556  -14.5886   20.4513 C.3       4 GLC5        0.0000 
     90 CA         23.9370  -12.7260   19.9140 C.3       8 GLP5        0.0000 
     91 CA         20.6285  -13.8910   24.8813 C.3       4 GLC5        0.0000 
     92 CA         20.0460  -15.0150   23.0290 C.3      12 GLL5        0.0000 
     93 CA         23.9411  -16.1460   27.0745 C.3       4 GLC5        0.0000 
     94 CA         23.9580  -17.7520   25.4970 C.3      12 GLL5        0.0000 
@<TRIPOS>BOND
@<TRIPOS>SUBSTRUCTURE
     1 ALC1       43 GROUP        1 X    ALC  0     ROOT ALC X 1
     2 SEC2       38 GROUP        1 X    SEC  0     **** SEC X 2
     3 LYC4       58 GROUP        1 X    LYC  0     **** LYC X 4
     4 GLC5        1 GROUP        1 X    GLC  0     **** GLC X 6
     5 ALP1       45 GROUP        1 Y    ALP  0     ROOT ALP Y 8
     6 SEP2       40 GROUP        1 Y    SEP  0     **** SEP Y 9
     7 LYP4       60 GROUP        1 Y    LYP  0     **** LYP Y 11
     8 GLP5        3 GROUP        1 Y    GLP  0     **** GLP Y 13
     9 ALL1       44 GROUP        1 Z    ALL  0     ROOT ALL Z 15
    10 SEL2       39 GROUP        1 Z    SEL  0     **** SEL Z 16
    11 LYL4       59 GROUP        1 Z    LYL  0     **** LYL Z 18
    12 GLL5        2 GROUP        1 Z    GLL  0     **** GLL Z 20
@<TRIPOS>SET

