#    Name: 3bgl_RID_4_ligand
#    Modification time : Mon Mar 24 19:30:20 2014

@<TRIPOS>MOLECULE
3bgl_RID_4_ligand
   77    80     1     0     0
SMALL
NO_CHARGES


@<TRIPOS>ATOM
      1 N1         22.7990  -17.9970   26.1090 N.pl3     1 RID3        0.0000 
      2 N3         26.2260  -19.0640   29.1310 N.pl3     1 RID3        0.0000 
      3 C5         23.9580  -17.7520   25.4970 C.2       1 RID3        0.0000 
      4 C6         21.8260  -18.4080   28.3680 C.3       1 RID3        0.0000 
      5 C7         21.5500  -18.1470   25.3670 C.3       1 RID3        0.0000 
      6 C8         20.7030  -16.9020   25.4130 C.3       1 RID3        0.0000 
      7 C10        19.0940  -15.6970   23.9970 C.3       1 RID3        0.0000 
      8 C13        21.6380  -17.2670   29.3740 C.3       1 RID3        0.0000 
      9 C15        25.1660  -18.1030   21.9180 C.ar      1 RID3        0.0000 
     10 C17        25.7960  -20.4360   29.3770 C.3       1 RID3        0.0000 
     11 C20        26.8190  -21.3510   28.7090 C.3       1 RID3        0.0000 
     12 C21        23.9290  -16.2500   23.5720 C.ar      1 RID3        0.0000 
     13 C22        28.2710  -15.8920   25.9020 C.ar      1 RID3        0.0000 
     14 C24        24.1900  -15.9200   22.2510 C.ar      1 RID3        0.0000 
     15 C26        27.6150  -18.6890   29.4290 C.3       1 RID3        0.0000 
     16 C28        29.1250  -16.9580   25.6340 C.ar      1 RID3        0.0000 
     17 O5         25.7630  -16.7120   29.4630 O.2       1 RID3        0.0000 
     18 S1         25.1500  -17.9800   29.1810 S.o2      1 RID3        0.0000 
     19 O2         24.2630  -18.2800   30.2630 O.2       1 RID3        0.0000 
     20 C23        28.5790  -19.7940   28.9890 C.3       1 RID3        0.0000 
     21 O1         28.0960  -21.1040   29.2920 O.3       1 RID3        0.0000 
     22 C2         24.3560  -17.9300   27.7220 C.2       1 RID3        0.0000 
     23 C1         24.9960  -17.6790   26.5280 C.2       1 RID3        0.0000 
     24 C31        26.4350  -17.4170   26.2350 C.ar      1 RID3        0.0000 
     25 C25        26.9300  -16.1190   26.1970 C.ar      1 RID3        0.0000 
     26 C19        28.6290  -18.2550   25.6600 C.ar      1 RID3        0.0000 
     27 C16        27.2830  -18.4840   25.9500 C.ar      1 RID3        0.0000 
     28 C12        22.9790  -18.1310   27.4570 C.2       1 RID3        0.0000 
     29 C14        21.9470  -19.7660   29.0270 C.3       1 RID3        0.0000 
     30 C27        24.2930  -17.4970   24.0720 C.ar      1 RID3        0.0000 
     31 C30        24.8070  -16.8470   21.4230 C.ar      1 RID3        0.0000 
     32 F1         25.0500  -16.5190   20.1400 F         1 RID3        0.0000 
     33 C18        24.9050  -18.4330   23.2450 C.ar      1 RID3        0.0000 
     34 C9         19.5920  -17.0740   24.3870 C.3       1 RID3        0.0000 
     35 O4         18.5350  -17.8420   24.9570 O.3       1 RID3        0.0000 
     36 C11        20.0460  -15.0150   23.0290 C.3       1 RID3        0.0000 
     37 O3         20.0910  -15.7430   21.8200 O.3       1 RID3        0.0000 
     38 C35        19.5340  -13.6140   22.7580 C.3       1 RID3        0.0000 
     39 C36        20.6140  -12.7980   22.1110 C.2       1 RID3        0.0000 
     40 O7         21.5740  -12.4080   22.7560 O.co2     1 RID3        0.0000 
     41 O6         20.4950  -12.5020   20.8260 O.co2     1 RID3        0.0000 
     42 H          20.9057  -18.4282   27.7376 H         1 RID3        0.0000 
     43 H          20.9598  -18.9881   25.7741 H         1 RID3        0.0000 
     44 H          21.7583  -18.3908   24.3093 H         1 RID3        0.0000 
     45 H          21.2976  -16.0419   25.1553 H         1 RID3        0.0000 
     46 H          20.2704  -16.7864   26.3924 H         1 RID3        0.0000 
     47 H          18.9915  -15.0808   24.8948 H         1 RID3        0.0000 
     48 H          18.1091  -15.7865   23.5298 H         1 RID3        0.0000 
     49 H          25.6242  -18.7841   21.2988 H         1 RID3        0.0000 
     50 H          24.8259  -20.6278   28.9396 H         1 RID3        0.0000 
     51 H          25.7760  -20.6574   30.4351 H         1 RID3        0.0000 
     52 H          26.8108  -21.1374   27.6385 H         1 RID3        0.0000 
     53 H          26.4943  -22.3823   28.8592 H         1 RID3        0.0000 
     54 H          23.4622  -15.5688   24.1903 H         1 RID3        0.0000 
     55 H          28.6346  -14.9273   25.8818 H         1 RID3        0.0000 
     56 H          23.9289  -14.9964   21.8873 H         1 RID3        0.0000 
     57 H          27.7499  -18.5236   30.5024 H         1 RID3        0.0000 
     58 H          27.8882  -17.7673   28.9060 H         1 RID3        0.0000 
     59 H          30.1122  -16.7856   25.4192 H         1 RID3        0.0000 
     60 H          29.5534  -19.5979   29.4803 H         1 RID3        0.0000 
     61 H          28.7525  -19.6678   27.9012 H         1 RID3        0.0000 
     62 H          26.3049  -15.3242   26.3871 H         1 RID3        0.0000 
     63 H          29.2518  -19.0499   25.4657 H         1 RID3        0.0000 
     64 H          26.9174  -19.4458   25.9528 H         1 RID3        0.0000 
     65 H          25.1610  -19.3549   23.6078 H         1 RID3        0.0000 
     66 H          20.0087  -17.5463   23.5189 H         1 RID3        0.0000 
     67 H          21.0078  -14.9418   23.4951 H         1 RID3        0.0000 
     68 H          19.2358  -13.1535   23.6978 H         1 RID3        0.0000 
     69 H          18.6688  -13.6698   22.1003 H         1 RID3        0.0000 
     70 H          22.4479  -17.1394   29.9465 H         1 RID3        0.0000 
     71 H          21.4613  -16.3949   28.9177 H         1 RID3        0.0000 
     72 H          20.8681  -17.4372   29.9891 H         1 RID3        0.0000 
     73 H          22.0691  -20.4957   28.3542 H         1 RID3        0.0000 
     74 H          22.7280  -19.8082   29.6501 H         1 RID3        0.0000 
     75 H          21.1330  -19.9933   29.5615 H         1 RID3        0.0000 
     76 H          18.9472  -18.7261   25.1772 H         1 RID3        0.0000 
     77 H          19.1399  -15.9850   21.6282 H         1 RID3        0.0000 
@<TRIPOS>BOND
     1    3    1 1    
     2    5    1 1    
     3   28    1 1    
     4   10    2 1    
     5   15    2 1    
     6   18    2 1    
     7   23    3 2    
     8   30    3 1    
     9    8    4 1    
    10   28    4 1    
    11   29    4 1    
    12   42    4 1    
    13    6    5 1    
    14   43    5 1    
    15   44    5 1    
    16   34    6 1    
    17   45    6 1    
    18   46    6 1    
    19   34    7 1    
    20   36    7 1    
    21   47    7 1    
    22   48    7 1    
    23   70    8 1    
    24   71    8 1    
    25   72    8 1    
    26   31    9 ar   
    27   33    9 ar   
    28   49    9 1    
    29   11   10 1    
    30   50   10 1    
    31   51   10 1    
    32   21   11 1    
    33   52   11 1    
    34   53   11 1    
    35   14   12 ar   
    36   30   12 ar   
    37   54   12 1    
    38   16   13 ar   
    39   25   13 ar   
    40   55   13 1    
    41   31   14 ar   
    42   56   14 1    
    43   20   15 1    
    44   57   15 1    
    45   58   15 1    
    46   26   16 ar   
    47   59   16 1    
    48   18   17 2    
    49   19   18 2    
    50   22   18 1    
    51   21   20 1    
    52   60   20 1    
    53   61   20 1    
    54   23   22 1    
    55   28   22 2    
    56   24   23 1    
    57   25   24 ar   
    58   27   24 ar   
    59   62   25 1    
    60   27   26 ar   
    61   63   26 1    
    62   64   27 1    
    63   73   29 1    
    64   74   29 1    
    65   75   29 1    
    66   33   30 ar   
    67   32   31 1    
    68   65   33 1    
    69   35   34 1    
    70   66   34 1    
    71   76   35 1    
    72   37   36 1    
    73   38   36 1    
    74   67   36 1    
    75   77   37 1    
    76   39   38 1    
    77   68   38 1    
    78   69   38 1    
    79   40   39 ar   
    80   41   39 ar   
@<TRIPOS>SUBSTRUCTURE
     1 RID3        1 GROUP   
@<TRIPOS>SET

