#    Name: 1N5S_1_CAVITY_N1_6.mol2
#    Modification time : Mon Mar 10 18:39:09 2014

@<TRIPOS>MOLECULE
1N5S_1_CAVITY_N1_6.mol2
   65     0     5     0     0
SMALL
NO_CHARGES


@<TRIPOS>ATOM
      1 CA         23.3975   28.5319   -5.5699 C.3       4 GLY6        0.0000 
      2 CA         23.1249   27.4456   -4.5721 C.3       4 GLY6        0.0000 
      3 O          24.5543   29.0041   -4.7399 O.2       2 ALA2        0.0000 
      4 CA         24.2817   27.9178   -3.7421 C.3       4 GLY6        0.0000 
      5 CA         24.0091   26.8315   -2.7443 C.3       4 GLY6        0.0000 
      6 O          25.7111   29.4762   -3.9099 O.2       2 ALA2        0.0000 
      7 CA         26.3537   27.4696   -3.6640 C.3       4 GLY6        0.0000 
      8 CA         25.4385   28.3899   -2.9121 C.3       4 GLY6        0.0000 
      9 CA         26.9963   25.4629   -3.4181 C.3       4 GLY6        0.0000 
     10 CA         26.0811   26.3833   -2.6662 C.3       4 GLY6        0.0000 
     11 CA         25.1659   27.3036   -1.9143 C.3       4 GLY6        0.0000 
     12 CA         25.8085   25.2970   -1.6684 C.3       4 GLY6        0.0000 
     13 OG         27.1405   31.0347   -4.0777 O.2       1 SER1        0.0000 
     14 O          30.5286   26.2670   -6.0876 O.2       2 ALA2        0.0000 
     15 O          28.6982   28.1077   -4.5838 O.2       2 ALA2        0.0000 
     16 O          27.7830   29.0280   -3.8318 O.2       2 ALA2        0.0000 
     17 DU         26.8679   29.9484   -3.0799 H         5 CUB7        0.0000 
     18 DU         25.9527   30.8687   -2.3279 H         5 CUB7        0.0000 
     19 CA         30.2560   25.1807   -5.0898 C.3       4 GLY6        0.0000 
     20 O          29.3408   26.1010   -4.3379 O.2       2 ALA2        0.0000 
     21 O          28.4256   27.0214   -3.5859 O.2       2 ALA2        0.0000 
     22 CA         27.5105   27.9417   -2.8340 C.3       4 GLY6        0.0000 
     23 CA         26.5953   28.8621   -2.0821 C.3       4 GLY6        0.0000 
     24 CA         25.6801   29.7824   -1.3301 C.3       4 GLY6        0.0000 
     25 CA         29.0682   25.0147   -3.3400 C.3       4 GLY6        0.0000 
     26 CZ         28.1531   25.9351   -2.5881 C.ar      3 PHE5        0.0000 
     27 CA         27.2379   26.8554   -1.8362 C.3       4 GLY6        0.0000 
     28 CZ         33.7883   25.9847   -7.7593 C.ar      3 PHE5        0.0000 
     29 CZ         32.8731   26.9051   -7.0074 C.ar      3 PHE5        0.0000 
     30 CZ         31.9580   27.8254   -6.2554 C.ar      3 PHE5        0.0000 
     31 CZ         31.0428   28.7458   -5.5035 C.ar      3 PHE5        0.0000 
     32 OG         30.1276   29.6661   -4.7516 O.2       1 SER1        0.0000 
     33 OG         28.2972   31.5068   -3.2477 O.2       1 SER1        0.0000 
     34 CA         34.4309   23.9781   -7.5134 C.3       4 GLY6        0.0000 
     35 CZ         33.5157   24.8984   -6.7615 C.ar      3 PHE5        0.0000 
     36 CZ         32.6006   25.8188   -6.0095 C.ar      3 PHE5        0.0000 
     37 CZ         31.6854   26.7391   -5.2576 C.ar      3 PHE5        0.0000 
     38 O          30.7702   27.6595   -4.5057 O.2       2 ALA2        0.0000 
     39 CA         29.8550   28.5798   -3.7537 C.3       4 GLY6        0.0000 
     40 CA         28.9398   29.5002   -3.0018 C.3       4 GLY6        0.0000 
     41 CA         28.0246   30.4205   -2.2499 C.3       4 GLY6        0.0000 
     42 CA         27.1095   31.3409   -1.4979 C.3       4 GLY6        0.0000 
     43 CA         34.1583   22.8918   -6.5156 C.3       4 GLY6        0.0000 
     44 OG         33.2431   23.8121   -5.7636 O.2       1 SER1        0.0000 
     45 OG         32.3280   24.7325   -5.0117 O.2       1 SER1        0.0000 
     46 OG         31.4128   25.6528   -4.2598 O.2       1 SER1        0.0000 
     47 CZ         30.4976   26.5732   -3.5078 C.ar      3 PHE5        0.0000 
     48 CA         29.5824   27.4935   -2.7559 C.3       4 GLY6        0.0000 
     49 CA         28.6672   28.4139   -2.0040 C.3       4 GLY6        0.0000 
     50 CA         27.7521   29.3342   -1.2520 C.3       4 GLY6        0.0000 
     51 N          26.8369   30.2546   -0.5001 N.2       2 ALA2        0.0000 
     52 CZ         30.2250   25.4869   -2.5100 C.ar      3 PHE5        0.0000 
     53 CZ         33.3873   29.3839   -6.4232 C.ar      3 PHE5        0.0000 
     54 CZ         35.8603   25.5365   -7.6812 C.ar      3 PHE5        0.0000 
     55 CZ         34.9451   26.4569   -6.9293 C.ar      3 PHE5        0.0000 
     56 O          34.0299   27.3772   -6.1773 O.2       2 ALA2        0.0000 
     57 O          33.1147   28.2976   -5.4254 O.2       2 ALA2        0.0000 
     58 CZ         32.1996   29.2179   -4.6735 C.ar      3 PHE5        0.0000 
     59 CA         35.5877   24.4502   -6.6834 C.3       4 GLY6        0.0000 
     60 O          34.6725   25.3706   -5.9315 O.2       2 ALA2        0.0000 
     61 O          33.7573   26.2909   -5.1795 O.2       2 ALA2        0.0000 
     62 O          32.8422   27.2113   -4.4276 O.2       2 ALA2        0.0000 
     63 CA         31.9270   28.1316   -3.6756 C.3       4 GLY6        0.0000 
     64 OG         34.3999   24.2843   -4.9336 O.2       1 SER1        0.0000 
     65 CA         31.6544   27.0453   -2.6778 C.3       4 GLY6        0.0000 
@<TRIPOS>BOND
@<TRIPOS>SUBSTRUCTURE
     1 SER1       13 GROUP   
     2 ALA2        3 GROUP   
     3 PHE5       26 GROUP   
     4 GLY6        1 GROUP   
     5 CUB7       17 GROUP   
@<TRIPOS>SET

