#    Name: 1n5s_ADL_1_INTS_M
#    Modification time : Tue Mar 25 12:25:39 2014

@<TRIPOS>MOLECULE
1n5s_ADL_1_INTS_M
   40     0    12     0     0
SMALL
NO_CHARGES


@<TRIPOS>ATOM
      1 CA         31.3730   28.6720   -2.8455 C.3       4 GLC5        0.0000 
      2 CA         30.5640   27.4550   -4.3210 C.3      12 GLL5        0.0000 
      3 CA         32.1820   29.8890   -1.3700 C.3       8 GLP5        0.0000 
      4 CA         31.2780   25.7635   -6.9820 C.3       4 GLC5        0.0000 
      5 CA         31.4940   25.2910   -4.9680 C.3      12 GLL5        0.0000 
      6 CA         31.0620   26.2360   -8.9960 C.3       8 GLP5        0.0000 
      7 CA         30.7930   23.8545   -6.0270 C.3       4 GLC5        0.0000 
      8 CA         30.0920   22.4180   -7.0860 C.3       8 GLP5        0.0000 
      9 CA         29.6815   23.9150   -5.4880 C.3       4 GLC5        0.0000 
     10 CA         29.2710   25.4120   -3.8900 C.3      12 GLL5        0.0000 
     11 CA         26.5240   27.9395   -0.8705 C.3       4 GLC5        0.0000 
     12 CA         27.3860   28.3690   -2.3850 C.3      12 GLL5        0.0000 
     13 CA         25.6620   27.5100    0.6440 C.3       8 GLP5        0.0000 
     14 N          35.0775   30.0840   -6.7435 N.am      2 SEC2        0.0000 
     15 N          33.9300   29.4710   -5.7240 N.am     10 SEL2        0.0000 
     16 N          36.2250   30.6970   -7.7630 N.am      6 SEP2        0.0000 
     17 N          30.8710   30.6310   -5.3640 N.am      2 SEC2        0.0000 
     18 N          31.8200   29.3380   -4.7880 N.am     10 SEL2        0.0000 
     19 N          29.9220   31.9240   -5.9400 N.am      6 SEP2        0.0000 
     20 N          29.8575   30.7805   -4.7420 N.am      2 SEC2        0.0000 
     21 N          29.7930   29.6370   -3.5440 N.am     10 SEL2        0.0000 
     22 O          29.8575   30.7805   -4.7420 O.2       1 ALC1        0.0000 
     23 O          29.7930   29.6370   -3.5440 O.2       9 ALL1        0.0000 
     24 O          29.9220   31.9240   -5.9400 O.2       5 ALP1        0.0000 
     25 NZ         26.9010   28.8045   -5.6450 N.4       3 LYC4        0.0000 
     26 NZ         26.5580   29.4670   -4.3360 N.4      11 LYL4        0.0000 
     27 NZ         27.2440   28.1420   -6.9540 N.4       7 LYP4        0.0000 
     28 CA         35.8270   28.4877   -5.3628 C.3       4 GLC5        0.0000 
     29 CA         34.9380   27.3510   -6.3910 C.3      12 GLL5        0.0000 
     30 CA         37.2350   29.2720   -4.6100 C.3       8 GLP5        0.0000 
     31 CA         36.2873   25.5835   -5.6481 C.3       4 GLC5        0.0000 
     32 CA         37.9560   24.6940   -4.9750 C.3       8 GLP5        0.0000 
     33 CA         28.8781   24.1804   -3.1149 C.3       4 GLC5        0.0000 
     34 CA         28.3180   26.1510   -3.2450 C.3      12 GLL5        0.0000 
     35 CA         28.6690   22.4220   -2.5290 C.3       8 GLP5        0.0000 
     36 CA         27.0367   26.1330   -4.6336 C.3       4 GLC5        0.0000 
     37 CA         25.2400   26.1310   -5.7350 C.3       8 GLP5        0.0000 
     38 CA         29.3279   28.4611   -1.4136 C.3       4 GLC5        0.0000 
     39 CA         28.4740   27.5650   -3.1040 C.3      12 GLL5        0.0000 
     40 CA         30.4510   28.7930    0.0460 C.3       8 GLP5        0.0000 
@<TRIPOS>BOND
@<TRIPOS>SUBSTRUCTURE
     1 ALC1       22 GROUP        1 X    ALC  0     ROOT ALC X 1
     2 SEC2       14 GROUP        1 X    SEC  0     **** SEC X 2
     3 LYC4       25 GROUP        1 X    LYC  0     **** LYC X 4
     4 GLC5        1 GROUP        1 X    GLC  0     **** GLC X 6
     5 ALP1       24 GROUP        1 Y    ALP  0     ROOT ALP Y 8
     6 SEP2       16 GROUP        1 Y    SEP  0     **** SEP Y 9
     7 LYP4       27 GROUP        1 Y    LYP  0     **** LYP Y 11
     8 GLP5        3 GROUP        1 Y    GLP  0     **** GLP Y 13
     9 ALL1       23 GROUP        1 Z    ALL  0     ROOT ALL Z 15
    10 SEL2       15 GROUP        1 Z    SEL  0     **** SEL Z 16
    11 LYL4       26 GROUP        1 Z    LYL  0     **** LYL Z 18
    12 GLL5        2 GROUP        1 Z    GLL  0     **** GLL Z 20
@<TRIPOS>SET

