#    Name: 1n5s_ADL_1_ligand
#    Modification time : Tue Mar 25 12:25:39 2014

@<TRIPOS>MOLECULE
1n5s_ADL_1_ligand
   32    34     1     0     0
SMALL
NO_CHARGES


@<TRIPOS>ATOM
      1 C1         34.8450   25.9330   -6.4850 C.ar      1 ADL1001     0.0000 
      2 C2         33.7530   25.2570   -6.0180 C.ar      1 ADL1001     0.0000 
      3 C3         32.6390   25.9510   -5.4470 C.ar      1 ADL1001     0.0000 
      4 C4         32.7310   27.3680   -5.3660 C.ar      1 ADL1001     0.0000 
      5 C5         33.9000   28.0560   -5.8400 C.ar      1 ADL1001     0.0000 
      6 C6         34.9380   27.3510   -6.3910 C.ar      1 ADL1001     0.0000 
      7 C7         31.6940   28.1220   -4.8160 C.2       1 ADL1001     0.0000 
      8 C8         30.5640   27.4550   -4.3210 C.ar      1 ADL1001     0.0000 
      9 C9         30.4420   26.0410   -4.4230 C.ar      1 ADL1001     0.0000 
     10 C10        31.4940   25.2910   -4.9680 C.3       1 ADL1001     0.0000 
     11 C11        29.5730   28.2140   -3.6190 C.ar      1 ADL1001     0.0000 
     12 C12        28.4740   27.5650   -3.1040 C.ar      1 ADL1001     0.0000 
     13 C13        28.3180   26.1510   -3.2450 C.ar      1 ADL1001     0.0000 
     14 C14        29.2710   25.4120   -3.8900 C.ar      1 ADL1001     0.0000 
     15 C15        27.3860   28.3690   -2.3850 C.3       1 ADL1001     0.0000 
     16 C16        26.9950   29.5670   -3.1910 C.2       1 ADL1001     0.0000 
     17 O1         33.9300   29.4710   -5.7240 O.3       1 ADL1001     0.0000 
     18 O2         31.8200   29.3380   -4.7880 O.2       1 ADL1001     0.0000 
     19 O3         29.7930   29.6370   -3.5440 O.3       1 ADL1001     0.0000 
     20 O5         26.5580   29.4670   -4.3360 O.co2     1 ADL1001     0.0000 
     21 O4         27.0560   30.8330   -2.7180 O.co2     1 ADL1001     0.0000 
     22 H          35.6368   25.4246   -6.9218 H         1 ADL1001     0.0000 
     23 H          33.7036   24.2247   -6.0654 H         1 ADL1001     0.0000 
     24 H          35.7794   27.8148   -6.7374 H         1 ADL1001     0.0000 
     25 H          31.8194   24.4919   -4.2017 H         1 ADL1001     0.0000 
     26 H          31.0769   24.6159   -5.8058 H         1 ADL1001     0.0000 
     27 H          27.4755   25.7132   -2.8501 H         1 ADL1001     0.0000 
     28 H          29.1722   24.3942   -4.0079 H         1 ADL1001     0.0000 
     29 H          27.7678   28.6802   -1.4112 H         1 ADL1001     0.0000 
     30 H          26.5204   27.7232   -2.2286 H         1 ADL1001     0.0000 
     31 H          32.9787   29.7597   -5.8317 H         1 ADL1001     0.0000 
     32 H          30.3051   29.8636   -4.3724 H         1 ADL1001     0.0000 
@<TRIPOS>BOND
     1    2    1 ar   
     2    6    1 ar   
     3   22    1 1    
     4    3    2 ar   
     5   23    2 1    
     6    4    3 ar   
     7   10    3 1    
     8    5    4 ar   
     9    7    4 1    
    10    6    5 ar   
    11   17    5 1    
    12   24    6 1    
    13    8    7 1    
    14   18    7 2    
    15    9    8 ar   
    16   11    8 ar   
    17   10    9 1    
    18   14    9 ar   
    19   25   10 1    
    20   26   10 1    
    21   12   11 ar   
    22   19   11 1    
    23   13   12 ar   
    24   15   12 1    
    25   14   13 ar   
    26   27   13 1    
    27   28   14 1    
    28   16   15 1    
    29   29   15 1    
    30   30   15 1    
    31   20   16 ar   
    32   21   16 ar   
    33   31   17 1    
    34   32   19 1    
@<TRIPOS>SUBSTRUCTURE
     1 ADL1001     1 GROUP   
@<TRIPOS>SET

