#    Name: 4irr_UMP_2_INTS_M
#    Modification time : Tue Mar 25 04:27:07 2014

@<TRIPOS>MOLECULE
4irr_UMP_2_INTS_M
   66     0    12     0     0
SMALL
NO_CHARGES


@<TRIPOS>ATOM
      1 O         -60.1990   26.2600  -49.7905 O.2       1 ALC1        0.0000 
      2 O         -61.3370   26.2770  -50.5510 O.2       9 ALL1        0.0000 
      3 O         -59.0610   26.2430  -49.0300 O.2       5 ALP1        0.0000 
      4 N         -60.4450   23.1220  -52.4865 N.am      2 SEC2        0.0000 
      5 N         -60.7630   24.5200  -51.8380 N.am     10 SEL2        0.0000 
      6 N         -60.1270   21.7240  -53.1350 N.am      6 SEP2        0.0000 
      7 N         -60.7055   28.0760  -48.5465 N.am      2 SEC2        0.0000 
      8 N         -61.9360   28.0530  -49.2780 N.am     10 SEL2        0.0000 
      9 N         -59.4750   28.0990  -47.8150 N.am      6 SEP2        0.0000 
     10 CA        -63.8930   24.0790  -50.8700 C.3       4 GLC5        0.0000 
     11 CA        -63.6310   23.2490  -52.9300 C.3      12 GLL5        0.0000 
     12 CA        -64.1550   24.9090  -48.8100 C.3       8 GLP5        0.0000 
     13 CA        -64.4275   22.1250  -51.3040 C.3       4 GLC5        0.0000 
     14 CA        -65.2240   21.0010  -49.6780 C.3       8 GLP5        0.0000 
     15 CA        -62.1835   22.2025  -51.9095 C.3       4 GLC5        0.0000 
     16 CA        -60.7360   21.1560  -50.8890 C.3       8 GLP5        0.0000 
     17 N         -63.6155   21.2090  -54.9150 N.am      2 SEC2        0.0000 
     18 N         -64.1590   22.4300  -55.1440 N.am     10 SEL2        0.0000 
     19 N         -63.0720   19.9880  -54.6860 N.am      6 SEP2        0.0000 
     20 O         -64.7035   22.1915  -56.3880 O.2       1 ALC1        0.0000 
     21 O         -64.1590   22.4300  -55.1440 O.2       9 ALL1        0.0000 
     22 O         -65.2480   21.9530  -57.6320 O.2       5 ALP1        0.0000 
     23 N         -67.6285   22.4090  -54.4945 N.am      2 SEC2        0.0000 
     24 N         -67.5400   23.8590  -53.6070 N.am     10 SEL2        0.0000 
     25 N         -67.7170   20.9590  -55.3820 N.am      6 SEP2        0.0000 
     26 N         -68.4265   24.1455  -54.7630 N.am      2 SEC2        0.0000 
     27 N         -69.3130   24.4320  -55.9190 N.am      6 SEP2        0.0000 
     28 NZ        -70.4785   23.9410  -51.3515 N.4       3 LYC4        0.0000 
     29 NZ        -69.1030   24.2280  -51.7180 N.4      11 LYL4        0.0000 
     30 NZ        -72.3770   24.6070  -51.7570 N.4       7 LYP4        0.0000 
     31 NZ        -68.8620   24.4210  -50.2925 N.4       3 LYC4        0.0000 
     32 NZ        -68.4320   23.4550  -48.2520 N.4       7 LYP4        0.0000 
     33 N         -70.4785   23.9410  -51.3515 N.am      2 SEC2        0.0000 
     34 N         -69.1030   24.2280  -51.7180 N.am     10 SEL2        0.0000 
     35 N         -71.8540   23.6540  -50.9850 N.am      6 SEP2        0.0000 
     36 N         -70.3430   24.7930  -52.1200 N.am      2 SEC2        0.0000 
     37 N         -71.5830   25.3580  -52.5220 N.am      6 SEP2        0.0000 
     38 N         -68.6955   23.2885  -50.3455 N.am      2 SEC2        0.0000 
     39 N         -68.2880   22.3490  -48.9730 N.am      6 SEP2        0.0000 
     40 N         -68.8620   24.4210  -50.2925 N.am      2 SEC2        0.0000 
     41 N         -68.6210   24.6140  -48.8670 N.am      6 SEP2        0.0000 
     42 NZ        -68.5550   21.6440  -54.3700 N.4       3 LYC4        0.0000 
     43 NZ        -69.3930   22.3290  -53.3580 N.4      11 LYL4        0.0000 
     44 NZ        -67.2650   19.8530  -54.8150 N.4       7 LYP4        0.0000 
     45 NZ        -69.3530   23.3805  -54.6385 N.4       3 LYC4        0.0000 
     46 NZ        -70.6230   24.2250  -55.9660 N.4       7 LYP4        0.0000 
     47 N         -68.3525   21.0315  -53.4250 N.am      2 SEC2        0.0000 
     48 N         -69.3930   22.3290  -53.3580 N.am     10 SEL2        0.0000 
     49 N         -67.3120   19.7340  -53.4920 N.am      6 SEP2        0.0000 
     50 N         -68.5550   21.6440  -54.3700 N.am      2 SEC2        0.0000 
     51 N         -70.2835   22.8070  -54.2785 N.am      2 SEC2        0.0000 
     52 N         -71.1740   23.2850  -55.1990 N.am      6 SEP2        0.0000 
     53 N         -69.3530   23.3805  -54.6385 N.am      2 SEC2        0.0000 
     54 NZ        -67.3940   21.0025  -52.5970 N.4       3 LYC4        0.0000 
     55 NZ        -67.4760   22.2710  -51.7020 N.4      11 LYL4        0.0000 
     56 NZ        -67.8820   22.3100  -50.3375 N.4       3 LYC4        0.0000 
     57 N         -67.3940   21.0025  -52.5970 N.am      2 SEC2        0.0000 
     58 N         -67.4760   22.2710  -51.7020 N.am     10 SEL2        0.0000 
     59 N         -67.8820   22.3100  -50.3375 N.am      2 SEC2        0.0000 
     60 N         -66.3310   21.5730  -51.3945 N.am      2 SEC2        0.0000 
     61 N         -65.1860   20.8750  -51.0870 N.am      6 SEP2        0.0000 
     62 CA        -63.8470   25.9330  -50.1210 C.3       4 GLC5        0.0000 
     63 CA        -63.6840   26.5120  -51.9470 C.3      12 GLL5        0.0000 
     64 CA        -61.8235   23.2503  -54.2822 C.3       4 GLC5        0.0000 
     65 CA        -63.1530   24.6280  -53.3810 C.3      12 GLL5        0.0000 
     66 CA        -60.2550   22.5620  -55.4090 C.3       8 GLP5        0.0000 
@<TRIPOS>BOND
@<TRIPOS>SUBSTRUCTURE
     1 ALC1        1 GROUP        1 X    ALC  0     ROOT ALC X 1
     2 SEC2        4 GROUP        1 X    SEC  0     **** SEC X 2
     3 LYC4       28 GROUP        1 X    LYC  0     **** LYC X 4
     4 GLC5       10 GROUP        1 X    GLC  0     **** GLC X 6
     5 ALP1        3 GROUP        1 Y    ALP  0     ROOT ALP Y 8
     6 SEP2        6 GROUP        1 Y    SEP  0     **** SEP Y 9
     7 LYP4       30 GROUP        1 Y    LYP  0     **** LYP Y 11
     8 GLP5       12 GROUP        1 Y    GLP  0     **** GLP Y 13
     9 ALL1        2 GROUP        1 Z    ALL  0     ROOT ALL Z 15
    10 SEL2        5 GROUP        1 Z    SEL  0     **** SEL Z 16
    11 LYL4       29 GROUP        1 Z    LYL  0     **** LYL Z 18
    12 GLL5       11 GROUP        1 Z    GLL  0     **** GLL Z 20
@<TRIPOS>SET

