#    Name: 4irr_UMP_2_ligand
#    Modification time : Tue Mar 25 04:27:07 2014

@<TRIPOS>MOLECULE
4irr_UMP_2_ligand
   31    32     1     0     0
SMALL
NO_CHARGES


@<TRIPOS>ATOM
      1 N1        -62.8200   25.5300  -52.2680 N.am      1 UMP401      0.0000 
      2 C2        -61.6000   25.4150  -51.5520 C.2       1 UMP401      0.0000 
      3 N3        -61.3370   26.2770  -50.5510 N.am      1 UMP401      0.0000 
      4 C4        -62.1950   27.2640  -50.2200 C.2       1 UMP401      0.0000 
      5 C5        -63.3940   27.4020  -50.9170 C.2       1 UMP401      0.0000 
      6 C6        -63.6840   26.5120  -51.9470 C.2       1 UMP401      0.0000 
      7 O2        -60.7630   24.5200  -51.8380 O.2       1 UMP401      0.0000 
      8 O4        -61.9360   28.0530  -49.2780 O.2       1 UMP401      0.0000 
      9 C1'       -63.1530   24.6280  -53.3810 C.3       1 UMP401      0.0000 
     10 C2'       -63.6310   23.2490  -52.9300 C.3       1 UMP401      0.0000 
     11 C3'       -64.7320   22.9330  -53.9270 C.3       1 UMP401      0.0000 
     12 C4'       -65.3220   24.2940  -54.2490 C.3       1 UMP401      0.0000 
     13 O3'       -64.1590   22.4300  -55.1440 O.3       1 UMP401      0.0000 
     14 O4'       -64.2310   25.2070  -54.1340 O.3       1 UMP401      0.0000 
     15 C5'       -66.4360   24.6900  -53.2870 C.3       1 UMP401      0.0000 
     16 O5'       -67.5400   23.8590  -53.6070 O.3       1 UMP401      0.0000 
     17 P         -68.4380   23.1190  -52.4970 P.3       1 UMP401      0.0000 
     18 OP1       -69.1030   24.2280  -51.7180 O.co2     1 UMP401      0.0000 
     19 OP2       -69.3930   22.3290  -53.3580 O.co2     1 UMP401      0.0000 
     20 OP3       -67.4760   22.2710  -51.7020 O.co2     1 UMP401      0.0000 
     21 H         -60.4366   26.1785  -50.0111 H         1 UMP401      0.0000 
     22 H         -64.0500   28.1460  -50.6747 H         1 UMP401      0.0000 
     23 H         -64.5808   26.6229  -52.4612 H         1 UMP401      0.0000 
     24 H         -62.2966   24.4906  -54.0238 H         1 UMP401      0.0000 
     25 H         -64.0320   23.3118  -51.9536 H         1 UMP401      0.0000 
     26 H         -62.8435   22.5496  -53.0244 H         1 UMP401      0.0000 
     27 H         -65.4482   22.3295  -53.5030 H         1 UMP401      0.0000 
     28 H         -65.6983   24.2750  -55.2497 H         1 UMP401      0.0000 
     29 H         -66.6528   25.7395  -53.4392 H         1 UMP401      0.0000 
     30 H         -66.0794   24.5304  -52.2776 H         1 UMP401      0.0000 
     31 H         -64.9051   22.4515  -55.8094 H         1 UMP401      0.0000 
@<TRIPOS>BOND
     1    2    1 1    
     2    6    1 1    
     3    9    1 1    
     4    3    2 1    
     5    7    2 2    
     6    4    3 1    
     7   21    3 1    
     8    5    4 1    
     9    8    4 2    
    10    6    5 2    
    11   22    5 1    
    12   23    6 1    
    13   10    9 1    
    14   14    9 1    
    15   24    9 1    
    16   11   10 1    
    17   25   10 1    
    18   26   10 1    
    19   12   11 1    
    20   13   11 1    
    21   27   11 1    
    22   14   12 1    
    23   15   12 1    
    24   28   12 1    
    25   31   13 1    
    26   16   15 1    
    27   29   15 1    
    28   30   15 1    
    29   17   16 1    
    30   18   17 ar   
    31   19   17 ar   
    32   20   17 ar   
@<TRIPOS>SUBSTRUCTURE
     1 UMP401      1 GROUP   
@<TRIPOS>SET

