#    Name: 2CJE_1_CAVITY_N1_6.mol2
#    Modification time : Tue Mar 11 07:18:39 2014

@<TRIPOS>MOLECULE
2CJE_1_CAVITY_N1_6.mol2
  102     0     7     0     0
SMALL
NO_CHARGES


@<TRIPOS>ATOM
      1 CA         -9.4895   25.6067   -6.6210 C.3       6 GLY6        0.0000 
      2 CA         -6.1375   27.0191   -7.1398 C.3       6 GLY6        0.0000 
      3 OD1        -6.0544   27.9991   -8.2724 O.3       3 ASP3        0.0000 
      4 CA         -7.5906   27.3466   -6.9630 C.3       6 GLY6        0.0000 
      5 CA         -9.1267   26.6941   -5.6535 C.3       6 GLY6        0.0000 
      6 CA         -9.0436   27.6741   -6.7861 C.3       6 GLY6        0.0000 
      7 CA        -10.5797   27.0216   -5.4767 C.3       6 GLY6        0.0000 
      8 DU        -10.4967   28.0016   -6.6092 H         7 CUB7        0.0000 
      9 O         -12.0328   27.3491   -5.2998 O.2       2 ALA2        0.0000 
     10 CZ        -11.9498   28.3291   -6.4324 C.ar      5 PHE5        0.0000 
     11 CZ        -13.4029   28.6566   -6.2555 C.ar      5 PHE5        0.0000 
     12 CA         -5.8577   27.1265   -5.0398 C.3       6 GLY6        0.0000 
     13 CA         -5.7746   28.1065   -6.1724 C.3       6 GLY6        0.0000 
     14 CA         -5.6916   29.0865   -7.3049 C.3       6 GLY6        0.0000 
     15 O          -5.6086   30.0665   -8.4375 O.2       2 ALA2        0.0000 
     16 CA         -7.3107   27.4540   -4.8629 C.3       6 GLY6        0.0000 
     17 CA         -7.2277   28.4340   -5.9955 C.3       6 GLY6        0.0000 
     18 DU         -7.1447   29.4140   -7.1281 H         7 CUB7        0.0000 
     19 DU         -7.0617   30.3940   -8.2606 H         7 CUB7        0.0000 
     20 DU         -6.9787   31.3740   -9.3932 H         7 CUB7        0.0000 
     21 CA         -8.6808   28.7615   -5.8186 C.3       6 GLY6        0.0000 
     22 DU         -8.5978   29.7415   -6.9512 H         7 CUB7        0.0000 
     23 CA        -10.2169   28.1090   -4.5092 C.3       6 GLY6        0.0000 
     24 DU        -10.1339   29.0890   -5.6418 H         7 CUB7        0.0000 
     25 DU        -10.0509   30.0690   -6.7743 H         7 CUB7        0.0000 
     26 CA        -11.7530   27.4565   -3.1998 C.3       6 GLY6        0.0000 
     27 CA        -11.6700   28.4365   -4.3323 C.3       6 GLY6        0.0000 
     28 DU        -11.5870   29.4165   -5.4649 H         7 CUB7        0.0000 
     29 DU        -11.5040   30.3965   -6.5975 H         7 CUB7        0.0000 
     30 CZ        -13.1231   28.7640   -4.1555 C.ar      5 PHE5        0.0000 
     31 CZ        -13.0401   29.7440   -5.2880 C.ar      5 PHE5        0.0000 
     32 DU        -12.9571   30.7239   -6.4206 H         7 CUB7        0.0000 
     33 CZ        -14.5762   29.0914   -3.9786 C.ar      5 PHE5        0.0000 
     34 CZ        -14.4932   30.0714   -5.1112 C.ar      5 PHE5        0.0000 
     35 OG        -14.4101   31.0514   -6.2437 O.2       1 SER1        0.0000 
     36 OG        -15.7802   32.3589   -7.1994 O.2       1 SER1        0.0000 
     37 OG        -17.2333   32.6864   -7.0226 O.2       1 SER1        0.0000 
     38 O          -3.7927   30.8263   -7.6469 O.2       2 ALA2        0.0000 
     39 CZ         -5.4948   28.2138   -4.0723 C.ar      5 PHE5        0.0000 
     40 CZ         -5.4118   29.1938   -5.2049 C.ar      5 PHE5        0.0000 
     41 CA         -5.3288   30.1738   -6.3375 C.3       6 GLY6        0.0000 
     42 CA         -5.2458   31.1538   -7.4700 C.3       6 GLY6        0.0000 
     43 CA         -6.9479   28.5413   -3.8955 C.3       6 GLY6        0.0000 
     44 CZ         -6.8649   29.5213   -5.0280 C.ar      5 PHE5        0.0000 
     45 CZ         -6.7819   30.5013   -6.1606 C.ar      5 PHE5        0.0000 
     46 CZ         -6.6989   31.4813   -7.2932 C.ar      5 PHE5        0.0000 
     47 CA         -6.6158   32.4613   -8.4257 C.3       6 GLY6        0.0000 
     48 CA         -8.4010   28.8688   -3.7186 C.3       6 GLY6        0.0000 
     49 CZ         -8.3180   29.8488   -4.8512 C.ar      5 PHE5        0.0000 
     50 CZ         -8.2350   30.8288   -5.9837 C.ar      5 PHE5        0.0000 
     51 CA         -8.0689   32.7888   -8.2489 C.3       6 GLY6        0.0000 
     52 CA         -9.8541   29.1963   -3.5417 C.3       6 GLY6        0.0000 
     53 CZ         -9.7711   30.1763   -4.6743 C.ar      5 PHE5        0.0000 
     54 CZ         -9.6880   31.1563   -5.8069 C.ar      5 PHE5        0.0000 
     55 CZ         -9.6050   32.1363   -6.9394 C.ar      5 PHE5        0.0000 
     56 CA        -11.3902   28.5438   -2.2323 C.3       6 GLY6        0.0000 
     57 DU        -11.3072   29.5238   -3.3649 H         7 CUB7        0.0000 
     58 CZ        -11.2242   30.5038   -4.4974 C.ar      5 PHE5        0.0000 
     59 CZ        -11.1411   31.4838   -5.6300 C.ar      5 PHE5        0.0000 
     60 CZ        -11.0581   32.4638   -6.7626 C.ar      5 PHE5        0.0000 
     61 N         -12.8433   28.8713   -2.0554 N.2       2 ALA2        0.0000 
     62 N         -12.7603   29.8513   -3.1880 N.2       2 ALA2        0.0000 
     63 DU        -12.6772   30.8313   -4.3206 H         7 CUB7        0.0000 
     64 CZ        -12.5942   31.8113   -5.4531 C.ar      5 PHE5        0.0000 
     65 OD1       -12.5112   32.7913   -6.5857 O.3       3 ASP3        0.0000 
     66 O         -14.1303   31.1588   -4.1437 O.2       2 ALA2        0.0000 
     67 O         -14.0473   32.1388   -5.2763 O.2       2 ALA2        0.0000 
     68 OD1       -13.9643   33.1188   -6.4088 O.3       3 ASP3        0.0000 
     69 O         -15.5004   32.4663   -5.0994 O.2       2 ALA2        0.0000 
     70 O         -16.9535   32.7938   -4.9225 O.2       2 ALA2        0.0000 
     71 OD1       -16.8705   33.7738   -6.0551 O.3       3 ASP3        0.0000 
     72 OD1       -18.3236   34.1013   -5.8782 O.3       3 ASP3        0.0000 
     73 OD1       -18.2405   35.0813   -7.0108 O.3       3 ASP3        0.0000 
     74 CZ         -4.8829   32.2412   -6.5025 C.ar      5 PHE5        0.0000 
     75 N          -6.5851   29.6287   -2.9280 N.2       2 ALA2        0.0000 
     76 CZ         -6.5021   30.6087   -4.0605 C.ar      5 PHE5        0.0000 
     77 CZ         -6.4190   31.5887   -5.1931 C.ar      5 PHE5        0.0000 
     78 CZ         -6.3360   32.5687   -6.3257 C.ar      5 PHE5        0.0000 
     79 CA         -8.1212   28.9762   -1.6185 C.3       6 GLY6        0.0000 
     80 CZ         -8.0382   29.9562   -2.7511 C.ar      5 PHE5        0.0000 
     81 CA         -9.5743   29.3037   -1.4417 C.3       6 GLY6        0.0000 
     82 CZ         -9.4913   30.2837   -2.5742 C.ar      5 PHE5        0.0000 
     83 O         -11.0274   29.6312   -1.2648 O.2       2 ALA2        0.0000 
     84 CZ        -10.9443   30.6112   -2.3974 C.ar      5 PHE5        0.0000 
     85 CZ        -10.8613   31.5912   -3.5299 C.ar      5 PHE5        0.0000 
     86 N         -12.3974   30.9387   -2.2205 N.2       2 ALA2        0.0000 
     87 CZ        -12.3144   31.9187   -3.3531 C.ar      5 PHE5        0.0000 
     88 CZ        -12.2314   32.8987   -4.4857 C.ar      5 PHE5        0.0000 
     89 NZ        -12.1484   33.8787   -5.6182 N.2       4 LYS4        0.0000 
     90 O         -13.7675   32.2462   -3.1762 O.2       2 ALA2        0.0000 
     91 NZ        -13.6845   33.2262   -4.3088 N.2       4 LYS4        0.0000 
     92 OD1       -15.1376   33.5537   -4.1319 O.3       3 ASP3        0.0000 
     93 N          -7.7584   30.0635   -0.6511 N.2       2 ALA2        0.0000 
     94 CZ         -7.6753   31.0435   -1.7836 C.ar      5 PHE5        0.0000 
     95 CA         -9.2115   30.3910   -0.4742 C.3       6 GLY6        0.0000 
     96 CZ         -9.1284   31.3710   -1.6068 C.ar      5 PHE5        0.0000 
     97 O         -10.6645   30.7185   -0.2973 O.2       2 ALA2        0.0000 
     98 O         -10.5815   31.6985   -1.4299 O.2       2 ALA2        0.0000 
     99 O         -12.0346   32.0260   -1.2530 O.2       2 ALA2        0.0000 
    100 CZ        -11.9516   33.0060   -2.3856 C.ar      5 PHE5        0.0000 
    101 NZ        -13.4047   33.3335   -2.2087 N.2       4 LYS4        0.0000 
    102 NZ        -13.3217   34.3135   -3.3413 N.2       4 LYS4        0.0000 
@<TRIPOS>BOND
@<TRIPOS>SUBSTRUCTURE
     1 SER1       35 GROUP   
     2 ALA2        9 GROUP   
     3 ASP3        3 GROUP   
     4 LYS4       89 GROUP   
     5 PHE5       10 GROUP   
     6 GLY6        1 GROUP   
     7 CUB7        8 GROUP   
@<TRIPOS>SET

