#    Name: 2cje_DUN_1_INTS_M
#    Modification time : Tue Mar 25 00:51:09 2014

@<TRIPOS>MOLECULE
2cje_DUN_1_INTS_M
   61     0    15     0     0
SMALL
NO_CHARGES


@<TRIPOS>ATOM
      1 O          -6.5345   29.3375   -1.0000 O.2       1 ALC1        0.0000 
      2 O          -7.5990   29.7320   -1.9440 O.2      11 ALL1        0.0000 
      3 O          -5.4700   28.9430   -0.0560 O.2       6 ALP1        0.0000 
      4 N          -7.6795   30.9370    0.6880 N.am      2 SEC2        0.0000 
      5 N          -8.7710   30.7070   -0.3110 N.am     12 SEL2        0.0000 
      6 N          -6.5880   31.1670    1.6870 N.am      7 SEP2        0.0000 
      7 CA        -12.7520   35.2240   -1.4410 C.3       5 GLC5        0.0000 
      8 CA        -12.1750   33.2490   -1.5410 C.3      15 GLL5        0.0000 
      9 CA        -13.3290   37.1990   -1.3410 C.3      10 GLP5        0.0000 
     10 CA        -11.0665   34.1440   -2.8415 C.3       5 GLC5        0.0000 
     11 CA         -9.9580   35.0390   -4.1420 C.3      10 GLP5        0.0000 
     12 N         -12.8940   32.1720    0.3870 N.am      2 SEC2        0.0000 
     13 N         -12.8580   33.4910   -0.3180 N.am     12 SEL2        0.0000 
     14 N         -12.9300   30.8530    1.0920 N.am      7 SEP2        0.0000 
     15 O         -13.7295   34.5060   -0.2690 O.2       1 ALC1        0.0000 
     16 O         -12.8580   33.4910   -0.3180 O.2      11 ALL1        0.0000 
     17 O         -14.6010   35.5210   -0.2200 O.2       6 ALP1        0.0000 
     18 Zn        -14.6065   34.5970   -6.5410 Zn        4 ZIC7        0.0000 
     19 Zn        -14.3010   33.6740   -6.3870 Zn       14 ZIL7        0.0000 
     20 Zn        -14.9120   35.5200   -6.6950 Zn        9 ZIP7        0.0000 
     21 N         -16.1740   30.4580   -6.5660 N.am      2 SEC2        0.0000 
     22 N         -14.9990   31.2440   -6.7190 N.am     12 SEL2        0.0000 
     23 N         -17.3490   29.6720   -6.4130 N.am      7 SEP2        0.0000 
     24 NZ        -19.6460   33.7705   -5.3005 N.4       3 LYC4        0.0000 
     25 NZ        -18.4460   34.3940   -4.6130 N.4      13 LYL4        0.0000 
     26 NZ        -20.8460   33.1470   -5.9880 N.4       8 LYP4        0.0000 
     27 N         -19.6460   33.7705   -5.3005 N.am      2 SEC2        0.0000 
     28 N         -18.4460   34.3940   -4.6130 N.am     12 SEL2        0.0000 
     29 N         -20.8460   33.1470   -5.9880 N.am      7 SEP2        0.0000 
     30 N         -19.4395   34.3755   -3.3950 N.am      2 SEC2        0.0000 
     31 N         -20.4330   34.3570   -2.1770 N.am      7 SEP2        0.0000 
     32 N         -18.3855   35.5935   -4.0080 N.am      2 SEC2        0.0000 
     33 N         -18.3250   36.7930   -3.4030 N.am      7 SEP2        0.0000 
     34 Zn        -15.5250   35.4545   -5.7360 Zn        4 ZIC7        0.0000 
     35 Zn        -16.1380   35.3890   -4.7770 Zn       14 ZIL7        0.0000 
     36 Zn        -16.1010   36.3250   -4.2285 Zn        4 ZIC7        0.0000 
     37 Zn        -16.0640   37.2610   -3.6800 Zn        9 ZIP7        0.0000 
     38 NZ        -16.7515   33.9245   -1.7000 N.4       3 LYC4        0.0000 
     39 NZ        -16.6730   33.7120   -2.9360 N.4      13 LYL4        0.0000 
     40 NZ        -16.8300   34.1370   -0.4640 N.4       8 LYP4        0.0000 
     41 NZ        -16.5605   32.2655   -2.8990 N.4       3 LYC4        0.0000 
     42 NZ        -17.5530   30.1350   -2.7070 N.4       8 LYP4        0.0000 
     43 N         -16.7515   33.9245   -1.7000 N.am      2 SEC2        0.0000 
     44 N         -16.6730   33.7120   -2.9360 N.am     12 SEL2        0.0000 
     45 N         -16.8300   34.1370   -0.4640 N.am      7 SEP2        0.0000 
     46 N         -16.5605   32.2655   -2.8990 N.am      2 SEC2        0.0000 
     47 N         -16.4480   30.8190   -2.8620 N.am      7 SEP2        0.0000 
     48 CA         -9.0307   28.0562   -3.3295 C.3       5 GLC5        0.0000 
     49 CA         -9.6900   30.1190   -3.6990 C.3      15 GLL5        0.0000 
     50 CA         -8.9450   26.3160   -2.7450 C.3      10 GLP5        0.0000 
     51 CA         -8.7197   31.5463   -4.0555 C.3       5 GLC5        0.0000 
     52 CA         -8.5430   29.4740   -4.1290 C.3      15 GLL5        0.0000 
     53 CA         -8.3230   33.2960   -4.1970 C.3      10 GLP5        0.0000 
     54 CA        -10.2698   32.8118   -3.0490 C.3       5 GLC5        0.0000 
     55 CA        -11.0150   31.2080   -1.9540 C.3      15 GLL5        0.0000 
     56 CA         -9.6080   33.7410   -4.4660 C.3      10 GLP5        0.0000 
     57 CA        -10.3137   33.5740   -0.1823 C.3       5 GLC5        0.0000 
     58 CA        -10.8480   32.5570   -1.3100 C.3      15 GLL5        0.0000 
     59 CA         -9.1160   34.2450    1.0610 C.3      10 GLP5        0.0000 
     60 CA        -11.3963   33.2152   -3.7808 C.3       5 GLC5        0.0000 
     61 CA        -12.9290   32.3470   -2.4780 C.3      15 GLL5        0.0000 
@<TRIPOS>BOND
@<TRIPOS>SUBSTRUCTURE
     1 ALC1        1 GROUP        1 X    ALC  0     ROOT ALC X 1
     2 SEC2        4 GROUP        1 X    SEC  0     **** SEC X 2
     3 LYC4       24 GROUP        1 X    LYC  0     **** LYC X 4
     4 ZIC7       18 GROUP        1 X    ZIC  0     **** ZIC X 5
     5 GLC5        7 GROUP        1 X    GLC  0     **** GLC X 6
     6 ALP1        3 GROUP        1 Y    ALP  0     ROOT ALP Y 8
     7 SEP2        6 GROUP        1 Y    SEP  0     **** SEP Y 9
     8 LYP4       26 GROUP        1 Y    LYP  0     **** LYP Y 11
     9 ZIP7       20 GROUP        1 Y    ZIP  0     **** ZIP Y 12
    10 GLP5        9 GROUP        1 Y    GLP  0     **** GLP Y 13
    11 ALL1        2 GROUP        1 Z    ALL  0     ROOT ALL Z 15
    12 SEL2        5 GROUP        1 Z    SEL  0     **** SEL Z 16
    13 LYL4       25 GROUP        1 Z    LYL  0     **** LYL Z 18
    14 ZIL7       19 GROUP        1 Z    ZIL  0     **** ZIL Z 19
    15 GLL5        8 GROUP        1 Z    GLL  0     **** GLL Z 20
@<TRIPOS>SET

