#    Name: 2cje_DUN_1_ligand
#    Modification time : Tue Mar 25 00:51:09 2014

@<TRIPOS>MOLECULE
2cje_DUN_1_ligand
   35    36     1     0     0
SMALL
NO_CHARGES


@<TRIPOS>ATOM
      1 N1         -9.7750   30.5620   -2.4230 N.am      1 DUN1266     0.0000 
      2 C2         -8.7020   30.3370   -1.5060 C.2       1 DUN1266     0.0000 
      3 N3         -7.5990   29.7320   -1.9440 N.am      1 DUN1266     0.0000 
      4 C4         -7.4970   29.3000   -3.2270 C.2       1 DUN1266     0.0000 
      5 C5         -8.5430   29.4740   -4.1290 C.2       1 DUN1266     0.0000 
      6 C6         -9.6900   30.1190   -3.6990 C.2       1 DUN1266     0.0000 
      7 O2         -8.7710   30.7070   -0.3110 O.2       1 DUN1266     0.0000 
      8 O4         -6.4720   28.7080   -3.6260 O.2       1 DUN1266     0.0000 
      9 C1'       -11.0150   31.2080   -1.9540 C.3       1 DUN1266     0.0000 
     10 C2'       -10.8480   32.5570   -1.3100 C.3       1 DUN1266     0.0000 
     11 C3'       -12.1750   33.2490   -1.5410 C.3       1 DUN1266     0.0000 
     12 C4'       -12.9290   32.3470   -2.4780 C.3       1 DUN1266     0.0000 
     13 O4'       -12.0100   31.3820   -2.9610 O.3       1 DUN1266     0.0000 
     14 O3'       -12.8580   33.4910   -0.3180 O.3       1 DUN1266     0.0000 
     15 C5'       -13.4400   33.0320   -3.7130 C.3       1 DUN1266     0.0000 
     16 O5'       -14.1600   32.0270   -4.4550 O.3       1 DUN1266     0.0000 
     17 PA        -14.9680   32.4130   -5.7880 P.3       1 DUN1266     0.0000 
     18 O1A       -14.3010   33.6740   -6.3870 O.co2     1 DUN1266     0.0000 
     19 O2A       -14.9990   31.2440   -6.7190 O.co2     1 DUN1266     0.0000 
     20 PB        -16.9620   34.1560   -4.3480 P.3       1 DUN1266     0.0000 
     21 O1B       -18.4460   34.3940   -4.6130 O.co2     1 DUN1266     0.0000 
     22 O2B       -16.1380   35.3890   -4.7770 O.co2     1 DUN1266     0.0000 
     23 O3B       -16.6730   33.7120   -2.9360 O.co2     1 DUN1266     0.0000 
     24 N3A       -16.5750   32.8340   -5.3110 N.4       1 DUN1266     0.0000 
     25 H          -6.7869   29.5811   -1.2934 H         1 DUN1266     0.0000 
     26 H          -8.4625   29.1320   -5.0862 H         1 DUN1266     0.0000 
     27 H         -10.4723   30.2552   -4.3620 H         1 DUN1266     0.0000 
     28 H         -11.4698   30.5545   -1.1525 H         1 DUN1266     0.0000 
     29 H         -10.0686   33.1014   -1.7933 H         1 DUN1266     0.0000 
     30 H         -10.6766   32.4462   -0.2632 H         1 DUN1266     0.0000 
     31 H         -11.9586   34.1718   -2.0772 H         1 DUN1266     0.0000 
     32 H         -13.7352   31.8744   -1.9697 H         1 DUN1266     0.0000 
     33 H         -12.5992   33.4130   -4.2772 H         1 DUN1266     0.0000 
     34 H         -14.0883   33.8471   -3.4203 H         1 DUN1266     0.0000 
     35 H         -13.4311   34.2910   -0.4957 H         1 DUN1266     0.0000 
@<TRIPOS>BOND
     1    2    1 1    
     2    6    1 1    
     3    9    1 1    
     4    3    2 1    
     5    7    2 2    
     6    4    3 1    
     7   25    3 1    
     8    5    4 1    
     9    8    4 2    
    10    6    5 2    
    11   26    5 1    
    12   27    6 1    
    13   10    9 1    
    14   13    9 1    
    15   28    9 1    
    16   11   10 1    
    17   29   10 1    
    18   30   10 1    
    19   12   11 1    
    20   14   11 1    
    21   31   11 1    
    22   13   12 1    
    23   15   12 1    
    24   32   12 1    
    25   35   14 1    
    26   16   15 1    
    27   33   15 1    
    28   34   15 1    
    29   17   16 1    
    30   18   17 ar   
    31   19   17 ar   
    32   24   17 1    
    33   21   20 ar   
    34   22   20 ar   
    35   23   20 ar   
    36   24   20 1    
@<TRIPOS>SUBSTRUCTURE
     1 DUN1266     1 GROUP   
@<TRIPOS>SET

