#    Name: 1s0x_C3S_1_INTS_M
#    Modification time : Tue Mar 25 01:42:10 2014

@<TRIPOS>MOLECULE
1s0x_C3S_1_INTS_M
   89     0     6     0     0
SMALL
NO_CHARGES


@<TRIPOS>ATOM
      1 CA         26.4155   19.1110   18.3860 C.3       2 GLC5        0.0000 
      2 CA         27.5610   20.6000   17.3810 C.3       6 GLL5        0.0000 
      3 CA         25.2700   17.6220   19.3910 C.3       4 GLP5        0.0000 
      4 CA         29.5180   23.7825   18.3165 C.3       2 GLC5        0.0000 
      5 CA         28.0790   23.1220   17.1590 C.3       6 GLL5        0.0000 
      6 CA         30.9570   24.4430   19.4740 C.3       4 GLP5        0.0000 
      7 CA         25.3335   22.8745   16.2650 C.3       2 GLC5        0.0000 
      8 CA         26.7490   23.9310   17.0200 C.3       6 GLL5        0.0000 
      9 CA         23.9180   21.8180   15.5100 C.3       4 GLP5        0.0000 
     10 CA         27.0725   23.9140   19.9350 C.3       2 GLC5        0.0000 
     11 CA         26.5370   24.8850   18.2260 C.3       6 GLL5        0.0000 
     12 CA         27.6080   22.9430   21.6440 C.3       4 GLP5        0.0000 
     13 CA         28.2785   26.2580   17.8755 C.3       2 GLC5        0.0000 
     14 CA         30.0200   27.6310   17.5250 C.3       4 GLP5        0.0000 
     15 CA         24.6425   26.4865   14.7040 C.3       2 GLC5        0.0000 
     16 CA         25.4160   26.6360   16.7750 C.3       6 GLL5        0.0000 
     17 CA         23.8690   26.3370   12.6330 C.3       4 GLP5        0.0000 
     18 CA         25.5130   28.1900   15.5915 C.3       2 GLC5        0.0000 
     19 CA         25.6100   29.7440   14.4080 C.3       4 GLP5        0.0000 
     20 CA         25.4545   22.8435   20.0060 C.3       2 GLC5        0.0000 
     21 CA         23.9030   24.1350   19.3330 C.3       6 GLL5        0.0000 
     22 CA         27.0060   21.5520   20.6790 C.3       4 GLP5        0.0000 
     23 CA         22.9730   26.3815   14.6940 C.3       2 GLC5        0.0000 
     24 CA         22.0770   26.4260   16.7550 C.3       6 GLL5        0.0000 
     25 CA         21.9890   28.1950   15.7710 C.3       2 GLC5        0.0000 
     26 CA         21.9010   29.9640   14.7870 C.3       4 GLP5        0.0000 
     27 CA         21.9375   28.8940   18.9445 C.3       2 GLC5        0.0000 
     28 CA         22.6630   27.0460   19.1240 C.3       6 GLL5        0.0000 
     29 CA         21.2120   30.7420   18.7650 C.3       4 GLP5        0.0000 
     30 CA         22.9855   26.3065   21.1150 C.3       2 GLC5        0.0000 
     31 CA         23.3080   25.5670   23.1060 C.3       4 GLP5        0.0000 
     32 CA         24.3925   27.5365   20.4035 C.3       2 GLC5        0.0000 
     33 CA         26.1220   28.0270   21.6830 C.3       4 GLP5        0.0000 
     34 CA         21.9350   22.6470   20.9145 C.3       2 GLC5        0.0000 
     35 CA         22.3830   23.9710   19.6450 C.3       6 GLL5        0.0000 
     36 CA         21.4870   21.3230   22.1840 C.3       4 GLP5        0.0000 
     37 CA         20.4405   22.7160   20.7785 C.3       2 GLC5        0.0000 
     38 CA         19.3940   24.1090   19.3730 C.3       6 GLL5        0.0000 
     39 CA         19.4875   24.9125   15.6480 C.3       2 GLC5        0.0000 
     40 CA         19.6590   25.9140   17.5770 C.3       6 GLL5        0.0000 
     41 CA         19.3160   23.9110   13.7190 C.3       4 GLP5        0.0000 
     42 CA         20.4085   28.6285   16.0330 C.3       2 GLC5        0.0000 
     43 CA         20.6320   26.9840   16.9660 C.3       6 GLL5        0.0000 
     44 CA         20.1850   30.2730   15.1000 C.3       4 GLP5        0.0000 
     45 CA         20.9220   28.8630   17.8655 C.3       2 GLC5        0.0000 
     46 CA         17.0650   29.3170   18.5710 C.3       2 GLC5        0.0000 
     47 CA         18.2010   27.8410   18.4360 C.3       6 GLL5        0.0000 
     48 CA         15.9290   30.7930   18.7060 C.3       4 GLP5        0.0000 
     49 CA         19.7065   29.2915   18.6005 C.3       2 GLC5        0.0000 
     50 CA         14.6095   25.6785   20.3450 C.3       2 GLC5        0.0000 
     51 CA         15.8750   25.6220   18.7060 C.3       6 GLL5        0.0000 
     52 CA         13.3440   25.7350   21.9840 C.3       4 GLP5        0.0000 
     53 CA         18.3875   25.2235   15.0685 C.3       2 GLC5        0.0000 
     54 CA         17.4590   26.5360   16.4180 C.3       6 GLL5        0.0000 
     55 CA         15.2335   27.0625   14.6465 C.3       2 GLC5        0.0000 
     56 CA         15.9650   26.9230   16.5760 C.3       6 GLL5        0.0000 
     57 CA         14.5020   27.2020   12.7170 C.3       4 GLP5        0.0000 
     58 CA         15.9470   28.8580   17.6410 C.3       2 GLC5        0.0000 
     59 N          10.4935   26.2975   18.7430 N.am      1 SEC2        0.0000 
     60 N          11.4640   26.6560   17.7440 N.am      5 SEL2        0.0000 
     61 N           9.5230   25.9390   19.7420 N.am      3 SEP2        0.0000 
     62 N          11.1175   24.2740   17.2390 N.am      1 SEC2        0.0000 
     63 N          12.4030   24.7220   16.6170 N.am      5 SEL2        0.0000 
     64 N           9.8320   23.8260   17.8610 N.am      3 SEP2        0.0000 
     65 N          11.6840   27.9980   15.9775 N.am      1 SEC2        0.0000 
     66 N          12.7700   26.9070   15.7490 N.am      5 SEL2        0.0000 
     67 N          10.5980   29.0890   16.2060 N.am      3 SEP2        0.0000 
     68 CA         28.5980   21.0155   14.5670 C.3       2 GLC5        0.0000 
     69 CA         29.6650   21.3510   16.2800 C.3       6 GLL5        0.0000 
     70 CA         28.2780   20.4960   12.7400 C.3       4 GLP5        0.0000 
     71 CA         27.4360   21.3558   18.8117 C.3       2 GLC5        0.0000 
     72 CA         28.1710   21.7190   16.5080 C.3       6 GLL5        0.0000 
     73 CA         25.8920   21.4888   16.2272 C.3       2 GLC5        0.0000 
     74 CA         29.7948   19.8398   16.6063 C.3       2 GLC5        0.0000 
     75 CA         31.3500   18.6120   16.3250 C.3       4 GLP5        0.0000 
     76 CA         27.2100   22.5393   18.8842 C.3       2 GLC5        0.0000 
     77 CA         28.4675   24.3817   15.5027 C.3       2 GLC5        0.0000 
     78 CA         29.5210   25.2370   13.9160 C.3       4 GLP5        0.0000 
     79 CA         26.3705   26.1083   19.9135 C.3       2 GLC5        0.0000 
     80 CA         26.8030   26.8360   21.6560 C.3       4 GLP5        0.0000 
     81 CA         23.2255   24.8100   21.2975 C.3       2 GLC5        0.0000 
     82 CA         17.8188   23.0805   17.9845 C.3       2 GLC5        0.0000 
     83 CA         16.9780   21.8930   16.6130 C.3       4 GLP5        0.0000 
     84 CA         17.2730   28.3043   15.4270 C.3       2 GLC5        0.0000 
     85 CA         17.8340   29.8790   14.3570 C.3       4 GLP5        0.0000 
     86 CA         16.4414   23.7927   17.3134 C.3       2 GLC5        0.0000 
     87 CA         15.1800   25.8560   17.3610 C.3       6 GLL5        0.0000 
     88 CA         22.8179   23.0535   17.6030 C.3       2 GLC5        0.0000 
     89 CA         22.6430   21.6210   16.3100 C.3       4 GLP5        0.0000 
@<TRIPOS>BOND
@<TRIPOS>SUBSTRUCTURE
     1 SEC2       59 GROUP        1 X    SEC  0     ROOT SEC X 2
     2 GLC5        1 GROUP        1 X    GLC  0     **** GLC X 6
     3 SEP2       61 GROUP        1 Y    SEP  0     ROOT SEP Y 9
     4 GLP5        3 GROUP        1 Y    GLP  0     **** GLP Y 13
     5 SEL2       60 GROUP        1 Z    SEL  0     ROOT SEL Z 16
     6 GLL5        2 GROUP        1 Z    GLL  0     **** GLL Z 20
@<TRIPOS>SET

