#    Name: 1s0x_C3S_1_ligand
#    Modification time : Tue Mar 25 01:42:11 2014

@<TRIPOS>MOLECULE
1s0x_C3S_1_ligand
   77    80     1     0     0
SMALL
NO_CHARGES


@<TRIPOS>ATOM
      1 C65        29.6650   21.3510   16.2800 C.3       1 C3S1001     0.0000 
      2 C63        28.1710   21.7190   16.5080 C.3       1 C3S1001     0.0000 
      3 C69        27.5610   20.6000   17.3810 C.3       1 C3S1001     0.0000 
      4 C60        28.0790   23.1220   17.1590 C.3       1 C3S1001     0.0000 
      5 C57        26.7490   23.9310   17.0200 C.3       1 C3S1001     0.0000 
      6 C54        26.5370   24.8850   18.2260 C.3       1 C3S1001     0.0000 
      7 C48        25.3390   25.8760   18.1160 C.3       1 C3S1001     0.0000 
      8 C50        25.4160   26.6360   16.7750 C.3       1 C3S1001     0.0000 
      9 C38        23.9980   25.1090   18.1100 C.3       1 C3S1001     0.0000 
     10 C35        23.9030   24.1350   19.3330 C.3       1 C3S1001     0.0000 
     11 C29        22.6350   25.8810   18.0950 C.3       1 C3S1001     0.0000 
     12 C26        22.0770   26.4260   16.7550 C.3       1 C3S1001     0.0000 
     13 C40        22.6630   27.0460   19.1240 C.3       1 C3S1001     0.0000 
     14 C30        21.6870   24.7290   18.4960 C.3       1 C3S1001     0.0000 
     15 C32        22.3830   23.9710   19.6450 C.3       1 C3S1001     0.0000 
     16 C18        20.2720   25.2680   18.8440 C.3       1 C3S1001     0.0000 
     17 C15        19.3940   24.1090   19.3730 C.3       1 C3S1001     0.0000 
     18 C20        19.6590   25.9140   17.5770 C.3       1 C3S1001     0.0000 
     19 C23        20.6320   26.9840   16.9660 C.3       1 C3S1001     0.0000 
     20 C22        18.1870   26.4230   17.7820 C.3       1 C3S1001     0.0000 
     21 C44        18.2010   27.8410   18.4360 C.3       1 C3S1001     0.0000 
     22 C12        17.3840   25.4360   18.6270 C.2       1 C3S1001     0.0000 
     23 C9         15.8750   25.6220   18.7060 C.3       1 C3S1001     0.0000 
     24 C13        17.9250   24.4270   19.3390 C.2       1 C3S1001     0.0000 
     25 C1         17.4590   26.5360   16.4180 C.3       1 C3S1001     0.0000 
     26 C4         15.9650   26.9230   16.5760 C.3       1 C3S1001     0.0000 
     27 C7         15.1800   25.8560   17.3610 C.3       1 C3S1001     0.0000 
     28 O6         13.8770   26.3380   17.7730 O.3       1 C3S1001     0.0000 
     29 S1         12.5910   26.1060   16.9860 S.o2      1 C3S1001     0.0000 
     30 O3         11.4640   26.6560   17.7440 O.co2     1 C3S1001     0.0000 
     31 O2         12.4030   24.7220   16.6170 O.co2     1 C3S1001     0.0000 
     32 O4         12.7700   26.9070   15.7490 O.co2     1 C3S1001     0.0000 
     33 H          27.6869   21.7275   15.5569 H         1 C3S1001     0.0000 
     34 H          28.9084   23.7537   16.7535 H         1 C3S1001     0.0000 
     35 H          28.3057   23.0200   18.2497 H         1 C3S1001     0.0000 
     36 H          25.9201   23.2332   16.9676 H         1 C3S1001     0.0000 
     37 H          26.7896   24.5148   16.1066 H         1 C3S1001     0.0000 
     38 H          27.4621   25.4727   18.3776 H         1 C3S1001     0.0000 
     39 H          26.4012   24.2747   19.1388 H         1 C3S1001     0.0000 
     40 H          25.3561   26.5598   18.9112 H         1 C3S1001     0.0000 
     41 H          23.9814   24.4273   17.2241 H         1 C3S1001     0.0000 
     42 H          24.3899   24.5748   20.1683 H         1 C3S1001     0.0000 
     43 H          24.3118   23.1929   19.0618 H         1 C3S1001     0.0000 
     44 H          22.0397   25.6267   16.0316 H         1 C3S1001     0.0000 
     45 H          22.7108   27.2243   16.4019 H         1 C3S1001     0.0000 
     46 H          21.6150   24.0625   17.6449 H         1 C3S1001     0.0000 
     47 H          22.1656   24.4365   20.5666 H         1 C3S1001     0.0000 
     48 H          22.1292   22.9476   19.6065 H         1 C3S1001     0.0000 
     49 H          20.3722   26.0125   19.6035 H         1 C3S1001     0.0000 
     50 H          19.7049   23.8854   20.4022 H         1 C3S1001     0.0000 
     51 H          19.5984   23.2184   18.7640 H         1 C3S1001     0.0000 
     52 H          19.6003   25.0894   16.8096 H         1 C3S1001     0.0000 
     53 H          20.2352   27.3076   16.0067 H         1 C3S1001     0.0000 
     54 H          20.6780   27.8370   17.6388 H         1 C3S1001     0.0000 
     55 H          15.6520   26.4776   19.3724 H         1 C3S1001     0.0000 
     56 H          15.4268   24.7300   19.1848 H         1 C3S1001     0.0000 
     57 H          17.3356   23.7880   19.9266 H         1 C3S1001     0.0000 
     58 H          17.5230   25.5775   15.9020 H         1 C3S1001     0.0000 
     59 H          17.9578   27.2930   15.8120 H         1 C3S1001     0.0000 
     60 H          15.5254   27.0368   15.5865 H         1 C3S1001     0.0000 
     61 H          15.9026   27.8742   17.1019 H         1 C3S1001     0.0000 
     62 H          15.1317   24.9583   16.8428 H         1 C3S1001     0.0000 
     63 H          30.1341   22.0332   15.7192 H         1 C3S1001     0.0000 
     64 H          30.1670   21.2851   17.1423 H         1 C3S1001     0.0000 
     65 H          29.7640   20.4711   15.8152 H         1 C3S1001     0.0000 
     66 H          27.6254   19.7061   16.9374 H         1 C3S1001     0.0000 
     67 H          28.0246   20.5232   18.2637 H         1 C3S1001     0.0000 
     68 H          26.5931   20.7636   17.5715 H         1 C3S1001     0.0000 
     69 H          26.2651   27.1576   16.6920 H         1 C3S1001     0.0000 
     70 H          25.3763   26.0141   15.9929 H         1 C3S1001     0.0000 
     71 H          24.6621   27.2849   16.6721 H         1 C3S1001     0.0000 
     72 H          22.8176   26.7155   20.0551 H         1 C3S1001     0.0000 
     73 H          23.3894   27.7028   18.9217 H         1 C3S1001     0.0000 
     74 H          21.8021   27.5546   19.1327 H         1 C3S1001     0.0000 
     75 H          18.6576   27.8352   19.3257 H         1 C3S1001     0.0000 
     76 H          18.6794   28.5085   17.8654 H         1 C3S1001     0.0000 
     77 H          17.2760   28.1911   18.5836 H         1 C3S1001     0.0000 
@<TRIPOS>BOND
     1    2    1 1    
     2   63    1 1    
     3   64    1 1    
     4   65    1 1    
     5    3    2 1    
     6    4    2 1    
     7   33    2 1    
     8   66    3 1    
     9   67    3 1    
    10   68    3 1    
    11    5    4 1    
    12   34    4 1    
    13   35    4 1    
    14    6    5 1    
    15   36    5 1    
    16   37    5 1    
    17    7    6 1    
    18   38    6 1    
    19   39    6 1    
    20    8    7 1    
    21    9    7 1    
    22   40    7 1    
    23   69    8 1    
    24   70    8 1    
    25   71    8 1    
    26   10    9 1    
    27   11    9 1    
    28   41    9 1    
    29   15   10 1    
    30   42   10 1    
    31   43   10 1    
    32   12   11 1    
    33   13   11 1    
    34   14   11 1    
    35   19   12 1    
    36   44   12 1    
    37   45   12 1    
    38   72   13 1    
    39   73   13 1    
    40   74   13 1    
    41   15   14 1    
    42   16   14 1    
    43   46   14 1    
    44   47   15 1    
    45   48   15 1    
    46   17   16 1    
    47   18   16 1    
    48   49   16 1    
    49   24   17 1    
    50   50   17 1    
    51   51   17 1    
    52   19   18 1    
    53   20   18 1    
    54   52   18 1    
    55   53   19 1    
    56   54   19 1    
    57   21   20 1    
    58   22   20 1    
    59   25   20 1    
    60   75   21 1    
    61   76   21 1    
    62   77   21 1    
    63   23   22 1    
    64   24   22 2    
    65   27   23 1    
    66   55   23 1    
    67   56   23 1    
    68   57   24 1    
    69   26   25 1    
    70   58   25 1    
    71   59   25 1    
    72   27   26 1    
    73   60   26 1    
    74   61   26 1    
    75   28   27 1    
    76   62   27 1    
    77   29   28 1    
    78   30   29 ar   
    79   31   29 ar   
    80   32   29 ar   
@<TRIPOS>SUBSTRUCTURE
     1 C3S1001     1 GROUP   
@<TRIPOS>SET

