#    Name: 2p83_MR0_3_INTS_M
#    Modification time : Mon Mar 24 18:27:12 2014

@<TRIPOS>MOLECULE
2p83_MR0_3_INTS_M
   95     0    12     0     0
SMALL
NO_CHARGES


@<TRIPOS>ATOM
      1 O         -44.6565   10.3300   96.8650 O.2       1 ALC1        0.0000 
      2 O         -43.9030    9.8150   98.0970 O.2       9 ALL1        0.0000 
      3 O         -45.4100   10.8450   95.6330 O.2       5 ALP1        0.0000 
      4 CA        -43.3300   12.7220   97.3430 C.3       4 GLC5        0.0000 
      5 CA        -44.0530   11.9250   99.3150 C.3      12 GLL5        0.0000 
      6 CA        -42.6070   13.5190   95.3710 C.3       8 GLP5        0.0000 
      7 CA        -44.8620    8.7270   95.4580 C.3       4 GLC5        0.0000 
      8 CA        -44.9060    7.7720   97.2800 C.3      12 GLL5        0.0000 
      9 CA        -44.8180    9.6820   93.6360 C.3       8 GLP5        0.0000 
     10 CA        -41.8995   12.2670  101.1685 C.3       4 GLC5        0.0000 
     11 CA        -43.3810   12.8740  100.0980 C.3      12 GLL5        0.0000 
     12 CA        -40.4180   11.6600  102.2390 C.3       8 GLP5        0.0000 
     13 N         -46.1085   15.1945   95.9550 N.am      2 SEC2        0.0000 
     14 N         -46.9060   15.1640   97.2250 N.am     10 SEL2        0.0000 
     15 N         -45.3110   15.2250   94.6850 N.am      6 SEP2        0.0000 
     16 N         -47.5400   15.6225   96.0065 N.am      2 SEC2        0.0000 
     17 N         -48.1740   16.0810   94.7880 N.am      6 SEP2        0.0000 
     18 CA        -48.0280   15.1985   95.6175 C.3       4 GLC5        0.0000 
     19 CA        -48.9950   13.4180   96.5380 C.3      12 GLL5        0.0000 
     20 CA        -47.0610   16.9790   94.6970 C.3       8 GLP5        0.0000 
     21 CA        -50.9670   11.8185   97.5485 C.3       4 GLC5        0.0000 
     22 CA        -49.4820   12.0410   96.0060 C.3      12 GLL5        0.0000 
     23 CA        -52.4520   11.5960   99.0910 C.3       8 GLP5        0.0000 
     24 CA        -46.6370   10.5510   94.3255 C.3       4 GLC5        0.0000 
     25 CA        -48.4560   11.4200   95.0150 C.3      12 GLL5        0.0000 
     26 N         -43.0475   10.4505  101.7170 N.am      2 SEC2        0.0000 
     27 N         -42.9650   10.0310  100.1800 N.am     10 SEL2        0.0000 
     28 N         -43.1300   10.8700  103.2540 N.am      6 SEP2        0.0000 
     29 CA        -41.1865    7.4705   95.2370 C.3       4 GLC5        0.0000 
     30 CA        -42.3870    8.0610   96.9540 C.3      12 GLL5        0.0000 
     31 CA        -39.9860    6.8800   93.5200 C.3       8 GLP5        0.0000 
     32 CA        -43.6025    8.8715   95.2950 C.3       4 GLC5        0.0000 
     33 OD1       -40.7220    8.8190   94.9960 O.co2     3 ASC3        0.0000 
     34 OD1       -39.9700    8.2240   96.6500 O.co2    11 ASL3        0.0000 
     35 OD1       -41.4740    9.4140   93.3420 O.co2     7 ASP3        0.0000 
     36 OD1       -40.3165    9.4455   95.7955 O.co2     3 ASC3        0.0000 
     37 OD1       -40.6630   10.6670   94.9410 O.co2     7 ASP3        0.0000 
     38 CA        -39.3275    7.7745   95.3675 C.3       4 GLC5        0.0000 
     39 CA        -38.6690    8.6690   97.2150 C.3      12 GLL5        0.0000 
     40 CA        -37.1355    7.6875   96.8325 C.3       4 GLC5        0.0000 
     41 CA        -35.6020    6.7060   96.4500 C.3       8 GLP5        0.0000 
     42 CA        -37.5005    9.3925   95.7375 C.3       4 GLC5        0.0000 
     43 CA        -36.3320   10.1160   94.2600 C.3       8 GLP5        0.0000 
     44 CA        -44.3860    7.5205  100.7100 C.3       4 GLC5        0.0000 
     45 CA        -46.0340    7.9410   99.6100 C.3      12 GLL5        0.0000 
     46 CA        -42.7380    7.1000  101.8100 C.3       8 GLP5        0.0000 
     47 CA        -45.7280    9.5380  101.0495 C.3       4 GLC5        0.0000 
     48 CA        -45.4220   11.1350  102.4890 C.3       8 GLP5        0.0000 
     49 O         -42.9525    6.1050   96.0445 O.2       1 ALC1        0.0000 
     50 O         -42.2530    6.6390   96.8490 O.2       9 ALL1        0.0000 
     51 O         -43.6520    5.5710   95.2400 O.2       5 ALP1        0.0000 
     52 CA        -40.1295    3.4200   97.4260 C.3       4 GLC5        0.0000 
     53 CA        -38.8570    3.3550   98.6030 C.3      12 GLL5        0.0000 
     54 CA        -41.4020    3.4850   96.2490 C.3       8 GLP5        0.0000 
     55 CA        -51.0450   10.4600   98.5530 C.3       4 GLC5        0.0000 
     56 CA        -49.6380    9.3240   98.0150 C.3      12 GLL5        0.0000 
     57 CA        -50.8720    8.4700   97.7695 C.3       4 GLC5        0.0000 
     58 CA        -52.1060    7.6160   97.5240 C.3       8 GLP5        0.0000 
     59 CA        -45.6005    6.5610  101.8225 C.3       4 GLC5        0.0000 
     60 CA        -46.9930    8.0730  101.7990 C.3      12 GLL5        0.0000 
     61 CA        -44.2080    5.0490  101.8460 C.3       8 GLP5        0.0000 
     62 CA        -46.4435    8.1675  103.6945 C.3       4 GLC5        0.0000 
     63 CA        -45.8940    8.2620  105.5900 C.3       8 GLP5        0.0000 
     64 CA        -47.7985    6.5725  101.7865 C.3       4 GLC5        0.0000 
     65 CA        -48.6040    5.0720  101.7740 C.3       8 GLP5        0.0000 
     66 CA        -45.0322   11.6248  100.7163 C.3       4 GLC5        0.0000 
     67 CA        -44.7720   13.0738   96.7798 C.3       4 GLC5        0.0000 
     68 CA        -45.2320   12.3040   98.5720 C.3      12 GLL5        0.0000 
     69 CA        -44.0580   13.1600   94.9620 C.3       8 GLP5        0.0000 
     70 CA        -47.8282   11.9540  101.2443 C.3       4 GLC5        0.0000 
     71 CA        -48.7760   12.4780   98.9750 C.3      12 GLL5        0.0000 
     72 CA        -46.9060   11.1620  102.7890 C.3       8 GLP5        0.0000 
     73 CA        -43.5230    6.7272   98.7530 C.3       4 GLC5        0.0000 
     74 CA        -42.8030    5.3850   99.9480 C.3       8 GLP5        0.0000 
     75 CA        -45.9195    5.9992   97.2645 C.3       4 GLC5        0.0000 
     76 CA        -46.3190    4.0610   96.7960 C.3       8 GLP5        0.0000 
     77 CA        -39.8250    6.9515  101.8440 C.3       4 GLC5        0.0000 
     78 CA        -38.1660    6.2320  100.8950 C.3      12 GLL5        0.0000 
     79 CA        -41.5540    6.9470  102.7610 C.3       8 GLP5        0.0000 
     80 CA        -44.5267   12.3405  101.3063 C.3       4 GLC5        0.0000 
     81 CA        -43.8820   14.2180  100.1490 C.3      12 GLL5        0.0000 
     82 CA        -43.2527   14.2394   98.0386 C.3       4 GLC5        0.0000 
     83 CA        -42.5800   14.8300   96.1370 C.3       8 GLP5        0.0000 
     84 CA        -51.1568   13.0682   95.7980 C.3       4 GLC5        0.0000 
     85 CA        -53.0750   13.4070   95.3240 C.3       8 GLP5        0.0000 
     86 CA        -50.0620   11.6158   94.0817 C.3       4 GLC5        0.0000 
     87 CA        -51.1550   11.5010   92.6530 C.3       8 GLP5        0.0000 
     88 CA        -49.4875    9.7632   95.2463 C.3       4 GLC5        0.0000 
     89 CA        -50.0060    7.7960   94.9820 C.3       8 GLP5        0.0000 
     90 CA        -50.8319   12.5355   99.6066 C.3       4 GLC5        0.0000 
     91 CA        -48.7250   13.0140  100.4240 C.3      12 GLL5        0.0000 
     92 CA        -42.2767    6.8592   98.5968 C.3       4 GLC5        0.0000 
     93 CA        -49.3997    8.4135   96.5111 C.3       4 GLC5        0.0000 
     94 CA        -47.1352    9.7176  101.8969 C.3       4 GLC5        0.0000 
     95 CA        -47.1200    8.2360  100.4850 C.3      12 GLL5        0.0000 
@<TRIPOS>BOND
@<TRIPOS>SUBSTRUCTURE
     1 ALC1        1 GROUP        1 X    ALC  0     ROOT ALC X 1
     2 SEC2       13 GROUP        1 X    SEC  0     **** SEC X 2
     3 ASC3       33 GROUP        1 X    ASC  0     **** ASC X 3
     4 GLC5        4 GROUP        1 X    GLC  0     **** GLC X 6
     5 ALP1        3 GROUP        1 Y    ALP  0     ROOT ALP Y 8
     6 SEP2       15 GROUP        1 Y    SEP  0     **** SEP Y 9
     7 ASP3       35 GROUP        1 Y    ASP  0     **** ASP Y 10
     8 GLP5        6 GROUP        1 Y    GLP  0     **** GLP Y 13
     9 ALL1        2 GROUP        1 Z    ALL  0     ROOT ALL Z 15
    10 SEL2       14 GROUP        1 Z    SEL  0     **** SEL Z 16
    11 ASL3       34 GROUP        1 Z    ASL  0     **** ASL Z 17
    12 GLL5        5 GROUP        1 Z    GLL  0     **** GLL Z 20
@<TRIPOS>SET

