#    Name: 2p83_MR0_3_ligand
#    Modification time : Mon Mar 24 18:27:12 2014

@<TRIPOS>MOLECULE
2p83_MR0_3_ligand
   83    85     1     0     0
SMALL
NO_CHARGES


@<TRIPOS>ATOM
      1 N1        -43.9030    9.8150   98.0970 N.am      1 MR0803      0.0000 
      2 C4        -44.0530   11.9250   99.3150 C.ar      1 MR0803      0.0000 
      3 C5        -45.2320   12.3040   98.5720 C.ar      1 MR0803      0.0000 
      4 C6        -46.9710   14.0730   97.8600 C.2       1 MR0803      0.0000 
      5 C7        -43.1610   15.1790  100.9790 C.2       1 MR0803      0.0000 
      6 C8        -43.5810   10.5420   99.2510 C.2       1 MR0803      0.0000 
      7 C10       -48.7760   12.4780   98.9750 C.3       1 MR0803      0.0000 
      8 C13       -48.7250   13.0140  100.4240 C.3       1 MR0803      0.0000 
      9 C15       -43.5800    8.3670   97.8360 C.3       1 MR0803      0.0000 
     10 C17       -44.9060    7.7720   97.2800 C.3       1 MR0803      0.0000 
     11 C20       -38.4790    7.8370   98.5150 C.ar      1 MR0803      0.0000 
     12 C21       -38.1860    8.4710   99.7630 C.ar      1 MR0803      0.0000 
     13 C22       -38.0260    7.6800  100.9590 C.ar      1 MR0803      0.0000 
     14 C24       -38.4640    5.5550   99.6540 C.ar      1 MR0803      0.0000 
     15 C26       -47.1200    8.2360  100.4850 C.ar      1 MR0803      0.0000 
     16 C28       -46.1340    8.1030   98.1860 C.ar      1 MR0803      0.0000 
     17 C         -45.7400   13.6710   98.6230 C.ar      1 MR0803      0.0000 
     18 C1        -45.0580   14.6290   99.4160 C.ar      1 MR0803      0.0000 
     19 C2        -43.8820   14.2180  100.1490 C.ar      1 MR0803      0.0000 
     20 C3        -43.3810   12.8740  100.0980 C.ar      1 MR0803      0.0000 
     21 O         -46.9060   15.1640   97.2250 O.2       1 MR0803      0.0000 
     22 N         -48.2080   13.3200   97.8320 N.am      1 MR0803      0.0000 
     23 C9        -48.9950   13.4180   96.5380 C.3       1 MR0803      0.0000 
     24 C11       -49.4820   12.0410   96.0060 C.3       1 MR0803      0.0000 
     25 C12       -48.4560   11.4200   95.0150 C.3       1 MR0803      0.0000 
     26 C14       -49.6730   14.2040  100.5450 C.3       1 MR0803      0.0000 
     27 O1        -42.9650   10.0310  100.1800 O.2       1 MR0803      0.0000 
     28 C16       -42.3870    8.0610   96.9540 C.3       1 MR0803      0.0000 
     29 C18       -41.1140    8.6060   97.5370 C.3       1 MR0803      0.0000 
     30 N2        -39.9700    8.2240   96.6500 N.4       1 MR0803      0.0000 
     31 C19       -38.6690    8.6690   97.2150 C.3       1 MR0803      0.0000 
     32 C23       -38.1660    6.2320  100.8950 C.ar      1 MR0803      0.0000 
     33 C25       -38.6120    6.3750   98.4890 C.ar      1 MR0803      0.0000 
     34 O3        -38.5700    4.1690   99.7370 O.3       1 MR0803      0.0000 
     35 C27       -46.0340    7.9410   99.6100 C.ar      1 MR0803      0.0000 
     36 C29       -47.3940    8.5870   97.6260 C.ar      1 MR0803      0.0000 
     37 C30       -48.5040    8.8890   98.5050 C.ar      1 MR0803      0.0000 
     38 C31       -48.3520    8.7110   99.9360 C.ar      1 MR0803      0.0000 
     39 O2        -42.2530    6.6390   96.8490 O.3       1 MR0803      0.0000 
     40 CO        -38.8570    3.3550   98.6030 C.3       1 MR0803      0.0000 
     41 N7A       -43.8930   15.8700  101.9330 N.am      1 MR0803      0.0000 
     42 O7B       -41.9080   15.3640  100.8170 O.2       1 MR0803      0.0000 
     43 F30       -49.6380    9.3240   98.0150 F         1 MR0803      0.0000 
     44 F26       -46.9930    8.0730  101.7990 F         1 MR0803      0.0000 
     45 H         -44.4217   10.2926   97.3122 H         1 MR0803      0.0000 
     46 H         -45.7172   11.6168   98.0062 H         1 MR0803      0.0000 
     47 H         -49.8506   12.2339   98.7367 H         1 MR0803      0.0000 
     48 H         -48.2667   11.4723   98.9627 H         1 MR0803      0.0000 
     49 H         -47.7168   13.3266  100.6472 H         1 MR0803      0.0000 
     50 H         -49.0343   12.2311  101.0989 H         1 MR0803      0.0000 
     51 H         -43.4446    7.8774   98.8214 H         1 MR0803      0.0000 
     52 H         -44.8057    6.6901   97.2079 H         1 MR0803      0.0000 
     53 H         -45.0858    8.1767   96.2851 H         1 MR0803      0.0000 
     54 H         -38.0893    9.4796   99.8133 H         1 MR0803      0.0000 
     55 H         -37.8177    8.1232  101.8398 H         1 MR0803      0.0000 
     56 H         -45.3776   15.5814   99.4754 H         1 MR0803      0.0000 
     57 H         -42.5521   12.6296  100.6260 H         1 MR0803      0.0000 
     58 H         -48.3736   13.8851   95.7623 H         1 MR0803      0.0000 
     59 H         -49.8745   14.0582   96.6882 H         1 MR0803      0.0000 
     60 H         -50.4299   12.1746   95.4946 H         1 MR0803      0.0000 
     61 H         -49.6159   11.3652   96.8445 H         1 MR0803      0.0000 
     62 H         -42.5480    8.4982   95.9865 H         1 MR0803      0.0000 
     63 H         -40.9627    8.1928   98.5311 H         1 MR0803      0.0000 
     64 H         -41.1798    9.6889   97.6067 H         1 MR0803      0.0000 
     65 H         -37.8629    8.4450   96.5507 H         1 MR0803      0.0000 
     66 H         -38.6964    9.7039   97.4783 H         1 MR0803      0.0000 
     67 H         -38.0500    5.6871  101.7492 H         1 MR0803      0.0000 
     68 H         -38.8221    5.9314   97.5819 H         1 MR0803      0.0000 
     69 H         -45.1465    7.6002  100.0071 H         1 MR0803      0.0000 
     70 H         -47.4839    8.7080   96.6316 H         1 MR0803      0.0000 
     71 H         -49.1343    8.9285  100.5478 H         1 MR0803      0.0000 
     72 H         -43.3747   16.4924  102.5195 H         1 MR0803      0.0000 
     73 H         -44.8757   15.6860  101.9519 H         1 MR0803      0.0000 
     74 H         -47.5653   11.2740   95.4456 H         1 MR0803      0.0000 
     75 H         -48.7633   10.5334   94.6694 H         1 MR0803      0.0000 
     76 H         -48.3046   12.0079   94.2203 H         1 MR0803      0.0000 
     77 H         -49.6748   14.5849  101.4696 H         1 MR0803      0.0000 
     78 H         -49.4200   14.9451   99.9232 H         1 MR0803      0.0000 
     79 H         -50.6163   13.9507  100.3305 H         1 MR0803      0.0000 
     80 H         -38.1616    3.4517   97.8909 H         1 MR0803      0.0000 
     81 H         -38.8980    2.3851   98.8429 H         1 MR0803      0.0000 
     82 H         -39.7358    3.5918   98.1887 H         1 MR0803      0.0000 
     83 H         -43.1572    6.3137   96.5722 H         1 MR0803      0.0000 
@<TRIPOS>BOND
     1    6    1 am   
     2    9    1 1    
     3   45    1 1    
     4    3    2 ar   
     5    6    2 1    
     6   20    2 ar   
     7   17    3 ar   
     8   46    3 1    
     9   17    4 1    
    10   21    4 2    
    11   22    4 am   
    12   19    5 1    
    13   41    5 am   
    14   42    5 2    
    15   27    6 2    
    16    8    7 1    
    17   22    7 1    
    18   47    7 1    
    19   48    7 1    
    20   26    8 1    
    21   49    8 1    
    22   50    8 1    
    23   10    9 1    
    24   28    9 1    
    25   51    9 1    
    26   16   10 1    
    27   52   10 1    
    28   53   10 1    
    29   12   11 ar   
    30   31   11 1    
    31   33   11 ar   
    32   13   12 ar   
    33   54   12 1    
    34   32   13 ar   
    35   55   13 1    
    36   32   14 ar   
    37   33   14 ar   
    38   34   14 1    
    39   35   15 ar   
    40   38   15 ar   
    41   44   15 1    
    42   35   16 ar   
    43   36   16 ar   
    44   18   17 ar   
    45   19   18 ar   
    46   56   18 1    
    47   20   19 ar   
    48   57   20 1    
    49   23   22 1    
    50   24   23 1    
    51   58   23 1    
    52   59   23 1    
    53   25   24 1    
    54   60   24 1    
    55   61   24 1    
    56   74   25 1    
    57   75   25 1    
    58   76   25 1    
    59   77   26 1    
    60   78   26 1    
    61   79   26 1    
    62   29   28 1    
    63   39   28 1    
    64   62   28 1    
    65   30   29 1    
    66   63   29 1    
    67   64   29 1    
    68   31   30 1    
    69   65   31 1    
    70   66   31 1    
    71   67   32 1    
    72   68   33 1    
    73   40   34 1    
    74   69   35 1    
    75   37   36 ar   
    76   70   36 1    
    77   38   37 ar   
    78   43   37 1    
    79   71   38 1    
    80   83   39 1    
    81   80   40 1    
    82   81   40 1    
    83   82   40 1    
    84   72   41 1    
    85   73   41 1    
@<TRIPOS>SUBSTRUCTURE
     1 MR0803      1 GROUP   
@<TRIPOS>SET

