#    Name: 4ckr_DI1_1_INTS_M
#    Modification time : Tue Mar 25 09:23:24 2014

@<TRIPOS>MOLECULE
4ckr_DI1_1_INTS_M
  110     0     9     0     0
SMALL
NO_CHARGES


@<TRIPOS>ATOM
      1 CA         -7.2215   36.7805   16.5925 C.3       3 GLC5        0.0000 
      2 CA         -6.0560   36.9310   14.7790 C.3       9 GLL5        0.0000 
      3 CA         -8.3870   36.6300   18.4060 C.3       6 GLP5        0.0000 
      4 CA         -3.6965   34.4715   12.0830 C.3       3 GLC5        0.0000 
      5 CA         -5.1170   35.5690   13.0430 C.3       9 GLL5        0.0000 
      6 CA         -2.2760   33.3740   11.1230 C.3       6 GLP5        0.0000 
      7 CA         -3.4835   37.3255   16.4275 C.3       3 GLC5        0.0000 
      8 CA         -4.0160   35.6850   15.1850 C.3       9 GLL5        0.0000 
      9 CA         -2.9510   38.9660   17.6700 C.3       6 GLP5        0.0000 
     10 CA          0.7600   32.9355   15.2955 C.3       3 GLC5        0.0000 
     11 CA         -0.7650   33.9060   14.3680 C.3       9 GLL5        0.0000 
     12 CA          2.2850   31.9650   16.2230 C.3       6 GLP5        0.0000 
     13 CA         -0.4480   31.9600   13.8610 C.3       3 GLC5        0.0000 
     14 CA         -0.1310   30.0140   13.3540 C.3       6 GLP5        0.0000 
     15 CA         -4.4065   33.5230   17.9460 C.3       3 GLC5        0.0000 
     16 CA         -3.0810   33.4250   16.7800 C.3       9 GLL5        0.0000 
     17 CA         -5.7320   33.6210   19.1120 C.3       6 GLP5        0.0000 
     18 CA          0.1490   31.9950   16.0030 C.3       3 GLC5        0.0000 
     19 CA         -1.9870   32.0250   15.7830 C.3       9 GLL5        0.0000 
     20 CA         -2.8750   30.3150   15.5130 C.3       3 GLC5        0.0000 
     21 CA         -3.7630   28.6050   15.2430 C.3       6 GLP5        0.0000 
     22 CA         -1.0590   31.0195   14.5685 C.3       3 GLC5        0.0000 
     23 CA         -3.7545   30.6370   15.1470 C.3       3 GLC5        0.0000 
     24 CA         -3.7460   32.6690   15.0510 C.3       9 GLL5        0.0000 
     25 CA         -3.0110   33.0215   13.0870 C.3       3 GLC5        0.0000 
     26 O           1.9000   36.8860   12.3880 O.2       1 ALC1        0.0000 
     27 O           2.0950   35.5220   12.8510 O.2       7 ALL1        0.0000 
     28 O           1.7050   38.2500   11.9250 O.2       4 ALP1        0.0000 
     29 CA          4.3370   38.2145   13.6795 C.3       3 GLC5        0.0000 
     30 CA          4.4220   36.1910   13.1980 C.3       9 GLL5        0.0000 
     31 CA          4.2520   40.2380   14.1610 C.3       6 GLP5        0.0000 
     32 CA          6.3490   37.8775   13.4220 C.3       3 GLC5        0.0000 
     33 CA          5.7550   36.0540   12.8720 C.3       9 GLL5        0.0000 
     34 CA          6.9430   39.7010   13.9720 C.3       6 GLP5        0.0000 
     35 CA          8.3750   34.4075    9.7355 C.3       3 GLC5        0.0000 
     36 CA          7.6360   34.9760   11.6120 C.3       9 GLL5        0.0000 
     37 CA          9.1140   33.8390    7.8590 C.3       6 GLP5        0.0000 
     38 CA          8.9560   33.6000   11.6985 C.3       3 GLC5        0.0000 
     39 CA         10.2760   32.2240   11.7850 C.3       6 GLP5        0.0000 
     40 CA          9.5860   35.7975   11.4025 C.3       3 GLC5        0.0000 
     41 CA         11.5360   36.6190   11.1930 C.3       6 GLP5        0.0000 
     42 CA          2.7320   33.8815    9.8380 C.3       3 GLC5        0.0000 
     43 CA          3.8600   34.5760   11.5270 C.3       9 GLL5        0.0000 
     44 CA          1.6040   33.1870    8.1490 C.3       6 GLP5        0.0000 
     45 CA          9.2645   30.4890    8.4480 C.3       3 GLC5        0.0000 
     46 CA          7.1980   30.5480    9.1460 C.3       9 GLL5        0.0000 
     47 CA         11.3310   30.4300    7.7500 C.3       6 GLP5        0.0000 
     48 CA          6.6090   29.7185   14.4035 C.3       3 GLC5        0.0000 
     49 CA          7.6330   29.4680   12.6060 C.3       9 GLL5        0.0000 
     50 CA          5.5850   29.9690   16.2010 C.3       6 GLP5        0.0000 
     51 CA          9.4400   28.7810   13.6100 C.3       3 GLC5        0.0000 
     52 CA         11.2470   28.0940   14.6140 C.3       6 GLP5        0.0000 
     53 N           9.3510   26.6945   13.2250 N.am      2 SEC2        0.0000 
     54 N           8.7450   27.3300   12.2440 N.am      8 SEL2        0.0000 
     55 N           9.9570   26.0590   14.2060 N.am      5 SEP2        0.0000 
     56 N           0.5340   32.5530   12.4435 N.am      2 SEC2        0.0000 
     57 N           1.5960   33.3270   13.0940 N.am      8 SEL2        0.0000 
     58 N          -0.5280   31.7790   11.7930 N.am      5 SEP2        0.0000 
     59 CA         -9.7137   36.6715   10.8643 C.3       3 GLC5        0.0000 
     60 CA         -7.7910   37.6510   11.5290 C.3       9 GLL5        0.0000 
     61 CA        -10.9690   35.4320   10.0210 C.3       6 GLP5        0.0000 
     62 CA         -7.0445   34.5643   12.8505 C.3       3 GLC5        0.0000 
     63 CA         -5.8590   36.3580   12.0130 C.3       9 GLL5        0.0000 
     64 CA         -8.6010   33.1650   13.1730 C.3       6 GLP5        0.0000 
     65 CA         -2.6543   35.4505   17.0125 C.3       3 GLC5        0.0000 
     66 CA         -1.9920   35.3530   19.0850 C.3       6 GLP5        0.0000 
     67 CA         -2.2727   34.6347   12.7320 C.3       3 GLC5        0.0000 
     68 CA         -2.6170   35.4110   14.6950 C.3       9 GLL5        0.0000 
     69 CA         -0.4437   38.0605   13.4030 C.3       3 GLC5        0.0000 
     70 CA         -1.9220   36.3800   13.9870 C.3       9 GLL5        0.0000 
     71 CA          0.4070   39.8700   13.0740 C.3       6 GLP5        0.0000 
     72 CA          0.0697   36.2620   15.1685 C.3       3 GLC5        0.0000 
     73 CA         -0.6670   36.1220   13.4770 C.3       9 GLL5        0.0000 
     74 CA          1.4340   36.2730   16.6050 C.3       6 GLP5        0.0000 
     75 CA         -1.3260   34.4363   12.3428 C.3       3 GLC5        0.0000 
     76 CA         -1.8350   33.7048   12.8773 C.3       3 GLC5        0.0000 
     77 CA          0.1050   35.2754   15.5282 C.3       3 GLC5        0.0000 
     78 CA         -2.0230   34.1650   14.8950 C.3       9 GLL5        0.0000 
     79 CA         -4.7890   32.3110   16.4488 C.3       3 GLC5        0.0000 
     80 CA         -2.7120   33.0710   15.6340 C.3       9 GLL5        0.0000 
     81 CA         -6.3490   31.7520   17.5550 C.3       6 GLP5        0.0000 
     82 CA         -4.5335   31.8910   14.4243 C.3       3 GLC5        0.0000 
     83 CA         -5.8380   30.9120   13.5060 C.3       6 GLP5        0.0000 
     84 CA         -2.3581   34.4372   17.5536 C.3       3 GLC5        0.0000 
     85 CA         -1.6404   32.1727   17.6710 C.3       3 GLC5        0.0000 
     86 CA         -0.8390   31.7090   19.3470 C.3       6 GLP5        0.0000 
     87 CA          4.3892   36.7612   11.0960 C.3       3 GLC5        0.0000 
     88 CA          3.4690   35.4400   12.5340 C.3       9 GLL5        0.0000 
     89 CA          4.8330   37.7070    9.3260 C.3       6 GLP5        0.0000 
     90 CA          3.4688   35.6502   14.9345 C.3       3 GLC5        0.0000 
     91 CA          2.9920   35.4850   17.0030 C.3       6 GLP5        0.0000 
     92 CA          5.9428   35.2608   14.3675 C.3       3 GLC5        0.0000 
     93 CA          6.7970   34.3990   15.7000 C.3       6 GLP5        0.0000 
     94 CA          6.8513   34.7323   13.7292 C.3       3 GLC5        0.0000 
     95 CA          6.1750   35.1550   11.9050 C.3       9 GLL5        0.0000 
     96 CA          7.0017   36.6816   10.9821 C.3       3 GLC5        0.0000 
     97 CA          7.2030   38.0730    9.9640 C.3       6 GLP5        0.0000 
     98 CA          4.6805   36.1043   10.3515 C.3       3 GLC5        0.0000 
     99 CA          5.1960   34.4270   11.2270 C.3       9 GLL5        0.0000 
    100 CA          8.3235   32.0985   11.4067 C.3       3 GLC5        0.0000 
    101 CA          6.2220   32.3040   10.4380 C.3       9 GLL5        0.0000 
    102 CA          6.1940   31.1295    7.2745 C.3       3 GLC5        0.0000 
    103 CA          6.5720   31.7760    9.2140 C.3       9 GLL5        0.0000 
    104 CA          5.5030   31.0970    5.3690 C.3       6 GLP5        0.0000 
    105 CA          7.9558   32.5665    8.6725 C.3       3 GLC5        0.0000 
    106 CA          8.8110   31.2192   10.7578 C.3       3 GLC5        0.0000 
    107 CA          8.8362   31.0835   11.9320 C.3       3 GLC5        0.0000 
    108 CA          7.1600   30.4180   11.5520 C.3       9 GLL5        0.0000 
    109 CA          6.1103   28.7215   12.7105 C.3       3 GLC5        0.0000 
    110 CA          4.8240   27.5000   13.3420 C.3       6 GLP5        0.0000 
@<TRIPOS>BOND
@<TRIPOS>SUBSTRUCTURE
     1 ALC1       26 GROUP        1 X    ALC  0     ROOT ALC X 1
     2 SEC2       53 GROUP        1 X    SEC  0     **** SEC X 2
     3 GLC5        1 GROUP        1 X    GLC  0     **** GLC X 6
     4 ALP1       28 GROUP        1 Y    ALP  0     ROOT ALP Y 8
     5 SEP2       55 GROUP        1 Y    SEP  0     **** SEP Y 9
     6 GLP5        3 GROUP        1 Y    GLP  0     **** GLP Y 13
     7 ALL1       27 GROUP        1 Z    ALL  0     ROOT ALL Z 15
     8 SEL2       54 GROUP        1 Z    SEL  0     **** SEL Z 16
     9 GLL5        2 GROUP        1 Z    GLL  0     **** GLL Z 20
@<TRIPOS>SET

