#    Name: 4ckr_DI1_1_ligand
#    Modification time : Tue Mar 25 09:23:24 2014

@<TRIPOS>MOLECULE
4ckr_DI1_1_ligand
   72    76     1     0     0
SMALL
NO_CHARGES


@<TRIPOS>ATOM
      1 C01        -9.1260   38.1710   11.8860 C.3       1 DI11000     0.0000 
      2 C02        -7.7910   37.6510   11.5290 C.3       1 DI11000     0.0000 
      3 N03        -7.1170   36.8740   12.5650 N.3       1 DI11000     0.0000 
      4 C04        -6.8430   37.7090   13.7390 C.3       1 DI11000     0.0000 
      5 C05        -6.0560   36.9310   14.7790 C.3       1 DI11000     0.0000 
      6 N06        -4.8140   36.4090   14.1970 N.4       1 DI11000     0.0000 
      7 C07        -5.1170   35.5690   13.0430 C.3       1 DI11000     0.0000 
      8 C08        -5.8590   36.3580   12.0130 C.3       1 DI11000     0.0000 
      9 C09        -4.0160   35.6850   15.1850 C.3       1 DI11000     0.0000 
     10 C10        -2.6170   35.4110   14.6950 C.ar      1 DI11000     0.0000 
     11 C11        -1.9220   36.3800   13.9870 C.ar      1 DI11000     0.0000 
     12 C12        -0.6670   36.1220   13.4770 C.ar      1 DI11000     0.0000 
     13 C13        -0.0850   34.8750   13.6480 C.ar      1 DI11000     0.0000 
     14 C14        -0.7650   33.9060   14.3680 C.ar      1 DI11000     0.0000 
     15 C15        -2.0230   34.1650   14.8950 C.ar      1 DI11000     0.0000 
     16 C16        -2.7120   33.0710   15.6340 C.3       1 DI11000     0.0000 
     17 F17        -3.0810   33.4250   16.7800 F         1 DI11000     0.0000 
     18 F18        -1.9870   32.0250   15.7830 F         1 DI11000     0.0000 
     19 F19        -3.7460   32.6690   15.0510 F         1 DI11000     0.0000 
     20 C20         1.2870   34.5010   13.2100 C.2       1 DI11000     0.0000 
     21 N21         2.0950   35.5220   12.8510 N.am      1 DI11000     0.0000 
     22 C22         3.4690   35.4400   12.5340 C.ar      1 DI11000     0.0000 
     23 C23         4.4220   36.1910   13.1980 C.ar      1 DI11000     0.0000 
     24 C24         5.7550   36.0540   12.8720 C.ar      1 DI11000     0.0000 
     25 C25         6.1750   35.1550   11.9050 C.ar      1 DI11000     0.0000 
     26 C26         7.6360   34.9760   11.6120 C.3       1 DI11000     0.0000 
     27 C27         5.1960   34.4270   11.2270 C.ar      1 DI11000     0.0000 
     28 C28         3.8600   34.5760   11.5270 C.ar      1 DI11000     0.0000 
     29 O29         5.3360   33.3400   10.4310 O.3       1 DI11000     0.0000 
     30 C30         6.2220   32.3040   10.4380 C.ar      1 DI11000     0.0000 
     31 C31         6.5720   31.7760    9.2140 C.ar      1 DI11000     0.0000 
     32 C32         7.1980   30.5480    9.1460 C.ar      1 DI11000     0.0000 
     33 C33         7.4940   29.8810   10.3150 C.ar      1 DI11000     0.0000 
     34 C34         7.1600   30.4180   11.5520 C.ar      1 DI11000     0.0000 
     35 C35         7.6330   29.4680   12.6060 C.3       1 DI11000     0.0000 
     36 C36         8.2480   28.3510   11.8130 C.2       1 DI11000     0.0000 
     37 N37         8.1410   28.6740   10.4980 N.am      1 DI11000     0.0000 
     38 O38         8.7450   27.3300   12.2440 O.2       1 DI11000     0.0000 
     39 C39         6.5200   31.6420   11.6190 C.ar      1 DI11000     0.0000 
     40 O40         1.5960   33.3270   13.0940 O.2       1 DI11000     0.0000 
     41 H          -7.1378   38.5119   11.2237 H         1 DI11000     0.0000 
     42 H          -7.8822   37.0309   10.5973 H         1 DI11000     0.0000 
     43 H          -7.7789   38.0517   14.1955 H         1 DI11000     0.0000 
     44 H          -6.2634   38.5951   13.4552 H         1 DI11000     0.0000 
     45 H          -6.6820   36.1123   15.1490 H         1 DI11000     0.0000 
     46 H          -5.8372   37.5969   15.6203 H         1 DI11000     0.0000 
     47 H          -4.2195   37.2750   13.8397 H         1 DI11000     0.0000 
     48 H          -5.7289   34.7095   13.3444 H         1 DI11000     0.0000 
     49 H          -4.1923   35.1805   12.5982 H         1 DI11000     0.0000 
     50 H          -5.2262   37.1880   11.6712 H         1 DI11000     0.0000 
     51 H          -6.0608   35.7161   11.1450 H         1 DI11000     0.0000 
     52 H          -4.4952   34.7223   15.4348 H         1 DI11000     0.0000 
     53 H          -3.9522   36.2617   16.1243 H         1 DI11000     0.0000 
     54 H          -2.3553   37.3112   13.8408 H         1 DI11000     0.0000 
     55 H          -0.1553   36.8587   12.9647 H         1 DI11000     0.0000 
     56 H          -0.3312   32.9781   14.5153 H         1 DI11000     0.0000 
     57 H           1.6691   36.5118   12.7936 H         1 DI11000     0.0000 
     58 H           4.1345   36.8516   13.9352 H         1 DI11000     0.0000 
     59 H           6.4642   36.6383   13.3622 H         1 DI11000     0.0000 
     60 H           3.1486   34.0441   11.0019 H         1 DI11000     0.0000 
     61 H           6.3663   32.2982    8.3479 H         1 DI11000     0.0000 
     62 H           7.4394   30.1380    8.2371 H         1 DI11000     0.0000 
     63 H           6.8072   29.1026   13.1706 H         1 DI11000     0.0000 
     64 H           8.3724   29.9322   13.2159 H         1 DI11000     0.0000 
     65 H           8.4780   28.1254    9.7586 H         1 DI11000     0.0000 
     66 H           6.2709   32.0519   12.5209 H         1 DI11000     0.0000 
     67 H          -9.0880   38.7784   12.6795 H         1 DI11000     0.0000 
     68 H          -9.5339   38.6927   11.1367 H         1 DI11000     0.0000 
     69 H          -9.7635   37.4342   12.1112 H         1 DI11000     0.0000 
     70 H           8.0603   35.8279   11.3050 H         1 DI11000     0.0000 
     71 H           8.1419   34.6707   12.4188 H         1 DI11000     0.0000 
     72 H           7.7904   34.2965   10.8947 H         1 DI11000     0.0000 
@<TRIPOS>BOND
     1    2    1 1    
     2   67    1 1    
     3   68    1 1    
     4   69    1 1    
     5    3    2 1    
     6   41    2 1    
     7   42    2 1    
     8    4    3 1    
     9    8    3 1    
    10    5    4 1    
    11   43    4 1    
    12   44    4 1    
    13    6    5 1    
    14   45    5 1    
    15   46    5 1    
    16    7    6 1    
    17    9    6 1    
    18   47    6 1    
    19    8    7 1    
    20   48    7 1    
    21   49    7 1    
    22   50    8 1    
    23   51    8 1    
    24   10    9 1    
    25   52    9 1    
    26   53    9 1    
    27   11   10 ar   
    28   15   10 ar   
    29   12   11 ar   
    30   54   11 1    
    31   13   12 ar   
    32   55   12 1    
    33   14   13 ar   
    34   20   13 1    
    35   15   14 ar   
    36   56   14 1    
    37   16   15 1    
    38   17   16 1    
    39   18   16 1    
    40   19   16 1    
    41   21   20 am   
    42   40   20 2    
    43   22   21 1    
    44   57   21 1    
    45   23   22 ar   
    46   28   22 ar   
    47   24   23 ar   
    48   58   23 1    
    49   25   24 ar   
    50   59   24 1    
    51   26   25 1    
    52   27   25 ar   
    53   70   26 1    
    54   71   26 1    
    55   72   26 1    
    56   28   27 ar   
    57   29   27 1    
    58   60   28 1    
    59   30   29 1    
    60   31   30 ar   
    61   39   30 ar   
    62   32   31 ar   
    63   61   31 1    
    64   33   32 ar   
    65   62   32 1    
    66   34   33 ar   
    67   37   33 1    
    68   35   34 1    
    69   39   34 ar   
    70   36   35 1    
    71   63   35 1    
    72   64   35 1    
    73   37   36 am   
    74   38   36 2    
    75   65   37 1    
    76   66   39 1    
@<TRIPOS>SUBSTRUCTURE
     1 DI11000     1 GROUP   
@<TRIPOS>SET

