#    Name: 3st5_G89_1_INTS_M
#    Modification time : Mon Mar 24 18:35:13 2014

@<TRIPOS>MOLECULE
3st5_G89_1_INTS_M
   91     0     9     0     0
SMALL
NO_CHARGES


@<TRIPOS>ATOM
      1 CA         15.5315   18.4260   19.9650 C.3       3 GLC5        0.0000 
      2 CA         13.7380   18.9240   19.1370 C.3       9 GLL5        0.0000 
      3 CA         17.3250   17.9280   20.7930 C.3       6 GLP5        0.0000 
      4 CA         14.5880   19.9250   20.8715 C.3       3 GLC5        0.0000 
      5 CA         15.4380   20.9260   22.6060 C.3       6 GLP5        0.0000 
      6 CA         12.2535   20.3540   20.7630 C.3       3 GLC5        0.0000 
      7 CA         12.6040   18.3670   20.0140 C.3       9 GLL5        0.0000 
      8 CA         11.9030   22.3410   21.5120 C.3       6 GLP5        0.0000 
      9 CA         13.5515   17.8085   21.8640 C.3       3 GLC5        0.0000 
     10 CA         14.4990   17.2500   23.7140 C.3       6 GLP5        0.0000 
     11 CA         13.7475   16.6270   20.4435 C.3       3 GLC5        0.0000 
     12 CA         14.8910   14.8870   20.8730 C.3       6 GLP5        0.0000 
     13 CA          9.4455   18.5390   19.3865 C.3       3 GLC5        0.0000 
     14 CA         11.5310   17.9550   19.0080 C.3       9 GLL5        0.0000 
     15 CA          7.3600   19.1230   19.7650 C.3       6 GLP5        0.0000 
     16 N           9.9755   19.9695   19.4325 N.am      2 SEC2        0.0000 
     17 N          10.8600   19.1430   18.6130 N.am      8 SEL2        0.0000 
     18 N           9.0910   20.7960   20.2520 N.am      5 SEP2        0.0000 
     19 CA         10.9170   20.8815   18.7925 C.3       3 GLC5        0.0000 
     20 CA         10.9240   19.3400   17.2130 C.3       9 GLL5        0.0000 
     21 CA         10.9100   22.4230   20.3720 C.3       6 GLP5        0.0000 
     22 CA          9.1420   19.2315   18.4890 C.3       3 GLC5        0.0000 
     23 CA         15.0770   18.0150   16.4595 C.3       3 GLC5        0.0000 
     24 CA         13.6880   18.0360   17.8950 C.3       9 GLL5        0.0000 
     25 CA         16.4660   17.9940   15.0240 C.3       6 GLP5        0.0000 
     26 CA         16.9185   21.7245   21.1755 C.3       3 GLC5        0.0000 
     27 CA         18.3990   22.5230   19.7450 C.3       9 GLL5        0.0000 
     28 CA         18.7440   25.7890   22.1870 C.3       3 GLC5        0.0000 
     29 CA         19.3430   24.4580   20.9400 C.3       9 GLL5        0.0000 
     30 CA         18.1450   27.1200   23.4340 C.3       6 GLP5        0.0000 
     31 CA         19.8895   24.1045   22.5920 C.3       3 GLC5        0.0000 
     32 CA         20.4360   23.7510   24.2440 C.3       6 GLP5        0.0000 
     33 CA         18.2145   23.7310   22.4950 C.3       3 GLC5        0.0000 
     34 CA         17.0860   23.0040   24.0500 C.3       6 GLP5        0.0000 
     35 CA         16.9750   27.1705   17.4360 C.3       3 GLC5        0.0000 
     36 CA         16.5180   25.0850   17.4030 C.3       9 GLL5        0.0000 
     37 CA         17.4320   29.2560   17.4690 C.3       6 GLP5        0.0000 
     38 N          13.7755   26.2980   18.3355 N.am      2 SEC2        0.0000 
     39 N          14.2280   24.9750   18.2860 N.am      8 SEL2        0.0000 
     40 N          13.3230   27.6210   18.3850 N.am      5 SEP2        0.0000 
     41 O          13.7555   25.5495   19.4655 O.2       1 ALC1        0.0000 
     42 O          14.2280   24.9750   18.2860 O.2       7 ALL1        0.0000 
     43 O          13.2830   26.1240   20.6450 O.2       4 ALP1        0.0000 
     44 O          14.4875   24.7680   19.8095 O.2       1 ALC1        0.0000 
     45 O          14.7470   24.5610   21.3330 O.2       4 ALP1        0.0000 
     46 O          12.5580   22.7260   17.7280 O.2       1 ALC1        0.0000 
     47 O          14.1020   22.1690   17.7300 O.2       7 ALL1        0.0000 
     48 O          11.0140   23.2830   17.7260 O.2       4 ALP1        0.0000 
     49 CA         11.3180   23.4950   14.6395 C.3       3 GLC5        0.0000 
     50 CA         12.6510   21.8760   14.6830 C.3       9 GLL5        0.0000 
     51 CA          9.9850   25.1140   14.5960 C.3       6 GLP5        0.0000 
     52 CA         17.1345   26.1670   13.7965 C.3       3 GLC5        0.0000 
     53 CA         18.8380   26.6510   14.9570 C.3       9 GLL5        0.0000 
     54 CA         15.4310   25.6830   12.6360 C.3       6 GLP5        0.0000 
     55 CA         22.9365   26.3180   13.9365 C.3       3 GLC5        0.0000 
     56 CA         21.5280   26.6990   15.5300 C.3       9 GLL5        0.0000 
     57 CA         24.3450   25.9370   12.3430 C.3       6 GLP5        0.0000 
     58 CA         21.0780   29.7945   13.9990 C.3       3 GLC5        0.0000 
     59 CA         20.9330   27.8080   14.9370 C.3       9 GLL5        0.0000 
     60 CA         21.2230   31.7810   13.0610 C.3       6 GLP5        0.0000 
     61 CA         21.5285   26.9595   12.9775 C.3       3 GLC5        0.0000 
     62 CA         22.1240   26.1110   11.0180 C.3       6 GLP5        0.0000 
     63 N          20.7790   30.3695   14.9020 N.am      2 SEC2        0.0000 
     64 N          21.5970   28.9600   14.6630 N.am      8 SEL2        0.0000 
     65 N          19.9610   31.7790   15.1410 N.am      5 SEP2        0.0000 
     66 CA         22.3370   30.2485   16.3540 C.3       3 GLC5        0.0000 
     67 CA         22.9720   28.8560   14.9670 C.3       9 GLL5        0.0000 
     68 CA         21.7020   31.6410   17.7410 C.3       6 GLP5        0.0000 
     69 CA         22.0975   30.3185   14.0140 C.3       3 GLC5        0.0000 
     70 CA         23.9005   28.0930   13.4775 C.3       3 GLC5        0.0000 
     71 CA         24.8290   27.3300   11.9880 C.3       6 GLP5        0.0000 
     72 CA         13.2260   15.7995   18.4415 C.3       3 GLC5        0.0000 
     73 CA         13.4690   13.8440   19.0480 C.3       6 GLP5        0.0000 
     74 CA         14.5760   19.8355   11.7462 C.3       3 GLC5        0.0000 
     75 CA         13.3830   20.1090   13.2160 C.3       9 GLL5        0.0000 
     76 CA         15.1210   19.3230   10.2030 C.3       6 GLP5        0.0000 
     77 CA         11.8801   21.1283   12.2103 C.3       3 GLC5        0.0000 
     78 CA         10.8110   21.5460   10.6560 C.3       6 GLP5        0.0000 
     79 CA         16.6798   20.6112   13.2293 C.3       3 GLC5        0.0000 
     80 CA         14.6790   20.5870   13.3630 C.3       9 GLL5        0.0000 
     81 CA         18.5360   20.0840   12.7000 C.3       6 GLP5        0.0000 
     82 CA         14.9827   23.9971   13.6769 C.3       3 GLC5        0.0000 
     83 CA         14.9680   21.6900   14.1540 C.3       9 GLL5        0.0000 
     84 CA         15.4827   19.5065   14.3729 C.3       3 GLC5        0.0000 
     85 CA         19.1628   24.9423   13.6013 C.3       3 GLC5        0.0000 
     86 CA         19.4330   25.5380   15.5260 C.3       9 GLL5        0.0000 
     87 CA         19.1900   23.7900   11.9610 C.3       6 GLP5        0.0000 
     88 CA         17.9105   28.2022   15.4870 C.3       3 GLC5        0.0000 
     89 CA         16.6170   29.1860   16.1830 C.3       6 GLP5        0.0000 
     90 CA         19.5478   27.7781   12.8705 C.3       3 GLC5        0.0000 
     91 CA         19.0270   28.0430   10.8770 C.3       6 GLP5        0.0000 
@<TRIPOS>BOND
@<TRIPOS>SUBSTRUCTURE
     1 ALC1       41 GROUP        1 X    ALC  0     ROOT ALC X 1
     2 SEC2       16 GROUP        1 X    SEC  0     **** SEC X 2
     3 GLC5        1 GROUP        1 X    GLC  0     **** GLC X 6
     4 ALP1       43 GROUP        1 Y    ALP  0     ROOT ALP Y 8
     5 SEP2       18 GROUP        1 Y    SEP  0     **** SEP Y 9
     6 GLP5        3 GROUP        1 Y    GLP  0     **** GLP Y 13
     7 ALL1       42 GROUP        1 Z    ALL  0     ROOT ALL Z 15
     8 SEL2       17 GROUP        1 Z    SEL  0     **** SEL Z 16
     9 GLL5        2 GROUP        1 Z    GLL  0     **** GLL Z 20
@<TRIPOS>SET

