#    Name: 3st5_G89_1_ligand
#    Modification time : Mon Mar 24 18:35:13 2014

@<TRIPOS>MOLECULE
3st5_G89_1_ligand
   80    83     1     0     0
SMALL
NO_CHARGES


@<TRIPOS>ATOM
      1 C21        14.4150   20.9620   18.1820 C.2       1 G89201      0.0000 
      2 O22        15.5330   20.4550   18.0540 O.2       1 G89201      0.0000 
      3 O23        13.4320   20.2870   18.8270 O.3       1 G89201      0.0000 
      4 C24        13.7380   18.9240   19.1370 C.3       1 G89201      0.0000 
      5 C25        12.6040   18.3670   20.0140 C.3       1 G89201      0.0000 
      6 C26        11.5310   17.9550   19.0080 C.3       1 G89201      0.0000 
      7 O27        10.8600   19.1430   18.6130 O.3       1 G89201      0.0000 
      8 C28        10.9240   19.3400   17.2130 C.3       1 G89201      0.0000 
      9 C29        11.5020   18.0550   16.5970 C.3       1 G89201      0.0000 
     10 C30        12.2780   17.4740   17.7750 C.3       1 G89201      0.0000 
     11 C31        13.6880   18.0360   17.8950 C.3       1 G89201      0.0000 
     12 O41        10.3420   17.2900   16.2010 O.3       1 G89201      0.0000 
     13 N11        17.7750   24.3590   17.4450 N.pl3     1 G89201      0.0000 
     14 C12        18.7320   24.7000   18.4920 C.3       1 G89201      0.0000 
     15 C13        18.3590   24.0590   19.8340 C.3       1 G89201      0.0000 
     16 C14        18.3990   22.5230   19.7450 C.3       1 G89201      0.0000 
     17 C15        19.3430   24.4580   20.9400 C.3       1 G89201      0.0000 
     18 C16        16.5180   25.0850   17.4030 C.3       1 G89201      0.0000 
     19 C17        15.3770   24.2200   17.9180 C.3       1 G89201      0.0000 
     20 O18        14.2280   24.9750   18.2860 O.3       1 G89201      0.0000 
     21 C19        15.0010   23.0740   16.9860 C.3       1 G89201      0.0000 
     22 N20        14.1020   22.1690   17.7300 N.am      1 G89201      0.0000 
     23 C32        14.2510   23.5320   15.7290 C.3       1 G89201      0.0000 
     24 C33        12.6510   21.8760   14.6830 C.ar      1 G89201      0.0000 
     25 C34        12.3800   20.7480   13.9430 C.ar      1 G89201      0.0000 
     26 C35        13.3830   20.1090   13.2160 C.ar      1 G89201      0.0000 
     27 C36        14.6790   20.5870   13.3630 C.ar      1 G89201      0.0000 
     28 C37        14.9680   21.6900   14.1540 C.ar      1 G89201      0.0000 
     29 C38        13.9510   22.3330   14.8340 C.ar      1 G89201      0.0000 
     30 S8         18.4630   24.1540   15.9720 S.o2      1 G89201      0.0000 
     31 O9         17.3650   24.0040   14.9650 O.2       1 G89201      0.0000 
     32 O10        19.3810   22.9740   16.0730 O.2       1 G89201      0.0000 
     33 C5         19.4330   25.5380   15.5260 C.ar      1 G89201      0.0000 
     34 C6         18.8380   26.6510   14.9570 C.ar      1 G89201      0.0000 
     35 C4         20.7910   25.5450   15.8140 C.ar      1 G89201      0.0000 
     36 C7         19.5700   27.7860   14.6250 C.ar      1 G89201      0.0000 
     37 C3         21.5280   26.6990   15.5300 C.ar      1 G89201      0.0000 
     38 C2         20.9330   27.8080   14.9370 C.ar      1 G89201      0.0000 
     39 O39        21.5970   28.9600   14.6630 O.3       1 G89201      0.0000 
     40 C40        22.9720   28.8560   14.9670 C.3       1 G89201      0.0000 
     41 H          14.6425   18.7818   19.6365 H         1 G89201      0.0000 
     42 H          12.2338   19.1342   20.6441 H         1 G89201      0.0000 
     43 H          12.9500   17.5165   20.5428 H         1 G89201      0.0000 
     44 H          10.9321   17.2234   19.3854 H         1 G89201      0.0000 
     45 H          11.5823   20.1599   16.9377 H         1 G89201      0.0000 
     46 H           9.9448   19.5035   16.7705 H         1 G89201      0.0000 
     47 H          12.1345   18.3248   15.8290 H         1 G89201      0.0000 
     48 H          12.2774   16.4354   17.7529 H         1 G89201      0.0000 
     49 H          14.3922   17.2276   18.0034 H         1 G89201      0.0000 
     50 H          13.9184   18.6256   17.0230 H         1 G89201      0.0000 
     51 H          18.7809   25.7892   18.6391 H         1 G89201      0.0000 
     52 H          19.7437   24.3606   18.2244 H         1 G89201      0.0000 
     53 H          17.3754   24.3570   20.1236 H         1 G89201      0.0000 
     54 H          16.2772   25.3951   16.3775 H         1 G89201      0.0000 
     55 H          16.5668   25.9915   18.0208 H         1 G89201      0.0000 
     56 H          15.7743   23.7175   18.8578 H         1 G89201      0.0000 
     57 H          15.8818   22.5423   16.6968 H         1 G89201      0.0000 
     58 H          13.1265   22.5752   17.8888 H         1 G89201      0.0000 
     59 H          14.8652   24.2433   15.1870 H         1 G89201      0.0000 
     60 H          13.3205   24.0063   16.0223 H         1 G89201      0.0000 
     61 H          11.8748   22.3948   15.1360 H         1 G89201      0.0000 
     62 H          11.4180   20.3616   13.9208 H         1 G89201      0.0000 
     63 H          13.1739   19.3311   12.6083 H         1 G89201      0.0000 
     64 H          15.4560   20.1031   12.8648 H         1 G89201      0.0000 
     65 H          15.9372   22.0261   14.2323 H         1 G89201      0.0000 
     66 H          17.8124   26.6408   14.7710 H         1 G89201      0.0000 
     67 H          21.2442   24.7313   16.2225 H         1 G89201      0.0000 
     68 H          19.1304   28.5782   14.1689 H         1 G89201      0.0000 
     69 H          22.5360   26.7256   15.7669 H         1 G89201      0.0000 
     70 H          19.3078   22.1890   19.4948 H         1 G89201      0.0000 
     71 H          18.1586   22.0941   20.6158 H         1 G89201      0.0000 
     72 H          17.7596   22.1739   19.0599 H         1 G89201      0.0000 
     73 H          20.2776   24.1742   20.7257 H         1 G89201      0.0000 
     74 H          19.3622   25.4479   21.0806 H         1 G89201      0.0000 
     75 H          19.1042   24.0419   21.8174 H         1 G89201      0.0000 
     76 H          23.4140   28.1274   14.4438 H         1 G89201      0.0000 
     77 H          23.4627   29.7029   14.7623 H         1 G89201      0.0000 
     78 H          23.1243   28.6556   15.9348 H         1 G89201      0.0000 
     79 H          10.6580   16.3420   16.1629 H         1 G89201      0.0000 
     80 H          14.2317   24.9808   19.2859 H         1 G89201      0.0000 
@<TRIPOS>BOND
     1    2    1 2    
     2    3    1 1    
     3   22    1 am   
     4    4    3 1    
     5    5    4 1    
     6   11    4 1    
     7   41    4 1    
     8    6    5 1    
     9   42    5 1    
    10   43    5 1    
    11    7    6 1    
    12   10    6 1    
    13   44    6 1    
    14    8    7 1    
    15    9    8 1    
    16   45    8 1    
    17   46    8 1    
    18   10    9 1    
    19   12    9 1    
    20   47    9 1    
    21   11   10 1    
    22   48   10 1    
    23   49   11 1    
    24   50   11 1    
    25   79   12 1    
    26   14   13 1    
    27   18   13 1    
    28   30   13 1    
    29   15   14 1    
    30   51   14 1    
    31   52   14 1    
    32   16   15 1    
    33   17   15 1    
    34   53   15 1    
    35   70   16 1    
    36   71   16 1    
    37   72   16 1    
    38   73   17 1    
    39   74   17 1    
    40   75   17 1    
    41   19   18 1    
    42   54   18 1    
    43   55   18 1    
    44   20   19 1    
    45   21   19 1    
    46   56   19 1    
    47   80   20 1    
    48   22   21 1    
    49   23   21 1    
    50   57   21 1    
    51   58   22 1    
    52   29   23 1    
    53   59   23 1    
    54   60   23 1    
    55   25   24 ar   
    56   29   24 ar   
    57   61   24 1    
    58   26   25 ar   
    59   62   25 1    
    60   27   26 ar   
    61   63   26 1    
    62   28   27 ar   
    63   64   27 1    
    64   29   28 ar   
    65   65   28 1    
    66   31   30 2    
    67   32   30 2    
    68   33   30 1    
    69   34   33 ar   
    70   35   33 ar   
    71   36   34 ar   
    72   66   34 1    
    73   37   35 ar   
    74   67   35 1    
    75   38   36 ar   
    76   68   36 1    
    77   38   37 ar   
    78   69   37 1    
    79   39   38 1    
    80   40   39 1    
    81   76   40 1    
    82   77   40 1    
    83   78   40 1    
@<TRIPOS>SUBSTRUCTURE
     1 G89201      1 GROUP   
@<TRIPOS>SET

