#    Name: 4jnc_1LF_1_INTS_M
#    Modification time : Tue Mar 25 06:06:55 2014

@<TRIPOS>MOLECULE
4jnc_1LF_1_INTS_M
   84     0     9     0     0
SMALL
NO_CHARGES


@<TRIPOS>ATOM
      1 O         -14.0210   23.4010  -13.0995 O.2       1 ALC1        0.0000 
      2 O         -13.9560   24.1020  -11.9650 O.2       7 ALL1        0.0000 
      3 O         -14.0860   22.7000  -14.2340 O.2       4 ALP1        0.0000 
      4 O         -13.2190   22.9145  -12.5250 O.2       1 ALC1        0.0000 
      5 O         -12.4820   21.7270  -13.0850 O.2       4 ALP1        0.0000 
      6 CA        -18.4370   26.5085  -13.9420 C.3       3 GLC5        0.0000 
      7 CA        -17.8940   24.8920  -13.1780 C.3       9 GLL5        0.0000 
      8 CA        -18.9800   28.1250  -14.7060 C.3       6 GLP5        0.0000 
      9 CA         -7.3930   29.1155  -16.9565 C.3       3 GLC5        0.0000 
     10 CA         -6.9660   30.6950  -15.7960 C.3       9 GLL5        0.0000 
     11 CA         -7.8200   27.5360  -18.1170 C.3       6 GLP5        0.0000 
     12 CA         -8.5785   28.7490  -17.0390 C.3       3 GLC5        0.0000 
     13 CA         -9.3370   29.9620  -15.9610 C.3       9 GLL5        0.0000 
     14 CA        -12.0625   29.2310  -20.6335 C.3       3 GLC5        0.0000 
     15 CA        -11.5870   29.8190  -18.9130 C.3       9 GLL5        0.0000 
     16 CA        -12.5380   28.6430  -22.3540 C.3       6 GLP5        0.0000 
     17 CA        -11.2605   31.1560  -20.5385 C.3       3 GLC5        0.0000 
     18 CA        -10.9340   32.4930  -22.1640 C.3       6 GLP5        0.0000 
     19 CA        -12.7200   30.3760  -17.5880 C.3       3 GLC5        0.0000 
     20 CA        -13.8530   30.9330  -16.2630 C.3       6 GLP5        0.0000 
     21 CA        -13.4810   30.4820  -19.4120 C.3       3 GLC5        0.0000 
     22 CA        -15.3750   31.1450  -19.9110 C.3       6 GLP5        0.0000 
     23 CA         -9.1690   27.7515  -16.9950 C.3       3 GLC5        0.0000 
     24 CA        -10.5180   27.9670  -15.8730 C.3       9 GLL5        0.0000 
     25 CA        -12.0965   23.6690  -16.0190 C.3       3 GLC5        0.0000 
     26 CA        -11.9060   25.8700  -15.6070 C.3       9 GLL5        0.0000 
     27 CA        -12.2870   21.4680  -16.4310 C.3       6 GLP5        0.0000 
     28 CA        -11.1175   25.4560  -17.5720 C.3       3 GLC5        0.0000 
     29 CA        -10.3290   25.0420  -19.5370 C.3       6 GLP5        0.0000 
     30 CA        -13.2860   26.6260  -16.6515 C.3       3 GLC5        0.0000 
     31 CA        -14.6660   27.3820  -17.6960 C.3       6 GLP5        0.0000 
     32 CA        -13.9965   25.3400  -16.0595 C.3       3 GLC5        0.0000 
     33 CA        -12.9600   25.7920  -14.4890 C.3       9 GLL5        0.0000 
     34 CA        -15.0330   24.8880  -17.6300 C.3       6 GLP5        0.0000 
     35 CA        -10.7930   24.3850  -12.1835 C.3       3 GLC5        0.0000 
     36 CA        -12.2810   25.3740  -13.1680 C.3       9 GLL5        0.0000 
     37 CA         -9.3050   23.3960  -11.1990 C.3       6 GLP5        0.0000 
     38 N         -12.9820   25.4750  -10.2575 N.am      2 SEC2        0.0000 
     39 N         -13.5410   26.2060  -11.3190 N.am      8 SEL2        0.0000 
     40 N         -12.4230   24.7440   -9.1960 N.am      5 SEP2        0.0000 
     41 CA        -14.1465   22.9535   -9.3430 C.3       3 GLC5        0.0000 
     42 CA        -14.9680   23.8740  -10.9340 C.3       9 GLL5        0.0000 
     43 CA        -13.3250   22.0330   -7.7520 C.3       6 GLP5        0.0000 
     44 CA        -17.0710   26.5695  -13.5845 C.3       3 GLC5        0.0000 
     45 CA        -16.6060   24.5830  -12.7180 C.3       9 GLL5        0.0000 
     46 CA        -17.5360   28.5560  -14.4510 C.3       6 GLP5        0.0000 
     47 CA        -20.1535   26.2465  -11.0670 C.3       3 GLC5        0.0000 
     48 CA        -18.9790   24.8240  -12.2960 C.3       9 GLL5        0.0000 
     49 CA        -21.3280   27.6690   -9.8380 C.3       6 GLP5        0.0000 
     50 CA        -19.4000   26.5805  -12.8755 C.3       3 GLC5        0.0000 
     51 CA        -19.8210   28.3370  -13.4550 C.3       6 GLP5        0.0000 
     52 CA        -15.0880   23.5225   -7.4465 C.3       3 GLC5        0.0000 
     53 CA        -16.5090   24.6470   -8.4410 C.3       9 GLL5        0.0000 
     54 CA        -13.6670   22.3980   -6.4520 C.3       6 GLP5        0.0000 
     55 CA        -15.9195   26.4320   -8.9785 C.3       3 GLC5        0.0000 
     56 CA        -15.3300   28.2170   -9.5160 C.3       6 GLP5        0.0000 
     57 CA        -15.2195   25.4870   -7.2985 C.3       3 GLC5        0.0000 
     58 CA        -13.9300   26.3270   -6.1560 C.3       6 GLP5        0.0000 
     59 CA        -16.1005   20.8290   -8.3820 C.3       3 GLC5        0.0000 
     60 CA        -16.7170   22.5360   -8.9120 C.3       9 GLL5        0.0000 
     61 CA        -15.4840   19.1220   -7.8520 C.3       6 GLP5        0.0000 
     62 CA        -19.0510   21.9105   -9.5495 C.3       3 GLC5        0.0000 
     63 CA        -18.4410   23.7150   -8.3740 C.3       9 GLL5        0.0000 
     64 CA        -19.6610   20.1060  -10.7250 C.3       6 GLP5        0.0000 
     65 CA         -9.3050   25.7608  -12.4518 C.3       3 GLC5        0.0000 
     66 CA        -11.1360   26.3300  -12.7740 C.3       9 GLL5        0.0000 
     67 CA         -7.9740   25.1590  -11.5450 C.3       6 GLP5        0.0000 
     68 CA        -19.3687   23.4550  -13.9950 C.3       3 GLC5        0.0000 
     69 CA        -20.3010   22.0520  -15.2530 C.3       6 GLP5        0.0000 
     70 CA        -18.5295   25.7245   -9.6103 C.3       3 GLC5        0.0000 
     71 CA        -18.7710   24.4510  -10.9590 C.3       9 GLL5        0.0000 
     72 CA        -18.9340   27.1560   -8.4990 C.3       6 GLP5        0.0000 
     73 CA         -9.5263   28.5855  -18.1945 C.3       3 GLC5        0.0000 
     74 CA        -10.8780   29.4510  -17.6310 C.3       9 GLL5        0.0000 
     75 CA        -12.9492   28.5085  -17.9840 C.3       3 GLC5        0.0000 
     76 CA        -11.3918   26.2700  -11.0180 C.3       3 GLC5        0.0000 
     77 CA        -11.0750   26.6880   -9.0650 C.3       6 GLP5        0.0000 
     78 CA        -15.1632   22.5855   -8.3600 C.3       3 GLC5        0.0000 
     79 CA        -17.2860   23.7400   -9.0240 C.3       9 GLL5        0.0000 
     80 CA        -17.6753   21.4260   -9.7990 C.3       3 GLC5        0.0000 
     81 CA        -18.3490   19.7140  -10.6300 C.3       6 GLP5        0.0000 
     82 CA        -18.8841   22.5038   -7.4985 C.3       3 GLC5        0.0000 
     83 CA        -20.0470   21.5810   -6.3260 C.3       6 GLP5        0.0000 
     84 CA        -18.3016   25.5551   -8.5261 C.3       3 GLC5        0.0000 
@<TRIPOS>BOND
@<TRIPOS>SUBSTRUCTURE
     1 ALC1        1 GROUP        1 X    ALC  0     ROOT ALC X 1
     2 SEC2       38 GROUP        1 X    SEC  0     **** SEC X 2
     3 GLC5        6 GROUP        1 X    GLC  0     **** GLC X 6
     4 ALP1        3 GROUP        1 Y    ALP  0     ROOT ALP Y 8
     5 SEP2       40 GROUP        1 Y    SEP  0     **** SEP Y 9
     6 GLP5        8 GROUP        1 Y    GLP  0     **** GLP Y 13
     7 ALL1        2 GROUP        1 Z    ALL  0     ROOT ALL Z 15
     8 SEL2       39 GROUP        1 Z    SEL  0     **** SEL Z 16
     9 GLL5        7 GROUP        1 Z    GLL  0     **** GLL Z 20
@<TRIPOS>SET

