#    Name: 4jnc_1LF_1_ligand
#    Modification time : Tue Mar 25 06:06:55 2014

@<TRIPOS>MOLECULE
4jnc_1LF_1_ligand
   52    54     1     0     0
SMALL
NO_CHARGES


@<TRIPOS>ATOM
      1 N1        -13.9560   24.1020  -11.9650 N.am      1 1LF601      0.0000 
      2 C10       -10.1360   26.3950  -13.9430 C.3       1 1LF601      0.0000 
      3 C13       -16.3840   24.2060  -11.3790 C.ar      1 1LF601      0.0000 
      4 C15       -17.8940   24.8920  -13.1780 C.ar      1 1LF601      0.0000 
      5 C17       -18.7710   24.4510  -10.9590 C.ar      1 1LF601      0.0000 
      6 C01        -6.9660   30.6950  -15.7960 C.3       1 1LF601      0.0000 
      7 N01        -8.3790   30.8360  -15.4030 N.pl3     1 1LF601      0.0000 
      8 C02        -9.3370   29.9620  -15.9610 C.ar      1 1LF601      0.0000 
      9 N02        -9.9710   30.2850  -17.1030 N.ar      1 1LF601      0.0000 
     10 C03       -10.8780   29.4510  -17.6310 C.ar      1 1LF601      0.0000 
     11 C04       -11.5870   29.8190  -18.9130 C.3       1 1LF601      0.0000 
     12 N03       -11.1510   28.2880  -17.0180 N.ar      1 1LF601      0.0000 
     13 C05       -10.5180   27.9670  -15.8730 C.ar      1 1LF601      0.0000 
     14 N04        -9.6100   28.8030  -15.3450 N.ar      1 1LF601      0.0000 
     15 N05       -10.7890   26.7470  -15.2180 N.3       1 1LF601      0.0000 
     16 C06       -11.9060   25.8700  -15.6070 C.3       1 1LF601      0.0000 
     17 C07       -12.9600   25.7920  -14.4890 C.3       1 1LF601      0.0000 
     18 C08       -12.2810   25.3740  -13.1680 C.3       1 1LF601      0.0000 
     19 C09       -11.1360   26.3300  -12.7740 C.3       1 1LF601      0.0000 
     20 C11       -13.3120   25.2600  -12.0750 C.2       1 1LF601      0.0000 
     21 O1        -13.5410   26.2060  -11.3190 O.2       1 1LF601      0.0000 
     22 C12       -14.9680   23.8740  -10.9340 C.3       1 1LF601      0.0000 
     23 C14       -16.6060   24.5830  -12.7180 C.ar      1 1LF601      0.0000 
     24 C16       -18.9790   24.8240  -12.2960 C.ar      1 1LF601      0.0000 
     25 C18       -17.4790   24.1350  -10.4840 C.ar      1 1LF601      0.0000 
     26 C1        -17.2860   23.7400   -9.0240 C.3       1 1LF601      0.0000 
     27 F01       -16.5090   24.6470   -8.4410 F         1 1LF601      0.0000 
     28 F02       -16.7170   22.5360   -8.9120 F         1 1LF601      0.0000 
     29 F         -18.4410   23.7150   -8.3740 F         1 1LF601      0.0000 
     30 H         -13.7752   23.2991  -12.6040 H         1 1LF601      0.0000 
     31 H          -9.3633   27.1347  -13.6879 H         1 1LF601      0.0000 
     32 H          -9.6403   25.4164  -14.0204 H         1 1LF601      0.0000 
     33 H         -18.0389   25.1653  -14.1523 H         1 1LF601      0.0000 
     34 H         -19.5703   24.4059  -10.3113 H         1 1LF601      0.0000 
     35 H          -8.6292   31.5529  -14.7451 H         1 1LF601      0.0000 
     36 H         -11.5496   24.8551  -15.8097 H         1 1LF601      0.0000 
     37 H         -12.3964   26.2447  -16.5111 H         1 1LF601      0.0000 
     38 H         -13.7076   25.0576  -14.7519 H         1 1LF601      0.0000 
     39 H         -13.4190   26.7617  -14.3610 H         1 1LF601      0.0000 
     40 H         -11.8434   24.3791  -13.3293 H         1 1LF601      0.0000 
     41 H         -11.5381   27.3105  -12.5921 H         1 1LF601      0.0000 
     42 H         -10.6398   25.9492  -11.8994 H         1 1LF601      0.0000 
     43 H         -14.7414   24.4777  -10.0307 H         1 1LF601      0.0000 
     44 H         -14.9511   22.8143  -10.6044 H         1 1LF601      0.0000 
     45 H         -15.8073   24.6316  -13.3676 H         1 1LF601      0.0000 
     46 H         -19.9231   25.0456  -12.6240 H         1 1LF601      0.0000 
     47 H          -6.3843   31.3672  -15.3380 H         1 1LF601      0.0000 
     48 H          -6.6053   29.7908  -15.5671 H         1 1LF601      0.0000 
     49 H          -6.8399   30.8204  -16.7801 H         1 1LF601      0.0000 
     50 H         -10.9447   29.9497  -19.6683 H         1 1LF601      0.0000 
     51 H         -12.2329   29.1103  -19.1968 H         1 1LF601      0.0000 
     52 H         -12.1064   30.6684  -18.8195 H         1 1LF601      0.0000 
@<TRIPOS>BOND
     1   20    1 am   
     2   22    1 1    
     3   30    1 1    
     4   15    2 1    
     5   19    2 1    
     6   31    2 1    
     7   32    2 1    
     8   22    3 1    
     9   23    3 ar   
    10   25    3 ar   
    11   23    4 ar   
    12   24    4 ar   
    13   33    4 1    
    14   24    5 ar   
    15   25    5 ar   
    16   34    5 1    
    17    7    6 1    
    18   47    6 1    
    19   48    6 1    
    20   49    6 1    
    21    8    7 1    
    22   35    7 1    
    23    9    8 ar   
    24   14    8 ar   
    25   10    9 ar   
    26   11   10 1    
    27   12   10 ar   
    28   50   11 1    
    29   51   11 1    
    30   52   11 1    
    31   13   12 ar   
    32   14   13 ar   
    33   15   13 1    
    34   16   15 1    
    35   17   16 1    
    36   36   16 1    
    37   37   16 1    
    38   18   17 1    
    39   38   17 1    
    40   39   17 1    
    41   19   18 1    
    42   20   18 1    
    43   40   18 1    
    44   41   19 1    
    45   42   19 1    
    46   21   20 2    
    47   43   22 1    
    48   44   22 1    
    49   45   23 1    
    50   46   24 1    
    51   26   25 1    
    52   27   26 1    
    53   28   26 1    
    54   29   26 1    
@<TRIPOS>SUBSTRUCTURE
     1 1LF601      1 GROUP   
@<TRIPOS>SET

