#    Name: 3gg2_UGA_1_INTS_M
#    Modification time : Tue Mar 25 12:24:40 2014

@<TRIPOS>MOLECULE
3gg2_UGA_1_INTS_M
   81     0    12     0     0
SMALL
NO_CHARGES


@<TRIPOS>ATOM
      1 CA         35.7395   59.3365   85.6195 C.3       4 GLC5        0.0000 
      2 CA         35.3250   59.2190   87.7150 C.3      12 GLL5        0.0000 
      3 CA         36.1540   59.4540   83.5240 C.3       8 GLP5        0.0000 
      4 N          34.5870   61.2670   86.2830 N.am      2 SEC2        0.0000 
      5 N          35.1880   60.5810   87.3300 N.am     10 SEL2        0.0000 
      6 N          33.9860   61.9530   85.2360 N.am      6 SEP2        0.0000 
      7 CA         33.0545   59.7860   89.4725 C.3       4 GLC5        0.0000 
      8 CA         33.9390   58.6200   87.9820 C.3      12 GLL5        0.0000 
      9 CA         32.1700   60.9520   90.9630 C.3       8 GLP5        0.0000 
     10 N          32.9685   59.4055   85.5625 N.am      2 SEC2        0.0000 
     11 N          33.2180   58.5730   86.7610 N.am     10 SEL2        0.0000 
     12 N          32.7190   60.2380   84.3640 N.am      6 SEP2        0.0000 
     13 O          31.9100   58.4995   86.9995 O.2       1 ALC1        0.0000 
     14 O          33.2180   58.5730   86.7610 O.2       9 ALL1        0.0000 
     15 O          30.6020   58.4260   87.2380 O.2       5 ALP1        0.0000 
     16 CA         32.0955   56.6480   87.7445 C.3       4 GLC5        0.0000 
     17 CA         34.0900   57.2090   88.5050 C.3      12 GLL5        0.0000 
     18 CA         30.1010   56.0870   86.9840 C.3       8 GLP5        0.0000 
     19 O          32.2035   57.4420   89.6145 O.2       1 ALC1        0.0000 
     20 O          32.8220   56.6090   88.7560 O.2       9 ALL1        0.0000 
     21 O          31.5850   58.2750   90.4730 O.2       5 ALP1        0.0000 
     22 CA         36.6145   56.3545   90.5575 C.3       4 GLC5        0.0000 
     23 CA         34.8280   57.2570   89.8320 C.3      12 GLL5        0.0000 
     24 CA         38.4010   55.4520   91.2830 C.3       8 GLP5        0.0000 
     25 NZ         34.5270   54.4950   88.5255 N.4       3 LYC4        0.0000 
     26 NZ         35.3500   54.9060   89.5880 N.4      11 LYL4        0.0000 
     27 NZ         33.7040   54.0840   87.4630 N.4       7 LYP4        0.0000 
     28 N          34.5270   54.4950   88.5255 N.am      2 SEC2        0.0000 
     29 N          35.3500   54.9060   89.5880 N.am     10 SEL2        0.0000 
     30 N          33.7040   54.0840   87.4630 N.am      6 SEP2        0.0000 
     31 N          36.3245   54.7700   88.5400 N.am      2 SEC2        0.0000 
     32 N          37.2990   54.6340   87.4920 N.am      6 SEP2        0.0000 
     33 N          34.1805   60.9230   92.8760 N.am      2 SEC2        0.0000 
     34 N          35.4870   60.5090   92.5070 N.am     10 SEL2        0.0000 
     35 N          32.8740   61.3370   93.2450 N.am      6 SEP2        0.0000 
     36 NZ         35.3695   64.5840   90.5040 N.4       3 LYC4        0.0000 
     37 NZ         36.1410   64.1280   89.4890 N.4      11 LYL4        0.0000 
     38 NZ         34.5980   65.0400   91.5190 N.4       7 LYP4        0.0000 
     39 N          35.3695   64.5840   90.5040 N.am      2 SEC2        0.0000 
     40 N          36.1410   64.1280   89.4890 N.am     10 SEL2        0.0000 
     41 N          34.5980   65.0400   91.5190 N.am      6 SEP2        0.0000 
     42 CA         39.7775   61.5515   88.2525 C.3       4 GLC5        0.0000 
     43 CA         39.5980   62.5620   89.9340 C.3      12 GLL5        0.0000 
     44 CA         39.9570   60.5410   86.5710 C.3       8 GLP5        0.0000 
     45 CA         39.2900   62.4315   91.8435 C.3       4 GLC5        0.0000 
     46 CA         38.9820   62.3010   93.7530 C.3       8 GLP5        0.0000 
     47 CA         42.4230   62.9470   89.2580 C.3       4 GLC5        0.0000 
     48 CA         40.8640   63.4240   90.0710 C.3      12 GLL5        0.0000 
     49 CA         43.9820   62.4700   88.4450 C.3       8 GLP5        0.0000 
     50 CA         42.7545   63.9410   90.2865 C.3       4 GLC5        0.0000 
     51 CA         40.7680   64.5570   91.0840 C.3      12 GLL5        0.0000 
     52 CA         44.7410   63.3250   89.4890 C.3       8 GLP5        0.0000 
     53 N          43.1205   63.5845   91.7290 N.am      2 SEC2        0.0000 
     54 N          42.0420   64.6220   91.7830 N.am     10 SEL2        0.0000 
     55 N          44.1990   62.5470   91.6750 N.am      6 SEP2        0.0000 
     56 CA         41.6015   64.5255   87.0485 C.3       4 GLC5        0.0000 
     57 CA         41.4350   65.3990   88.9630 C.3      12 GLL5        0.0000 
     58 CA         41.7680   63.6520   85.1340 C.3       8 GLP5        0.0000 
     59 CA         42.7085   63.9345   88.7040 C.3       4 GLC5        0.0000 
     60 CA         38.6240   64.7600   86.3715 C.3       4 GLC5        0.0000 
     61 CA         39.8150   65.9400   87.2350 C.3      12 GLL5        0.0000 
     62 CA         37.4330   63.5800   85.5080 C.3       8 GLP5        0.0000 
     63 N          43.7640   67.8150   88.5095 N.am      2 SEC2        0.0000 
     64 N          43.2270   66.8370   87.4240 N.am     10 SEL2        0.0000 
     65 N          44.3010   68.7930   89.5950 N.am      6 SEP2        0.0000 
     66 O          42.6220   68.2615   85.1575 O.2       1 ALC1        0.0000 
     67 O          41.7410   67.3160   85.8450 O.2       9 ALL1        0.0000 
     68 O          43.5030   69.2070   84.4700 O.2       5 ALP1        0.0000 
     69 N          40.8225   68.6295   83.2460 N.am      2 SEC2        0.0000 
     70 N          40.2510   67.7000   84.2130 N.am     10 SEL2        0.0000 
     71 N          41.3940   69.5590   82.2790 N.am      6 SEP2        0.0000 
     72 CA         38.6820   65.2000   85.1060 C.3       4 GLC5        0.0000 
     73 CA         39.5030   66.4940   86.0070 C.3      12 GLL5        0.0000 
     74 CA         37.8610   63.9060   84.2050 C.3       8 GLP5        0.0000 
     75 CA         37.1895   58.8173   87.5345 C.3       4 GLC5        0.0000 
     76 CA         38.6610   58.4690   86.6890 C.3       8 GLP5        0.0000 
     77 CA         40.5040   63.3987   92.3822 C.3       4 GLC5        0.0000 
     78 CA         40.1920   62.8070   94.1870 C.3       8 GLP5        0.0000 
     79 CA         39.5237   65.7535   92.1490 C.3       4 GLC5        0.0000 
     80 CA         38.3690   66.3550   93.6750 C.3       8 GLP5        0.0000 
     81 CA         40.7135   64.9345   85.8775 C.3       4 GLC5        0.0000 
@<TRIPOS>BOND
@<TRIPOS>SUBSTRUCTURE
     1 ALC1       13 GROUP        1 X    ALC  0     ROOT ALC X 1
     2 SEC2        4 GROUP        1 X    SEC  0     **** SEC X 2
     3 LYC4       25 GROUP        1 X    LYC  0     **** LYC X 4
     4 GLC5        1 GROUP        1 X    GLC  0     **** GLC X 6
     5 ALP1       15 GROUP        1 Y    ALP  0     ROOT ALP Y 8
     6 SEP2        6 GROUP        1 Y    SEP  0     **** SEP Y 9
     7 LYP4       27 GROUP        1 Y    LYP  0     **** LYP Y 11
     8 GLP5        3 GROUP        1 Y    GLP  0     **** GLP Y 13
     9 ALL1       14 GROUP        1 Z    ALL  0     ROOT ALL Z 15
    10 SEL2        5 GROUP        1 Z    SEL  0     **** SEL Z 16
    11 LYL4       26 GROUP        1 Z    LYL  0     **** LYL Z 18
    12 GLL5        2 GROUP        1 Z    GLL  0     **** GLL Z 20
@<TRIPOS>SET

