#    Name: 3gg2_UGA_1_ligand
#    Modification time : Tue Mar 25 12:24:40 2014

@<TRIPOS>MOLECULE
3gg2_UGA_1_ligand
   56    58     1     0     0
SMALL
NO_CHARGES


@<TRIPOS>ATOM
      1 C1'        36.1110   59.1120   89.0450 C.3       1 UGA1000     0.0000 
      2 C2'        35.3250   59.2190   87.7150 C.3       1 UGA1000     0.0000 
      3 O2'        35.1880   60.5810   87.3300 O.3       1 UGA1000     0.0000 
      4 C3'        33.9390   58.6200   87.9820 C.3       1 UGA1000     0.0000 
      5 O3'        33.2180   58.5730   86.7610 O.3       1 UGA1000     0.0000 
      6 C4'        34.0900   57.2090   88.5050 C.3       1 UGA1000     0.0000 
      7 O4'        32.8220   56.6090   88.7560 O.3       1 UGA1000     0.0000 
      8 C5'        34.8280   57.2570   89.8320 C.3       1 UGA1000     0.0000 
      9 O5'        36.1180   57.7740   89.5370 O.3       1 UGA1000     0.0000 
     10 C6'        34.8330   55.8280   90.2830 C.2       1 UGA1000     0.0000 
     11 O'P        35.3500   54.9060   89.5880 O.co2     1 UGA1000     0.0000 
     12 O'Q        34.2260   55.6350   91.3480 O.co2     1 UGA1000     0.0000 
     13 PB         36.3670   60.5550   91.2930 P.3       1 UGA1000     0.0000 
     14 O1B        37.7550   59.9330   91.3310 O.co2     1 UGA1000     0.0000 
     15 O2B        35.4870   60.5090   92.5070 O.co2     1 UGA1000     0.0000 
     16 O3B        35.5320   59.9230   90.0430 O.3       1 UGA1000     0.0000 
     17 O3A        36.4710   62.1260   90.8960 O.3       1 UGA1000     0.0000 
     18 PA         36.9770   62.9010   89.5730 P.3       1 UGA1000     0.0000 
     19 O1A        36.1410   64.1280   89.4890 O.co2     1 UGA1000     0.0000 
     20 O2A        37.1420   61.9870   88.3930 O.co2     1 UGA1000     0.0000 
     21 O5D        38.4540   63.3860   89.9730 O.3       1 UGA1000     0.0000 
     22 C5D        39.5980   62.5620   89.9340 C.3       1 UGA1000     0.0000 
     23 C4D        40.8640   63.4240   90.0710 C.3       1 UGA1000     0.0000 
     24 O4D        41.1490   63.9880   88.7510 O.3       1 UGA1000     0.0000 
     25 C3D        40.7680   64.5570   91.0840 C.3       1 UGA1000     0.0000 
     26 O3D        42.0420   64.6220   91.7830 O.3       1 UGA1000     0.0000 
     27 C2D        40.5890   65.7470   90.1620 C.3       1 UGA1000     0.0000 
     28 O2D        40.9520   66.9890   90.7720 O.3       1 UGA1000     0.0000 
     29 C1D        41.4350   65.3990   88.9630 C.3       1 UGA1000     0.0000 
     30 N1         41.0970   66.0530   87.7220 N.am      1 UGA1000     0.0000 
     31 C6         39.8150   65.9400   87.2350 C.2       1 UGA1000     0.0000 
     32 C2         42.0530   66.7270   87.0180 C.2       1 UGA1000     0.0000 
     33 O2         43.2270   66.8370   87.4240 O.2       1 UGA1000     0.0000 
     34 N3         41.7410   67.3160   85.8450 N.am      1 UGA1000     0.0000 
     35 C4         40.5040   67.1860   85.3310 C.2       1 UGA1000     0.0000 
     36 O4         40.2510   67.7000   84.2130 O.2       1 UGA1000     0.0000 
     37 C5         39.5030   66.4940   86.0070 C.2       1 UGA1000     0.0000 
     38 H          37.1306   59.4363   88.8388 H         1 UGA1000     0.0000 
     39 H          35.8161   58.6222   86.9898 H         1 UGA1000     0.0000 
     40 H          33.4469   59.2153   88.7162 H         1 UGA1000     0.0000 
     41 H          34.6748   56.6352   87.8200 H         1 UGA1000     0.0000 
     42 H          34.2669   57.8516   90.4906 H         1 UGA1000     0.0000 
     43 H          39.6821   62.0087   88.9899 H         1 UGA1000     0.0000 
     44 H          39.6133   61.8298   90.7515 H         1 UGA1000     0.0000 
     45 H          41.6865   62.7689   90.3523 H         1 UGA1000     0.0000 
     46 H          39.9468   64.4234   91.6767 H         1 UGA1000     0.0000 
     47 H          39.5507   65.7369   89.8343 H         1 UGA1000     0.0000 
     48 H          42.4652   65.5004   89.2109 H         1 UGA1000     0.0000 
     49 H          39.0929   65.4484   87.7772 H         1 UGA1000     0.0000 
     50 H          42.4618   67.8736   85.3361 H         1 UGA1000     0.0000 
     51 H          38.5747   66.4014   85.6075 H         1 UGA1000     0.0000 
     52 H          35.9721   61.0461   87.7409 H         1 UGA1000     0.0000 
     53 H          32.3240   58.9675   86.9732 H         1 UGA1000     0.0000 
     54 H          32.5764   56.9003   89.6807 H         1 UGA1000     0.0000 
     55 H          41.8932   64.1263   92.6386 H         1 UGA1000     0.0000 
     56 H          41.6441   66.7501   91.4531 H         1 UGA1000     0.0000 
@<TRIPOS>BOND
     1    2    1 1    
     2    9    1 1    
     3   16    1 1    
     4   38    1 1    
     5    3    2 1    
     6    4    2 1    
     7   39    2 1    
     8   52    3 1    
     9    5    4 1    
    10    6    4 1    
    11   40    4 1    
    12   53    5 1    
    13    7    6 1    
    14    8    6 1    
    15   41    6 1    
    16   54    7 1    
    17    9    8 1    
    18   10    8 1    
    19   42    8 1    
    20   11   10 ar   
    21   12   10 ar   
    22   14   13 ar   
    23   15   13 ar   
    24   16   13 1    
    25   17   13 1    
    26   18   17 1    
    27   19   18 ar   
    28   20   18 ar   
    29   21   18 1    
    30   22   21 1    
    31   23   22 1    
    32   43   22 1    
    33   44   22 1    
    34   24   23 1    
    35   25   23 1    
    36   45   23 1    
    37   29   24 1    
    38   26   25 1    
    39   27   25 1    
    40   46   25 1    
    41   55   26 1    
    42   28   27 1    
    43   29   27 1    
    44   47   27 1    
    45   56   28 1    
    46   30   29 1    
    47   48   29 1    
    48   31   30 1    
    49   32   30 1    
    50   37   31 2    
    51   49   31 1    
    52   33   32 2    
    53   34   32 1    
    54   35   34 1    
    55   50   34 1    
    56   36   35 2    
    57   37   35 1    
    58   51   37 1    
@<TRIPOS>SUBSTRUCTURE
     1 UGA1000     1 GROUP   
@<TRIPOS>SET

