#    Name: 3u6j_03X_1_INTS_M
#    Modification time : Mon Mar 24 21:42:47 2014

@<TRIPOS>MOLECULE
3u6j_03X_1_INTS_M
  108     0     6     0     0
SMALL
NO_CHARGES


@<TRIPOS>ATOM
      1 N           8.9230   -4.4365   22.9145 N.am      1 SEC2        0.0000 
      2 N           8.7040   -5.3390   21.7270 N.am      5 SEL2        0.0000 
      3 N           9.1420   -3.5340   24.1020 N.am      3 SEP2        0.0000 
      4 CA         10.0525   -3.6845   22.0000 C.3       2 GLC5        0.0000 
      5 CA          8.7830   -4.4850   20.7170 C.3       6 GLL5        0.0000 
      6 CA         11.3220   -2.8840   23.2830 C.3       4 GLP5        0.0000 
      7 CA          7.7405   -3.9005   22.4400 C.3       2 GLC5        0.0000 
      8 CA          6.6980   -3.3160   24.1630 C.3       4 GLP5        0.0000 
      9 CA          4.3945   -4.7835   17.1510 C.3       2 GLC5        0.0000 
     10 CA          6.3430   -5.5110   16.8720 C.3       6 GLL5        0.0000 
     11 CA          2.4460   -4.0560   17.4300 C.3       4 GLP5        0.0000 
     12 CA          7.4380   -1.8265    8.6185 C.3       2 GLC5        0.0000 
     13 CA          6.7600   -1.2750   10.1050 C.3       6 GLL5        0.0000 
     14 CA          8.1160   -2.3780    7.1320 C.3       4 GLP5        0.0000 
     15 CA         -0.9505    2.4670   12.1880 C.3       2 GLC5        0.0000 
     16 CA          0.5730    0.9050   12.2130 C.3       6 GLL5        0.0000 
     17 CA         -2.4740    4.0290   12.1630 C.3       4 GLP5        0.0000 
     18 CA         10.1755  -10.1290   23.7995 C.3       2 GLC5        0.0000 
     19 CA          8.6620   -9.3220   24.7240 C.3       6 GLL5        0.0000 
     20 CA         11.6890  -10.9360   22.8750 C.3       4 GLP5        0.0000 
     21 CA         10.2620   -8.2725   24.5355 C.3       2 GLC5        0.0000 
     22 CA         11.8620   -7.2230   24.3470 C.3       4 GLP5        0.0000 
     23 CA          8.7235   -7.6970   26.1980 C.3       2 GLC5        0.0000 
     24 CA          8.7850   -6.0720   27.6720 C.3       4 GLP5        0.0000 
     25 CA          6.5680   -8.7465   24.7705 C.3       2 GLC5        0.0000 
     26 CA          4.4740   -8.1710   24.8170 C.3       4 GLP5        0.0000 
     27 CA          6.2810   -8.5140   23.6290 C.3       2 GLC5        0.0000 
     28 CA          8.0880   -8.8570   22.4410 C.3       6 GLL5        0.0000 
     29 CA          9.4935  -10.3795   20.8060 C.3       2 GLC5        0.0000 
     30 CA          7.8850   -9.3560   21.1530 C.3       6 GLL5        0.0000 
     31 CA         11.1020  -11.4030   20.4590 C.3       4 GLP5        0.0000 
     32 CA          9.1180  -11.2595   20.0980 C.3       2 GLC5        0.0000 
     33 CA          7.1340  -11.1160   19.7370 C.3       6 GLL5        0.0000 
     34 CA          8.0385  -12.4025   18.5600 C.3       2 GLC5        0.0000 
     35 CA          8.9430  -13.6890   17.3830 C.3       4 GLP5        0.0000 
     36 CA          6.2340  -10.0065   18.5130 C.3       2 GLC5        0.0000 
     37 CA          5.3340   -8.8970   17.2890 C.3       4 GLP5        0.0000 
     38 CA          9.4155   -2.3300   15.3700 C.3       2 GLC5        0.0000 
     39 CA          8.1670   -4.1640   15.2240 C.3       6 GLL5        0.0000 
     40 CA         10.6640   -0.4960   15.5160 C.3       4 GLP5        0.0000 
     41 CA         10.9915   -5.1895   17.8115 C.3       2 GLC5        0.0000 
     42 CA          9.9350   -5.4020   16.2350 C.3       6 GLL5        0.0000 
     43 CA         12.0480   -4.9770   19.3880 C.3       4 GLP5        0.0000 
     44 CA         10.8830   -5.6390   14.4010 C.3       2 GLC5        0.0000 
     45 CA         11.8310   -5.8760   12.5670 C.3       4 GLP5        0.0000 
     46 CA          4.9750   -5.7930   14.5910 C.3       2 GLC5        0.0000 
     47 CA          5.8980   -4.5610   15.9610 C.3       6 GLL5        0.0000 
     48 CA          4.0520   -7.0250   13.2210 C.3       4 GLP5        0.0000 
     49 N           7.5695   -4.2375   11.8840 N.am      1 SEC2        0.0000 
     50 N           7.7170   -2.9820   12.5480 N.am      5 SEL2        0.0000 
     51 N           7.4220   -5.4930   11.2200 N.am      3 SEP2        0.0000 
     52 CA          6.5020    0.2925   12.7055 C.3       2 GLC5        0.0000 
     53 CA          5.7570   -1.5400   12.4820 C.3       6 GLL5        0.0000 
     54 CA          7.2470    2.1250   12.9290 C.3       4 GLP5        0.0000 
     55 N           3.2070   -2.0700   14.2465 N.am      1 SEC2        0.0000 
     56 N           4.3030   -1.2040   14.2560 N.am      5 SEL2        0.0000 
     57 N           2.1110   -2.9360   14.2370 N.am      3 SEP2        0.0000 
     58 CA          4.0905    1.8195    8.6105 C.3       2 GLC5        0.0000 
     59 CA          4.3580    0.6650    9.9540 C.3       6 GLL5        0.0000 
     60 CA          3.8230    2.9740    7.2670 C.3       4 GLP5        0.0000 
     61 CA          6.1905    1.2130   10.8060 C.3       2 GLC5        0.0000 
     62 CA          8.0230    1.7610   11.6580 C.3       4 GLP5        0.0000 
     63 CA          3.6095    2.5320   10.2950 C.3       2 GLC5        0.0000 
     64 CA          2.8610    4.3990   10.6360 C.3       4 GLP5        0.0000 
     65 CA          5.1020    1.8570   13.2120 C.3       2 GLC5        0.0000 
     66 CA          2.9570    1.5890   13.4950 C.3       6 GLL5        0.0000 
     67 CA         10.0092   -8.4787   20.6343 C.3       2 GLC5        0.0000 
     68 CA          8.2380   -7.1400   20.2290 C.3       6 GLL5        0.0000 
     69 CA         11.9160   -9.1380   21.1310 C.3       4 GLP5        0.0000 
     70 CA         10.1635   -5.8395   19.5375 C.3       2 GLC5        0.0000 
     71 CA         10.3687   -4.8392   19.7250 C.3       2 GLC5        0.0000 
     72 CA          8.1032   -5.2096   13.6060 C.3       2 GLC5        0.0000 
     73 CA          8.6170   -5.1250   16.1360 C.3       6 GLL5        0.0000 
     74 CA          8.6110   -6.1540   11.8030 C.3       4 GLP5        0.0000 
     75 CA          4.6747   -3.3193   16.2373 C.3       2 GLC5        0.0000 
     76 CA          6.7990   -3.8860   15.1380 C.3       6 GLL5        0.0000 
     77 CA          3.0010   -2.4150   16.9250 C.3       4 GLP5        0.0000 
     78 CA          5.6427   -4.5750   18.3967 C.3       2 GLC5        0.0000 
     79 CA          5.1650   -4.1140   20.3770 C.3       4 GLP5        0.0000 
     80 CA          7.1385    0.3157   11.1595 C.3       2 GLC5        0.0000 
     81 CA          5.7480   -0.9840   11.2170 C.3       6 GLL5        0.0000 
     82 CA          2.9105    2.7387   11.8280 C.3       2 GLC5        0.0000 
     83 CA          2.9630    0.5680   12.5450 C.3       6 GLL5        0.0000 
     84 CA          2.4420   -0.2508   14.6185 C.3       2 GLC5        0.0000 
     85 CA          1.9240   -1.5800   16.2170 C.3       4 GLP5        0.0000 
     86 CA          2.9225    3.1695   14.9625 C.3       2 GLC5        0.0000 
     87 CA          1.7710    2.2650   13.7950 C.3       6 GLL5        0.0000 
     88 CA          3.4810    4.4120   16.2800 C.3       4 GLP5        0.0000 
     89 CA          0.3887    3.7695   12.8220 C.3       2 GLC5        0.0000 
     90 CA         -0.3970    5.4420   12.1680 C.3       4 GLP5        0.0000 
     91 CA         -0.1463    1.5450   15.0115 C.3       2 GLC5        0.0000 
     92 CA          0.5780    1.9290   13.1570 C.3       6 GLL5        0.0000 
     93 CA         -1.4670    0.9930   16.5470 C.3       4 GLP5        0.0000 
     94 CA          1.8674    2.9500   11.7402 C.3       2 GLC5        0.0000 
     95 CA         -1.0517    0.6360   13.1195 C.3       2 GLC5        0.0000 
     96 CA         -2.6790   -0.1450   13.5540 C.3       4 GLP5        0.0000 
     97 CA          1.3510   -1.3787   12.1113 C.3       2 GLC5        0.0000 
     98 CA          1.2350   -3.4090   12.0000 C.3       4 GLP5        0.0000 
     99 CA         10.0793   -8.5504   21.6932 C.3       2 GLC5        0.0000 
    100 CA          8.4370   -6.6410   21.5230 C.3       6 GLL5        0.0000 
    101 CA          9.6496   -7.7349   18.5701 C.3       2 GLC5        0.0000 
    102 CA          7.9670   -8.4990   20.0460 C.3       6 GLL5        0.0000 
    103 CA         11.0880   -8.4280   17.4990 C.3       4 GLP5        0.0000 
    104 CA          9.4350   -7.0386   15.8671 C.3       2 GLC5        0.0000 
    105 CA          7.7050   -5.7920   16.9630 C.3       6 GLL5        0.0000 
    106 CA          9.8220   -8.6470   15.3420 C.3       4 GLP5        0.0000 
    107 CA          6.8371   -4.8767   20.2066 C.3       2 GLC5        0.0000 
    108 CA          8.3200   -6.2640   19.1450 C.3       6 GLL5        0.0000 
@<TRIPOS>BOND
@<TRIPOS>SUBSTRUCTURE
     1 SEC2        1 GROUP        1 X    SEC  0     ROOT SEC X 2
     2 GLC5        4 GROUP        1 X    GLC  0     **** GLC X 6
     3 SEP2        3 GROUP        1 Y    SEP  0     ROOT SEP Y 9
     4 GLP5        6 GROUP        1 Y    GLP  0     **** GLP Y 13
     5 SEL2        2 GROUP        1 Z    SEL  0     ROOT SEL Z 16
     6 GLL5        5 GROUP        1 Z    GLL  0     **** GLL Z 20
@<TRIPOS>SET

