#    Name: 3u6j_03X_1_ligand
#    Modification time : Mon Mar 24 21:42:47 2014

@<TRIPOS>MOLECULE
3u6j_03X_1_ligand
   64    68     1     0     0
SMALL
NO_CHARGES


@<TRIPOS>ATOM
      1 N1          8.7040   -5.3390   21.7270 N.ar      1 03X1        0.0000 
      2 N3          4.7040   -0.1390   11.1590 N.pl3     1 03X1        0.0000 
      3 C4          7.9670   -8.4990   20.0460 C.ar      1 03X1        0.0000 
      4 C5          8.2380   -7.1400   20.2290 C.ar      1 03X1        0.0000 
      5 C6          8.4370   -6.6410   21.5230 C.ar      1 03X1        0.0000 
      6 C7          8.7830   -4.4850   20.7170 C.ar      1 03X1        0.0000 
      7 C8          8.5960   -4.9180   19.4070 C.ar      1 03X1        0.0000 
      8 C10         7.7050   -5.7920   16.9630 C.ar      1 03X1        0.0000 
      9 C13         8.6170   -5.1250   16.1360 C.ar      1 03X1        0.0000 
     10 C15         6.7990   -3.8860   15.1380 C.ar      1 03X1        0.0000 
     11 C17         6.3430   -5.5110   16.8720 C.ar      1 03X1        0.0000 
     12 C20         5.7480   -0.9840   11.2170 C.2       1 03X1        0.0000 
     13 C21         4.6560   -0.9750   13.1010 C.2       1 03X1        0.0000 
     14 C22         6.7600   -1.2750   10.1050 C.3       1 03X1        0.0000 
     15 C24         2.9630    0.5680   12.5450 C.ar      1 03X1        0.0000 
     16 C26         1.7710    2.2650   13.7950 C.ar      1 03X1        0.0000 
     17 C28         0.5730    0.9050   12.2130 C.ar      1 03X1        0.0000 
     18 C11         8.6620   -9.3220   24.7240 C.3       1 03X1        0.0000 
     19 O3          7.9970   -9.7220   23.5030 O.3       1 03X1        0.0000 
     20 C2          8.0880   -8.8570   22.4410 C.ar      1 03X1        0.0000 
     21 C3          8.3570   -7.4960   22.6170 C.ar      1 03X1        0.0000 
     22 C1          7.8850   -9.3560   21.1530 C.ar      1 03X1        0.0000 
     23 O2          7.6210  -10.6950   21.0240 O.3       1 03X1        0.0000 
     24 C12         7.1340  -11.1160   19.7370 C.3       1 03X1        0.0000 
     25 C9          8.3200   -6.2640   19.1450 C.ar      1 03X1        0.0000 
     26 O1          8.1400   -6.7250   17.8600 O.3       1 03X1        0.0000 
     27 C14         8.1670   -4.1640   15.2240 C.ar      1 03X1        0.0000 
     28 F1          9.9350   -5.4020   16.2350 F         1 03X1        0.0000 
     29 C16         5.8980   -4.5610   15.9610 C.ar      1 03X1        0.0000 
     30 N2          6.2690   -2.9880   14.3090 N.am      1 03X1        0.0000 
     31 C18         6.7000   -2.5790   13.1130 C.2       1 03X1        0.0000 
     32 O4          7.7170   -2.9820   12.5480 O.2       1 03X1        0.0000 
     33 C19         5.7570   -1.5400   12.4820 C.2       1 03X1        0.0000 
     34 O5          4.3030   -1.2040   14.2560 O.2       1 03X1        0.0000 
     35 C23         4.3580    0.6650    9.9540 C.3       1 03X1        0.0000 
     36 N4          4.0800   -0.1270   12.2420 N.am      1 03X1        0.0000 
     37 C25         2.9570    1.5890   13.4950 C.ar      1 03X1        0.0000 
     38 C27         0.5780    1.9290   13.1570 C.ar      1 03X1        0.0000 
     39 C29         1.7590    0.2280   11.9190 C.ar      1 03X1        0.0000 
     40 H           7.8274   -8.8724   19.1005 H         1 03X1        0.0000 
     41 H           8.9856   -3.4736   20.8734 H         1 03X1        0.0000 
     42 H           8.6603   -4.2497   18.6291 H         1 03X1        0.0000 
     43 H           5.6753   -6.0031   17.4742 H         1 03X1        0.0000 
     44 H           1.7803    3.0212   14.4970 H         1 03X1        0.0000 
     45 H          -0.2964    0.6478   11.7349 H         1 03X1        0.0000 
     46 H           8.4971   -7.1256   23.5698 H         1 03X1        0.0000 
     47 H           8.8319   -3.6700   14.6264 H         1 03X1        0.0000 
     48 H           4.8891   -4.3508   15.8908 H         1 03X1        0.0000 
     49 H           5.3305   -2.5081   14.6636 H         1 03X1        0.0000 
     50 H           3.8278    1.8465   13.9774 H         1 03X1        0.0000 
     51 H          -0.2854    2.4301   13.3804 H         1 03X1        0.0000 
     52 H           1.7477   -0.5395   11.2253 H         1 03X1        0.0000 
     53 H           7.2509   -0.4502    9.8244 H         1 03X1        0.0000 
     54 H           7.4475   -1.9414   10.3936 H         1 03X1        0.0000 
     55 H           6.3178   -1.6451    9.2880 H         1 03X1        0.0000 
     56 H           9.6455   -9.2017   24.5890 H         1 03X1        0.0000 
     57 H           8.3061   -8.4555   25.0741 H         1 03X1        0.0000 
     58 H           8.5466  -10.0007   25.4493 H         1 03X1        0.0000 
     59 H           7.7870  -10.9114   19.0077 H         1 03X1        0.0000 
     60 H           6.9622  -12.1007   19.7089 H         1 03X1        0.0000 
     61 H           6.2758  -10.6618   19.4979 H         1 03X1        0.0000 
     62 H           5.1032    1.2770    9.6894 H         1 03X1        0.0000 
     63 H           4.1611    0.0843    9.1641 H         1 03X1        0.0000 
     64 H           3.5508    1.2351   10.1071 H         1 03X1        0.0000 
@<TRIPOS>BOND
     1    5    1 ar   
     2    6    1 ar   
     3   12    2 1    
     4   35    2 1    
     5   36    2 1    
     6    4    3 ar   
     7   22    3 ar   
     8   40    3 1    
     9    5    4 ar   
    10   25    4 ar   
    11   21    5 ar   
    12    7    6 ar   
    13   41    6 1    
    14   25    7 ar   
    15   42    7 1    
    16    9    8 ar   
    17   11    8 ar   
    18   26    8 1    
    19   27    9 ar   
    20   28    9 1    
    21   27   10 ar   
    22   29   10 ar   
    23   30   10 1    
    24   29   11 ar   
    25   43   11 1    
    26   14   12 1    
    27   33   12 2    
    28   33   13 1    
    29   34   13 2    
    30   36   13 am   
    31   53   14 1    
    32   54   14 1    
    33   55   14 1    
    34   36   15 1    
    35   37   15 ar   
    36   39   15 ar   
    37   37   16 ar   
    38   38   16 ar   
    39   44   16 1    
    40   38   17 ar   
    41   39   17 ar   
    42   45   17 1    
    43   19   18 1    
    44   56   18 1    
    45   57   18 1    
    46   58   18 1    
    47   20   19 1    
    48   21   20 ar   
    49   22   20 ar   
    50   46   21 1    
    51   23   22 1    
    52   24   23 1    
    53   59   24 1    
    54   60   24 1    
    55   61   24 1    
    56   26   25 1    
    57   47   27 1    
    58   48   29 1    
    59   31   30 am   
    60   49   30 1    
    61   32   31 2    
    62   33   31 1    
    63   62   35 1    
    64   63   35 1    
    65   64   35 1    
    66   50   37 1    
    67   51   38 1    
    68   52   39 1    
@<TRIPOS>SUBSTRUCTURE
     1 03X1        1 GROUP   
@<TRIPOS>SET

