#    Name: 3vhw_VHW_1_INTS_M
#    Modification time : Tue Mar 25 00:54:16 2014

@<TRIPOS>MOLECULE
3vhw_VHW_1_INTS_M
  153     0     9     0     0
SMALL
NO_CHARGES


@<TRIPOS>ATOM
      1 CA         11.7610   -2.3965  -35.9100 C.3       3 GLC5        0.0000 
      2 CA         13.0080   -1.7560  -34.4770 C.3       9 GLL5        0.0000 
      3 CA         10.5140   -3.0370  -37.3430 C.3       6 GLP5        0.0000 
      4 CA         15.9335   -1.8225  -33.4360 C.3       3 GLC5        0.0000 
      5 CA         14.2570   -2.2600  -33.7690 C.3       9 GLL5        0.0000 
      6 CA         17.6100   -1.3850  -33.1030 C.3       6 GLP5        0.0000 
      7 CA         15.6835   -1.9790  -32.0375 C.3       3 GLC5        0.0000 
      8 CA         13.8620   -2.7220  -32.3870 C.3       9 GLL5        0.0000 
      9 CA         17.5050   -1.2360  -31.6880 C.3       6 GLP5        0.0000 
     10 CA         10.8810   -0.6950  -35.4740 C.3       3 GLC5        0.0000 
     11 CA         12.2000   -0.7050  -33.6870 C.3       9 GLL5        0.0000 
     12 CA          9.5620   -0.6850  -37.2610 C.3       6 GLP5        0.0000 
     13 CA         15.1225   -0.8410  -31.3395 C.3       3 GLC5        0.0000 
     14 CA         13.1900   -1.6300  -31.6050 C.3       9 GLL5        0.0000 
     15 CA         17.0550   -0.0520  -31.0740 C.3       6 GLP5        0.0000 
     16 CA         14.5305   -3.1655  -29.6690 C.3       3 GLC5        0.0000 
     17 CA         12.9260   -1.6980  -30.0850 C.3       9 GLL5        0.0000 
     18 CA         16.1350   -4.6330  -29.2530 C.3       6 GLP5        0.0000 
     19 CA         13.5020   -7.9885  -33.7625 C.3       3 GLC5        0.0000 
     20 CA         15.4030   -7.3900  -33.1290 C.3       9 GLL5        0.0000 
     21 CA         11.6010   -8.5870  -34.3960 C.3       6 GLP5        0.0000 
     22 CA         17.1025   -9.8130  -31.0450 C.3       3 GLC5        0.0000 
     23 CA         15.9230   -8.5090  -32.2250 C.3       9 GLL5        0.0000 
     24 CA         18.2820  -11.1170  -29.8650 C.3       6 GLP5        0.0000 
     25 CA         16.9790  -10.0610  -33.0105 C.3       3 GLC5        0.0000 
     26 CA         18.0350  -11.6130  -33.7960 C.3       6 GLP5        0.0000 
     27 CA         16.4845   -7.1615  -30.5310 C.3       3 GLC5        0.0000 
     28 CA         17.0460   -5.8140  -28.8370 C.3       6 GLP5        0.0000 
     29 CA         16.1325  -10.0110  -30.0385 C.3       3 GLC5        0.0000 
     30 CA         14.8600   -9.0350  -31.2650 C.3       9 GLL5        0.0000 
     31 CA         17.4050  -10.9870  -28.8120 C.3       6 GLP5        0.0000 
     32 CA         14.3730   -8.2925  -28.4225 C.3       3 GLC5        0.0000 
     33 CA         14.2580   -7.9440  -30.3910 C.3       9 GLL5        0.0000 
     34 CA         14.4880   -8.6410  -26.4540 C.3       6 GLP5        0.0000 
     35 CA         15.6520   -6.8790  -29.6140 C.3       3 GLC5        0.0000 
     36 CA         12.6725   -7.7245  -32.8525 C.3       3 GLC5        0.0000 
     37 CA         13.7440   -6.8620  -31.3090 C.3       9 GLL5        0.0000 
     38 CA         11.6980   -6.8450  -32.8815 C.3       3 GLC5        0.0000 
     39 CA         12.4930   -6.4320  -31.1900 C.3       9 GLL5        0.0000 
     40 CA         10.9030   -7.2580  -34.5730 C.3       6 GLP5        0.0000 
     41 CA         11.1205   -7.8485  -30.4045 C.3       3 GLC5        0.0000 
     42 CA          9.7480   -9.2650  -29.6190 C.3       6 GLP5        0.0000 
     43 CA         11.8655   -5.5525  -29.6310 C.3       3 GLC5        0.0000 
     44 CA         11.2380   -4.6730  -28.0720 C.3       6 GLP5        0.0000 
     45 N          17.8350   -9.0465  -31.0180 N.am      2 SEC2        0.0000 
     46 N          17.0490   -8.0650  -31.4110 N.am      8 SEL2        0.0000 
     47 N          18.6210  -10.0280  -30.6250 N.am      5 SEP2        0.0000 
     48 O          17.8655   -7.2695  -32.0690 O.2       1 ALC1        0.0000 
     49 O          17.0490   -8.0650  -31.4110 O.2       7 ALL1        0.0000 
     50 O          18.6820   -6.4740  -32.7270 O.2       4 ALP1        0.0000 
     51 N          13.2580   -9.9670  -28.9680 N.am      2 SEC2        0.0000 
     52 N          13.2300   -8.6310  -29.6760 N.am      8 SEL2        0.0000 
     53 N          13.2860  -11.3030  -28.2600 N.am      5 SEP2        0.0000 
     54 O          11.9770   -8.9630  -30.1685 O.2       1 ALC1        0.0000 
     55 O          13.2300   -8.6310  -29.6760 O.2       7 ALL1        0.0000 
     56 O          10.7240   -9.2950  -30.6610 O.2       4 ALP1        0.0000 
     57 CA          9.3690   -3.2920  -31.9575 C.3       3 GLC5        0.0000 
     58 CA         10.8490   -2.2740  -32.2920 C.3       9 GLL5        0.0000 
     59 CA          7.8890   -4.3100  -31.6230 C.3       6 GLP5        0.0000 
     60 CA          8.6475   -0.7255  -29.0760 C.3       3 GLC5        0.0000 
     61 CA          9.0250    0.0690  -30.9760 C.3       9 GLL5        0.0000 
     62 CA          8.2700   -1.5200  -27.1760 C.3       6 GLP5        0.0000 
     63 CA          9.7640    3.6105  -29.9370 C.3       3 GLC5        0.0000 
     64 CA         10.3550    2.1570  -30.7510 C.3       9 GLL5        0.0000 
     65 CA          9.1730    5.0640  -29.1230 C.3       6 GLP5        0.0000 
     66 CA          7.9470   -2.2295  -31.7250 C.3       3 GLC5        0.0000 
     67 CA          8.0050   -0.1490  -31.8270 C.3       9 GLL5        0.0000 
     68 CA          8.7840   -0.2405  -35.2810 C.3       3 GLC5        0.0000 
     69 CA          8.0060    0.2040  -33.3010 C.3       9 GLL5        0.0000 
     70 CA          4.9545   -0.2490  -35.0670 C.3       3 GLC5        0.0000 
     71 CA          6.6590   -0.3000  -33.8640 C.3       9 GLL5        0.0000 
     72 CA          3.2500   -0.1980  -36.2700 C.3       6 GLP5        0.0000 
     73 CA          7.3620   -1.4575  -35.3415 C.3       3 GLC5        0.0000 
     74 CA          8.0650   -2.6150  -36.8190 C.3       6 GLP5        0.0000 
     75 CA          6.7885    0.8015  -35.6200 C.3       3 GLC5        0.0000 
     76 CA          6.9180    1.9030  -37.3760 C.3       6 GLP5        0.0000 
     77 N           6.0925   -0.1425  -29.3070 N.am      2 SEC2        0.0000 
     78 N           6.4580   -1.0560  -30.2990 N.am      8 SEL2        0.0000 
     79 N           5.7270    0.7710  -28.3150 N.am      5 SEP2        0.0000 
     80 CA          4.0485   -1.1155  -34.6280 C.3       3 GLC5        0.0000 
     81 CA          4.8470   -2.0330  -32.9860 C.3       9 GLL5        0.0000 
     82 CA          5.1280   -3.8010  -30.8710 C.3       3 GLC5        0.0000 
     83 CA          4.0800   -2.4570  -31.7740 C.3       9 GLL5        0.0000 
     84 CA          6.1760   -5.1450  -29.9680 C.3       6 GLP5        0.0000 
     85 CA          2.4360   -3.1245  -31.3820 C.3       3 GLC5        0.0000 
     86 CA          0.7920   -3.7920  -30.9900 C.3       6 GLP5        0.0000 
     87 CA          3.9760   -2.5750  -29.8980 C.3       3 GLC5        0.0000 
     88 CA          3.8720   -2.6930  -28.0220 C.3       6 GLP5        0.0000 
     89 N           5.0850    0.5530  -29.8595 N.am      2 SEC2        0.0000 
     90 N           4.4430    0.3350  -31.4040 N.am      8 SEL2        0.0000 
     91 CA          3.4380    0.8700  -34.8035 C.3       3 GLC5        0.0000 
     92 CA          3.6260    1.9380  -33.3370 C.3       9 GLL5        0.0000 
     93 CA          5.5370    2.8345  -33.1205 C.3       3 GLC5        0.0000 
     94 CA          7.4480    3.7310  -32.9040 C.3       6 GLP5        0.0000 
     95 CA          3.3440    3.7095  -33.5725 C.3       3 GLC5        0.0000 
     96 CA          3.0620    5.4810  -33.8080 C.3       6 GLP5        0.0000 
     97 CA         16.3865  -11.0445  -31.0220 C.3       3 GLC5        0.0000 
     98 CA         14.4910  -10.9720  -32.1790 C.3       9 GLL5        0.0000 
     99 CA         16.2630  -11.2925  -32.9875 C.3       3 GLC5        0.0000 
    100 CA         14.3365  -10.7355  -33.9805 C.3       3 GLC5        0.0000 
    101 CA         14.1820  -10.4990  -35.7820 C.3       6 GLP5        0.0000 
    102 CA         13.0460   -9.7795  -33.2875 C.3       3 GLC5        0.0000 
    103 CA         13.6730  -11.9955  -33.9020 C.3       3 GLC5        0.0000 
    104 CA         13.6760  -12.1910  -31.9270 C.3       9 GLL5        0.0000 
    105 CA         13.6700  -11.8000  -35.8770 C.3       6 GLP5        0.0000 
    106 CA         15.8340  -12.6235  -29.6525 C.3       3 GLC5        0.0000 
    107 CA         14.6290  -13.1230  -31.2070 C.3       9 GLL5        0.0000 
    108 CA         17.0390  -12.1240  -28.0980 C.3       6 GLP5        0.0000 
    109 N          13.5875  -12.4040  -29.1455 N.am      2 SEC2        0.0000 
    110 N          13.8890  -13.5050  -30.0310 N.am      8 SEL2        0.0000 
    111 N          13.8420  -13.2790  -28.4115 N.am      2 SEC2        0.0000 
    112 N          13.7950  -13.0530  -26.7920 N.am      5 SEP2        0.0000 
    113 O          13.6855  -14.8455  -30.5375 O.2       1 ALC1        0.0000 
    114 O          13.8890  -13.5050  -30.0310 O.2       7 ALL1        0.0000 
    115 O          13.4820  -16.1860  -31.0440 O.2       4 ALP1        0.0000 
    116 CA         14.5623   -1.9985  -35.9515 C.3       3 GLC5        0.0000 
    117 CA         15.4920   -1.9890  -37.7800 C.3       6 GLP5        0.0000 
    118 CA         12.9215    0.5097  -34.9295 C.3       3 GLC5        0.0000 
    119 CA         13.2390    2.2500  -35.7770 C.3       6 GLP5        0.0000 
    120 CA         15.0608   -3.9890  -30.7043 C.3       3 GLC5        0.0000 
    121 CA         11.8135   -2.9200  -29.0167 C.3       3 GLC5        0.0000 
    122 CA         12.6340   -0.9000  -27.8453 C.3       3 GLC5        0.0000 
    123 CA         12.8790   -0.6330  -25.7290 C.3       6 GLP5        0.0000 
    124 CA         13.1730    0.6305  -29.7843 C.3       3 GLC5        0.0000 
    125 CA         11.8520   -0.6360  -29.8380 C.3       9 GLL5        0.0000 
    126 CA         13.9570    2.4280  -29.6070 C.3       6 GLP5        0.0000 
    127 CA         16.3357   -3.9067  -32.2113 C.3       3 GLC5        0.0000 
    128 CA         14.1110   -3.9680  -31.9240 C.3       9 GLL5        0.0000 
    129 CA         18.2070   -3.3140  -32.1210 C.3       6 GLP5        0.0000 
    130 CA         13.3137   -5.9710  -33.8285 C.3       3 GLC5        0.0000 
    131 CA         14.8180   -5.0310  -32.6790 C.3       9 GLL5        0.0000 
    132 CA         11.8970   -6.2510  -35.1340 C.3       6 GLP5        0.0000 
    133 CA         14.9225   -9.2243  -34.2295 C.3       3 GLC5        0.0000 
    134 CA         17.6825   -7.6442  -32.9620 C.3       3 GLC5        0.0000 
    135 CA         19.7020   -7.3390  -33.2470 C.3       6 GLP5        0.0000 
    136 CA         16.5115   -7.9343  -34.2760 C.3       3 GLC5        0.0000 
    137 CA         17.3600   -7.9190  -35.8750 C.3       6 GLP5        0.0000 
    138 CA         15.1861   -5.4548  -30.5845 C.3       3 GLC5        0.0000 
    139 CA         14.6430   -6.3510  -32.3670 C.3       9 GLL5        0.0000 
    140 CA         10.8050    2.3795  -32.7802 C.3       3 GLC5        0.0000 
    141 CA         10.2910    0.7710  -31.4360 C.3       9 GLL5        0.0000 
    142 CA         11.2870    3.2950  -34.4670 C.3       6 GLP5        0.0000 
    143 CA          7.5830    0.8685  -29.7818 C.3       3 GLC5        0.0000 
    144 CA          6.6510    1.7770  -28.1620 C.3       6 GLP5        0.0000 
    145 CA          8.7273    2.5097  -31.9413 C.3       3 GLC5        0.0000 
    146 CA         12.3034    1.8441  -30.3264 C.3       3 GLC5        0.0000 
    147 CA          7.3901    1.7974  -33.0590 C.3       3 GLC5        0.0000 
    148 CA          6.6615   -2.9303  -32.2412 C.3       3 GLC5        0.0000 
    149 CA          6.0210   -1.0680  -32.7330 C.3       9 GLL5        0.0000 
    150 CA          4.4372   -3.5360  -33.8360 C.3       3 GLC5        0.0000 
    151 CA          4.4110   -4.8270  -35.2920 C.3       6 GLP5        0.0000 
    152 CA         12.5777  -13.3045  -32.2615 C.3       3 GLC5        0.0000 
    153 CA         11.0030  -13.9520  -32.9560 C.3       6 GLP5        0.0000 
@<TRIPOS>BOND
@<TRIPOS>SUBSTRUCTURE
     1 ALC1       48 GROUP        1 X    ALC  0     ROOT ALC X 1
     2 SEC2       45 GROUP        1 X    SEC  0     **** SEC X 2
     3 GLC5        1 GROUP        1 X    GLC  0     **** GLC X 6
     4 ALP1       50 GROUP        1 Y    ALP  0     ROOT ALP Y 8
     5 SEP2       47 GROUP        1 Y    SEP  0     **** SEP Y 9
     6 GLP5        3 GROUP        1 Y    GLP  0     **** GLP Y 13
     7 ALL1       49 GROUP        1 Z    ALL  0     ROOT ALL Z 15
     8 SEL2       46 GROUP        1 Z    SEL  0     **** SEL Z 16
     9 GLL5        2 GROUP        1 Z    GLL  0     **** GLL Z 20
@<TRIPOS>SET

