#    Name: 3vhw_VHW_1_ligand
#    Modification time : Tue Mar 25 00:54:16 2014

@<TRIPOS>MOLECULE
3vhw_VHW_1_ligand
   89    92     1     0     0
SMALL
NO_CHARGES


@<TRIPOS>ATOM
      1 C1         13.0080   -1.7560  -34.4770 C.3       1 VHW1        0.0000 
      2 C2         14.2570   -2.2600  -33.7690 C.3       1 VHW1        0.0000 
      3 C3         13.8620   -2.7220  -32.3870 C.2       1 VHW1        0.0000 
      4 C4         12.2000   -0.7050  -33.6870 C.3       1 VHW1        0.0000 
      5 C5         11.9080   -1.1590  -32.2640 C.3       1 VHW1        0.0000 
      6 C6         13.1900   -1.6300  -31.6050 C.3       1 VHW1        0.0000 
      7 C7         12.9260   -1.6980  -30.0850 C.3       1 VHW1        0.0000 
      8 C8         11.8520   -0.6360  -29.8380 C.3       1 VHW1        0.0000 
      9 C9         11.5980   -0.0440  -31.2450 C.3       1 VHW1        0.0000 
     10 C10        14.1110   -3.9680  -31.9240 C.2       1 VHW1        0.0000 
     11 C11        14.8180   -5.0310  -32.6790 C.2       1 VHW1        0.0000 
     12 C12        14.6430   -6.3510  -32.3670 C.2       1 VHW1        0.0000 
     13 C13        15.4030   -7.3900  -33.1290 C.3       1 VHW1        0.0000 
     14 C14        15.9230   -8.5090  -32.2250 C.3       1 VHW1        0.0000 
     15 C15        14.8600   -9.0350  -31.2650 C.3       1 VHW1        0.0000 
     16 C16        14.2580   -7.9440  -30.3910 C.3       1 VHW1        0.0000 
     17 C17        13.7440   -6.8620  -31.3090 C.2       1 VHW1        0.0000 
     18 C18        12.4930   -6.4320  -31.1900 C.2       1 VHW1        0.0000 
     19 O19        17.0490   -8.0650  -31.4110 O.3       1 VHW1        0.0000 
     20 O20        13.2300   -8.6310  -29.6760 O.3       1 VHW1        0.0000 
     21 C21        10.2910    0.7710  -31.4360 C.3       1 VHW1        0.0000 
     22 C22        10.8490   -2.2740  -32.2920 C.3       1 VHW1        0.0000 
     23 C23         9.0250    0.0690  -30.9760 C.2       1 VHW1        0.0000 
     24 C24        10.3550    2.1570  -30.7510 C.3       1 VHW1        0.0000 
     25 C25         8.0050   -0.1490  -31.8270 C.2       1 VHW1        0.0000 
     26 C26         8.0060    0.2040  -33.3010 C.3       1 VHW1        0.0000 
     27 C27         6.6590   -0.3000  -33.8640 C.3       1 VHW1        0.0000 
     28 C28         6.0210   -1.0680  -32.7330 C.3       1 VHW1        0.0000 
     29 C29         6.7710   -0.7860  -31.4550 C.2       1 VHW1        0.0000 
     30 O30         6.4580   -1.0560  -30.2990 O.2       1 VHW1        0.0000 
     31 C31         4.8470   -2.0330  -32.9860 C.3       1 VHW1        0.0000 
     32 C32         5.0350    0.0970  -32.4620 C.2       1 VHW1        0.0000 
     33 C33         4.0800   -2.4570  -31.7740 C.3       1 VHW1        0.0000 
     34 O34         4.7470    1.0640  -33.4980 O.3       1 VHW1        0.0000 
     35 O35         4.4430    0.3350  -31.4040 O.2       1 VHW1        0.0000 
     36 C36         3.6260    1.9380  -33.3370 C.3       1 VHW1        0.0000 
     37 O37        13.8440   -9.7420  -31.9810 O.3       1 VHW1        0.0000 
     38 C38        14.4910  -10.9720  -32.1790 C.3       1 VHW1        0.0000 
     39 C39        13.6760  -12.1910  -31.9270 C.3       1 VHW1        0.0000 
     40 C40        14.6290  -13.1230  -31.2070 C.3       1 VHW1        0.0000 
     41 O41        13.8890  -13.5050  -30.0310 O.3       1 VHW1        0.0000 
     42 H          12.3448   -2.6112  -34.6977 H         1 VHW1        0.0000 
     43 H          13.2933   -1.3170  -35.4495 H         1 VHW1        0.0000 
     44 H          14.9762   -1.4569  -33.6957 H         1 VHW1        0.0000 
     45 H          14.6762   -3.0856  -34.3260 H         1 VHW1        0.0000 
     46 H          11.2590   -0.5201  -34.2117 H         1 VHW1        0.0000 
     47 H          12.7687    0.2282  -33.6632 H         1 VHW1        0.0000 
     48 H          13.8759   -0.6818  -31.7219 H         1 VHW1        0.0000 
     49 H          13.8128   -1.4446  -29.5617 H         1 VHW1        0.0000 
     50 H          12.5504   -2.6577  -29.8353 H         1 VHW1        0.0000 
     51 H          12.2288    0.1197  -29.2027 H         1 VHW1        0.0000 
     52 H          10.9664   -1.0915  -29.4844 H         1 VHW1        0.0000 
     53 H          12.4669    0.7052  -31.3821 H         1 VHW1        0.0000 
     54 H          13.7986   -4.2566  -30.9563 H         1 VHW1        0.0000 
     55 H          15.4353   -4.7208  -33.4361 H         1 VHW1        0.0000 
     56 H          16.2585   -6.9276  -33.6399 H         1 VHW1        0.0000 
     57 H          14.7584   -7.8344  -33.8996 H         1 VHW1        0.0000 
     58 H          16.2397   -9.3428  -32.8510 H         1 VHW1        0.0000 
     59 H          15.3770   -9.7450  -30.5805 H         1 VHW1        0.0000 
     60 H          15.0187   -7.5784  -29.7605 H         1 VHW1        0.0000 
     61 H          10.1805    0.9744  -32.5224 H         1 VHW1        0.0000 
     62 H           9.0199   -0.2134  -29.9914 H         1 VHW1        0.0000 
     63 H           8.8043   -0.3010  -33.8014 H         1 VHW1        0.0000 
     64 H           8.0623    1.2640  -33.4272 H         1 VHW1        0.0000 
     65 H           6.8480   -0.9442  -34.6921 H         1 VHW1        0.0000 
     66 H           6.0581    0.5393  -34.1303 H         1 VHW1        0.0000 
     67 H           5.2488   -2.9305  -33.5070 H         1 VHW1        0.0000 
     68 H           4.1582   -1.5493  -33.7140 H         1 VHW1        0.0000 
     69 H          15.4193  -11.0451  -31.5376 H         1 VHW1        0.0000 
     70 H          14.8980  -11.0467  -33.2312 H         1 VHW1        0.0000 
     71 H          13.3701  -12.6354  -32.8472 H         1 VHW1        0.0000 
     72 H          12.8495  -11.9658  -31.2913 H         1 VHW1        0.0000 
     73 H          15.5191  -12.5833  -30.9601 H         1 VHW1        0.0000 
     74 H          14.8347  -13.9617  -31.8385 H         1 VHW1        0.0000 
     75 H          11.1562   -3.0648  -32.8215 H         1 VHW1        0.0000 
     76 H          10.6318   -2.6030  -31.3730 H         1 VHW1        0.0000 
     77 H           9.9919   -1.9619  -32.7018 H         1 VHW1        0.0000 
     78 H          10.4998    2.0775  -29.7647 H         1 VHW1        0.0000 
     79 H          11.1012    2.7159  -31.1127 H         1 VHW1        0.0000 
     80 H           9.5101    2.6756  -30.8823 H         1 VHW1        0.0000 
     81 H           4.6617   -2.9321  -31.1138 H         1 VHW1        0.0000 
     82 H           3.6748   -1.6759  -31.2989 H         1 VHW1        0.0000 
     83 H           3.3321   -3.0788  -32.0065 H         1 VHW1        0.0000 
     84 H           3.7110    2.5038  -32.5168 H         1 VHW1        0.0000 
     85 H           3.5258    2.5604  -34.1133 H         1 VHW1        0.0000 
     86 H           2.7682    1.4306  -33.2555 H         1 VHW1        0.0000 
     87 H          17.5681   -7.4478  -32.0022 H         1 VHW1        0.0000 
     88 H          12.4857   -8.7407  -30.3348 H         1 VHW1        0.0000 
     89 H          13.6052  -14.4490  -30.1993 H         1 VHW1        0.0000 
@<TRIPOS>BOND
     1    2    1 1    
     2    4    1 1    
     3   42    1 1    
     4   43    1 1    
     5    3    2 1    
     6   44    2 1    
     7   45    2 1    
     8    6    3 1    
     9   10    3 2    
    10    5    4 1    
    11   46    4 1    
    12   47    4 1    
    13    6    5 1    
    14    9    5 1    
    15   22    5 1    
    16    7    6 1    
    17   48    6 1    
    18    8    7 1    
    19   49    7 1    
    20   50    7 1    
    21    9    8 1    
    22   51    8 1    
    23   52    8 1    
    24   21    9 1    
    25   53    9 1    
    26   11   10 1    
    27   54   10 1    
    28   12   11 2    
    29   55   11 1    
    30   13   12 1    
    31   17   12 1    
    32   14   13 1    
    33   56   13 1    
    34   57   13 1    
    35   15   14 1    
    36   19   14 1    
    37   58   14 1    
    38   16   15 1    
    39   37   15 1    
    40   59   15 1    
    41   17   16 1    
    42   20   16 1    
    43   60   16 1    
    44   18   17 2    
    45   87   19 1    
    46   88   20 1    
    47   23   21 1    
    48   24   21 1    
    49   61   21 1    
    50   75   22 1    
    51   76   22 1    
    52   77   22 1    
    53   25   23 2    
    54   62   23 1    
    55   78   24 1    
    56   79   24 1    
    57   80   24 1    
    58   26   25 1    
    59   29   25 1    
    60   27   26 1    
    61   63   26 1    
    62   64   26 1    
    63   28   27 1    
    64   65   27 1    
    65   66   27 1    
    66   29   28 1    
    67   31   28 1    
    68   32   28 1    
    69   30   29 2    
    70   33   31 1    
    71   67   31 1    
    72   68   31 1    
    73   34   32 1    
    74   35   32 2    
    75   81   33 1    
    76   82   33 1    
    77   83   33 1    
    78   36   34 1    
    79   84   36 1    
    80   85   36 1    
    81   86   36 1    
    82   38   37 1    
    83   39   38 1    
    84   69   38 1    
    85   70   38 1    
    86   40   39 1    
    87   71   39 1    
    88   72   39 1    
    89   41   40 1    
    90   73   40 1    
    91   74   40 1    
    92   89   41 1    
@<TRIPOS>SUBSTRUCTURE
     1 VHW1        1 GROUP   
@<TRIPOS>SET

