#    Name: 1gtr_ATP_1_INTS_M
#    Modification time : Tue Mar 25 03:52:00 2014

@<TRIPOS>MOLECULE
1gtr_ATP_1_INTS_M
   55     0    12     0     0
SMALL
NO_CHARGES


@<TRIPOS>ATOM
      1 NZ         50.1965   25.5385   16.4285 N.4       3 LYC4        0.0000 
      2 NZ         50.6440   26.2510   17.6810 N.4      11 LYL4        0.0000 
      3 NZ         49.7490   24.8260   15.1760 N.4       7 LYP4        0.0000 
      4 N          52.1080   26.3460   17.3035 N.am      2 SEC2        0.0000 
      5 N          50.6440   26.2510   17.6810 N.am     10 SEL2        0.0000 
      6 N          53.5720   26.4410   16.9260 N.am      6 SEP2        0.0000 
      7 NZ         48.8455   25.8890   14.6055 N.4       3 LYC4        0.0000 
      8 NZ         47.9420   26.9520   14.0350 N.4      11 LYL4        0.0000 
      9 N          48.7625   27.6470   12.9925 N.am      2 SEC2        0.0000 
     10 N          47.9420   26.9520   14.0350 N.am     10 SEL2        0.0000 
     11 N          49.5830   28.3420   11.9500 N.am      6 SEP2        0.0000 
     12 N          46.8795   25.7305   14.6760 N.am      2 SEC2        0.0000 
     13 N          45.8170   24.5090   15.3170 N.am      6 SEP2        0.0000 
     14 N          48.8455   25.8890   14.6055 N.am      2 SEC2        0.0000 
     15 N          49.7490   24.8260   15.1760 N.am      6 SEP2        0.0000 
     16 N          48.8865   25.9015   15.8440 N.am      2 SEC2        0.0000 
     17 N          48.0240   26.9770   16.5120 N.am     10 SEL2        0.0000 
     18 N          45.8825   26.1910   15.2655 N.am      2 SEC2        0.0000 
     19 N          45.9480   27.8730   15.2140 N.am     10 SEL2        0.0000 
     20 CA         46.3450   28.0045   12.4775 C.3       4 GLC5        0.0000 
     21 CA         45.2750   28.1530   13.9830 C.3      12 GLL5        0.0000 
     22 CA         47.4150   27.8560   10.9720 C.3       8 GLP5        0.0000 
     23 CA         43.5290   29.7620   12.2595 C.3       4 GLC5        0.0000 
     24 CA         43.7910   28.5020   14.0940 C.3      12 GLL5        0.0000 
     25 CA         43.2670   31.0220   10.4250 C.3       8 GLP5        0.0000 
     26 CA         43.5445   26.1735   15.2750 C.3       4 GLC5        0.0000 
     27 CA         42.4000   27.8600   15.8860 C.3      12 GLL5        0.0000 
     28 CA         44.6890   24.4870   14.6640 C.3       8 GLP5        0.0000 
     29 CA         40.9175   27.2100   14.7410 C.3       4 GLC5        0.0000 
     30 CA         39.4350   26.5600   13.5960 C.3       8 GLP5        0.0000 
     31 O          40.7860   23.2550   21.5845 O.2       1 ALC1        0.0000 
     32 O          41.6330   23.9830   20.4620 O.2       9 ALL1        0.0000 
     33 O          39.9390   22.5270   22.7070 O.2       5 ALP1        0.0000 
     34 N          38.9495   24.6235   20.4505 N.am      2 SEC2        0.0000 
     35 N          39.8710   24.9280   19.2950 N.am     10 SEL2        0.0000 
     36 N          38.0280   24.3190   21.6060 N.am      6 SEP2        0.0000 
     37 CA         40.0155   23.6620   18.1120 C.3       4 GLC5        0.0000 
     38 CA         39.4470   25.7310   18.3330 C.3      12 GLL5        0.0000 
     39 CA         40.5840   21.5930   17.8910 C.3       8 GLP5        0.0000 
     40 CA         37.4975   24.9890   18.2925 C.3       4 GLC5        0.0000 
     41 CA         35.5480   24.2470   18.2520 C.3       8 GLP5        0.0000 
     42 CA         39.6415   27.6085   18.8980 C.3       4 GLC5        0.0000 
     43 CA         39.8360   29.4860   19.4630 C.3       8 GLP5        0.0000 
     44 CA         38.8365   26.2250   20.0835 C.3       4 GLC5        0.0000 
     45 CA         38.2260   26.7190   21.8340 C.3       8 GLP5        0.0000 
     46 CA         40.6535   27.8780   18.5690 C.3       4 GLC5        0.0000 
     47 CA         41.4710   26.2700   17.6750 C.3      12 GLL5        0.0000 
     48 CA         43.5665   27.2587   12.6723 C.3       4 GLC5        0.0000 
     49 CA         42.6000   26.1900   11.3060 C.3       8 GLP5        0.0000 
     50 CA         44.6110   26.4072   14.3513 C.3       4 GLC5        0.0000 
     51 CA         41.1010   23.3605   18.4755 C.3       4 GLC5        0.0000 
     52 CA         42.0470   25.4800   18.6340 C.3      12 GLL5        0.0000 
     53 CA         40.6640   26.0030   20.6125 C.3       4 GLC5        0.0000 
     54 CA         41.1890   24.7760   19.4860 C.3      12 GLL5        0.0000 
     55 CA         39.7100   26.8780   22.1650 C.3       8 GLP5        0.0000 
@<TRIPOS>BOND
@<TRIPOS>SUBSTRUCTURE
     1 ALC1       31 GROUP        1 X    ALC  0     ROOT ALC X 1
     2 SEC2        4 GROUP        1 X    SEC  0     **** SEC X 2
     3 LYC4        1 GROUP        1 X    LYC  0     **** LYC X 4
     4 GLC5       20 GROUP        1 X    GLC  0     **** GLC X 6
     5 ALP1       33 GROUP        1 Y    ALP  0     ROOT ALP Y 8
     6 SEP2        6 GROUP        1 Y    SEP  0     **** SEP Y 9
     7 LYP4        3 GROUP        1 Y    LYP  0     **** LYP Y 11
     8 GLP5       22 GROUP        1 Y    GLP  0     **** GLP Y 13
     9 ALL1       32 GROUP        1 Z    ALL  0     ROOT ALL Z 15
    10 SEL2        5 GROUP        1 Z    SEL  0     **** SEL Z 16
    11 LYL4        2 GROUP        1 Z    LYL  0     **** LYL Z 18
    12 GLL5       21 GROUP        1 Z    GLL  0     **** GLL Z 20
@<TRIPOS>SET

