#    Name: 1gtr_ATP_1_ligand
#    Modification time : Tue Mar 25 03:52:00 2014

@<TRIPOS>MOLECULE
1gtr_ATP_1_ligand
   43    45     1     0     0
SMALL
NO_CHARGES


@<TRIPOS>ATOM
      1 PG         50.1820   26.5710   19.0500 P.3       1 ATP999      0.0000 
      2 O1G        51.1800   27.2780   19.8840 O.co2     1 ATP999      0.0000 
      3 O2G        49.4570   25.4880   19.7580 O.co2     1 ATP999      0.0000 
      4 O3G        50.6440   26.2510   17.6810 O.co2     1 ATP999      0.0000 
      5 PB         47.6160   27.3220   18.0330 P.3       1 ATP999      0.0000 
      6 O1B        47.0680   26.0830   18.6370 O.co2     1 ATP999      0.0000 
      7 O2B        46.8090   28.5620   18.0490 O.co2     1 ATP999      0.0000 
      8 O3B        49.0300   27.6700   18.7580 O.3       1 ATP999      0.0000 
      9 PA         47.5570   27.7900   15.1900 P.3       1 ATP999      0.0000 
     10 O1A        48.0810   29.1650   15.2960 O.co2     1 ATP999      0.0000 
     11 O2A        47.9420   26.9520   14.0350 O.co2     1 ATP999      0.0000 
     12 O3A        48.0240   26.9770   16.5120 O.3       1 ATP999      0.0000 
     13 O5'        45.9480   27.8730   15.2140 O.3       1 ATP999      0.0000 
     14 C5'        45.2750   28.1530   13.9830 C.3       1 ATP999      0.0000 
     15 C4'        43.7910   28.5020   14.0940 C.3       1 ATP999      0.0000 
     16 O4'        43.0670   27.4140   14.6980 O.3       1 ATP999      0.0000 
     17 C3'        43.5750   29.7400   14.9510 C.3       1 ATP999      0.0000 
     18 O3'        42.4960   30.4900   14.3870 O.3       1 ATP999      0.0000 
     19 C2'        43.1740   29.1120   16.2760 C.3       1 ATP999      0.0000 
     20 O2'        42.3230   29.9990   17.0080 O.3       1 ATP999      0.0000 
     21 C1'        42.4000   27.8600   15.8860 C.3       1 ATP999      0.0000 
     22 N9         42.5080   26.8610   16.9820 N.pl3     1 ATP999      0.0000 
     23 C8         43.6490   26.3650   17.5710 C.2       1 ATP999      0.0000 
     24 N7         43.4280   25.5430   18.5560 N.2       1 ATP999      0.0000 
     25 C5         42.0470   25.4800   18.6340 C.ar      1 ATP999      0.0000 
     26 C6         41.1890   24.7760   19.4860 C.ar      1 ATP999      0.0000 
     27 N6         41.6330   23.9830   20.4620 N.pl3     1 ATP999      0.0000 
     28 N1         39.8710   24.9280   19.2950 N.ar      1 ATP999      0.0000 
     29 C2         39.4470   25.7310   18.3330 C.ar      1 ATP999      0.0000 
     30 N3         40.1470   26.4470   17.4650 N.ar      1 ATP999      0.0000 
     31 C4         41.4710   26.2700   17.6750 C.ar      1 ATP999      0.0000 
     32 H          45.3569   27.2848   13.2757 H         1 ATP999      0.0000 
     33 H          45.7724   28.9997   13.4386 H         1 ATP999      0.0000 
     34 H          43.4103   28.7059   13.1046 H         1 ATP999      0.0000 
     35 H          44.4676   30.2457   15.0522 H         1 ATP999      0.0000 
     36 H          44.0418   28.8273   16.7993 H         1 ATP999      0.0000 
     37 H          41.4009   28.1314   15.7001 H         1 ATP999      0.0000 
     38 H          44.5605   26.6387   17.2395 H         1 ATP999      0.0000 
     39 H          42.6257   23.9360   20.5734 H         1 ATP999      0.0000 
     40 H          40.9333   23.5068   20.9946 H         1 ATP999      0.0000 
     41 H          38.3398   25.8187   18.2380 H         1 ATP999      0.0000 
     42 H          41.8305   30.5827   15.1276 H         1 ATP999      0.0000 
     43 H          42.8045   30.1686   17.8679 H         1 ATP999      0.0000 
@<TRIPOS>BOND
     1    2    1 ar   
     2    3    1 ar   
     3    4    1 ar   
     4    8    1 1    
     5    6    5 ar   
     6    7    5 ar   
     7    8    5 1    
     8   12    5 1    
     9   10    9 ar   
    10   11    9 ar   
    11   12    9 1    
    12   13    9 1    
    13   14   13 1    
    14   15   14 1    
    15   32   14 1    
    16   33   14 1    
    17   16   15 1    
    18   17   15 1    
    19   34   15 1    
    20   21   16 1    
    21   18   17 1    
    22   19   17 1    
    23   35   17 1    
    24   42   18 1    
    25   20   19 1    
    26   21   19 1    
    27   36   19 1    
    28   43   20 1    
    29   22   21 1    
    30   37   21 1    
    31   23   22 1    
    32   31   22 1    
    33   24   23 2    
    34   38   23 1    
    35   25   24 1    
    36   26   25 ar   
    37   31   25 ar   
    38   27   26 1    
    39   28   26 ar   
    40   39   27 1    
    41   40   27 1    
    42   29   28 ar   
    43   30   29 ar   
    44   41   29 1    
    45   31   30 ar   
@<TRIPOS>SUBSTRUCTURE
     1 ATP999      1 GROUP   
@<TRIPOS>SET

