#    Name: 2xsi_9NE_1_INTS_M
#    Modification time : Tue Mar 25 06:33:16 2014

@<TRIPOS>MOLECULE
2xsi_9NE_1_INTS_M
   62     0    12     0     0
SMALL
NO_CHARGES


@<TRIPOS>ATOM
      1 O          30.1920   16.8595   11.1045 O.2       1 ALC1        0.0000 
      2 O          29.8740   15.5270   10.5510 O.2       9 ALL1        0.0000 
      3 O          30.5100   18.1920   11.6580 O.2       5 ALP1        0.0000 
      4 NZ         28.1850   12.1545   11.6715 N.4       3 LYC4        0.0000 
      5 NZ         27.1030   13.4400   11.3670 N.4      11 LYL4        0.0000 
      6 NZ         29.2670   10.8690   11.9760 N.4       7 LYP4        0.0000 
      7 N          28.1850   12.1545   11.6715 N.am      2 SEC2        0.0000 
      8 N          27.1030   13.4400   11.3670 N.am     10 SEL2        0.0000 
      9 N          29.2670   10.8690   11.9760 N.am      6 SEP2        0.0000 
     10 NZ         29.8210   11.8065   13.1160 N.4       3 LYC4        0.0000 
     11 NZ         30.3750   12.7440   14.2560 N.4      11 LYL4        0.0000 
     12 N          29.8210   11.8065   13.1160 N.am      2 SEC2        0.0000 
     13 N          30.3750   12.7440   14.2560 N.am     10 SEL2        0.0000 
     14 NZ         25.8965   16.0205    9.9950 N.4       3 LYC4        0.0000 
     15 NZ         26.9950   15.5930   11.0300 N.4      11 LYL4        0.0000 
     16 NZ         24.8130   17.7770    8.7980 N.4       7 LYP4        0.0000 
     17 NZ         27.3890   17.3395   10.3215 N.4       3 LYC4        0.0000 
     18 NZ         27.7830   19.0860    9.6130 N.4       7 LYP4        0.0000 
     19 N          25.8965   16.0205    9.9950 N.am      2 SEC2        0.0000 
     20 N          26.9950   15.5930   11.0300 N.am     10 SEL2        0.0000 
     21 N          24.7980   16.4480    8.9600 N.am      6 SEP2        0.0000 
     22 CA         35.4935   17.8945    6.4065 C.3       4 GLC5        0.0000 
     23 CA         34.4410   16.7980    7.9990 C.3      12 GLL5        0.0000 
     24 CA         36.5460   18.9910    4.8140 C.3       8 GLP5        0.0000 
     25 CA         39.2980   18.3780    9.6105 C.3       4 GLC5        0.0000 
     26 CA         37.3990   17.3370   10.0500 C.3      12 GLL5        0.0000 
     27 CA         41.1970   19.4190    9.1710 C.3       8 GLP5        0.0000 
     28 CA         38.0155   18.1360   11.4290 C.3       4 GLC5        0.0000 
     29 CA         38.6320   18.9350   12.8080 C.3       8 GLP5        0.0000 
     30 CA         36.6315   19.2865    9.9465 C.3       4 GLC5        0.0000 
     31 CA         35.8640   21.2360    9.8430 C.3       8 GLP5        0.0000 
     32 CA         40.0350   14.5520    9.7010 C.3       4 GLC5        0.0000 
     33 CA         38.2980   15.3990    8.9860 C.3      12 GLL5        0.0000 
     34 CA         41.7720   13.7050   10.4160 C.3       8 GLP5        0.0000 
     35 CA         39.2655   15.2625    7.5140 C.3       4 GLC5        0.0000 
     36 CA         40.2330   15.1260    6.0420 C.3       8 GLP5        0.0000 
     37 CA         31.8375   16.1728   12.7435 C.3       4 GLC5        0.0000 
     38 CA         30.9980   14.8580   13.2960 C.3      12 GLL5        0.0000 
     39 CA         33.4070   17.3280   12.3680 C.3       8 GLP5        0.0000 
     40 CA         32.3008   14.1615    7.2583 C.3       4 GLC5        0.0000 
     41 CA         32.0620   15.4710    8.8480 C.3      12 GLL5        0.0000 
     42 CA         32.5480   12.3680    6.1560 C.3       8 GLP5        0.0000 
     43 CA         32.4707   17.1980    9.9248 C.3       4 GLC5        0.0000 
     44 CA         32.8880   18.4410   11.4890 C.3       8 GLP5        0.0000 
     45 CA         31.7800   16.5745    5.9570 C.3       4 GLC5        0.0000 
     46 CA         32.0450   16.4390    7.8730 C.3      12 GLL5        0.0000 
     47 CA         30.9240   16.3770    4.2560 C.3       8 GLP5        0.0000 
     48 CA         34.5815   18.8577    8.1120 C.3       4 GLC5        0.0000 
     49 CA         33.2270   17.1050    7.4430 C.3      12 GLL5        0.0000 
     50 CA         35.3290   20.7640    8.5030 C.3       8 GLP5        0.0000 
     51 CA         33.3610   17.6962    9.6050 C.3       4 GLC5        0.0000 
     52 CA         34.2785   13.7248    8.4132 C.3       4 GLC5        0.0000 
     53 CA         34.5740   15.7830    9.0470 C.3      12 GLL5        0.0000 
     54 CA         34.5900   12.0270    7.5430 C.3       8 GLP5        0.0000 
     55 CA         33.6870   16.3753   10.8257 C.3       4 GLC5        0.0000 
     56 CA         33.3600   15.0620    9.5200 C.3      12 GLL5        0.0000 
     57 CA         34.3795   12.9812    9.1813 C.3       4 GLC5        0.0000 
     58 CA         33.5340   14.0660   10.5560 C.3      12 GLL5        0.0000 
     59 CA         33.7880   15.6318   11.5938 C.3       4 GLC5        0.0000 
     60 CA         35.2645   13.5085    8.8377 C.3       4 GLC5        0.0000 
     61 CA         35.9830   14.4960   10.6390 C.3      12 GLL5        0.0000 
     62 CA         34.6730   16.1590   11.2502 C.3       4 GLC5        0.0000 
@<TRIPOS>BOND
@<TRIPOS>SUBSTRUCTURE
     1 ALC1        1 GROUP        1 X    ALC  0     ROOT ALC X 1
     2 SEC2        7 GROUP        1 X    SEC  0     **** SEC X 2
     3 LYC4        4 GROUP        1 X    LYC  0     **** LYC X 4
     4 GLC5       22 GROUP        1 X    GLC  0     **** GLC X 6
     5 ALP1        3 GROUP        1 Y    ALP  0     ROOT ALP Y 8
     6 SEP2        9 GROUP        1 Y    SEP  0     **** SEP Y 9
     7 LYP4        6 GROUP        1 Y    LYP  0     **** LYP Y 11
     8 GLP5       24 GROUP        1 Y    GLP  0     **** GLP Y 13
     9 ALL1        2 GROUP        1 Z    ALL  0     ROOT ALL Z 15
    10 SEL2        8 GROUP        1 Z    SEL  0     **** SEL Z 16
    11 LYL4        5 GROUP        1 Z    LYL  0     **** LYL Z 18
    12 GLL5       23 GROUP        1 Z    GLL  0     **** GLL Z 20
@<TRIPOS>SET

