#    Name: 2xsi_9NE_1_ligand
#    Modification time : Tue Mar 25 06:33:16 2014

@<TRIPOS>MOLECULE
2xsi_9NE_1_ligand
   44    45     1     0     0
SMALL
NO_CHARGES


@<TRIPOS>ATOM
      1 N          29.8740   15.5270   10.5510 N.pl3     1 9NE2001     0.0000 
      2 CA         29.1710   14.6810   11.5280 C.3       1 9NE2001     0.0000 
      3 C          27.6660   14.6060   11.2890 C.2       1 9NE2001     0.0000 
      4 O          27.1030   13.4400   11.3670 O.co2     1 9NE2001     0.0000 
      5 CB         29.5380   15.1770   12.9420 C.3       1 9NE2001     0.0000 
      6 CG         30.9980   14.8580   13.2960 C.3       1 9NE2001     0.0000 
      7 CD         31.3020   13.4080   13.7400 C.2       1 9NE2001     0.0000 
      8 OE1        32.4580   12.9550   13.5750 O.co2     1 9NE2001     0.0000 
      9 OE2        30.3750   12.7440   14.2560 O.co2     1 9NE2001     0.0000 
     10 OXT        26.9950   15.5930   11.0300 O.co2     1 9NE2001     0.0000 
     11 S1         30.4970   14.6940    9.3090 S.o2      1 9NE2001     0.0000 
     12 O2         30.7460   13.3470    9.7710 O.2       1 9NE2001     0.0000 
     13 O3         29.5600   14.8730    8.2350 O.2       1 9NE2001     0.0000 
     14 C1         32.0620   15.4710    8.8480 C.ar      1 9NE2001     0.0000 
     15 C2         32.0450   16.4390    7.8730 C.ar      1 9NE2001     0.0000 
     16 C3         33.2270   17.1050    7.4430 C.ar      1 9NE2001     0.0000 
     17 C4         34.4410   16.7980    7.9990 C.ar      1 9NE2001     0.0000 
     18 C5         34.5740   15.7830    9.0470 C.ar      1 9NE2001     0.0000 
     19 C6         33.3600   15.0620    9.5200 C.ar      1 9NE2001     0.0000 
     20 C7         33.5340   14.0660   10.5560 C.ar      1 9NE2001     0.0000 
     21 C8         34.8040   13.8050   11.0830 C.ar      1 9NE2001     0.0000 
     22 C9         35.9830   14.4960   10.6390 C.ar      1 9NE2001     0.0000 
     23 C10        35.8950   15.4840    9.6260 C.ar      1 9NE2001     0.0000 
     24 N1         37.0500   16.2260    9.1320 N.3       1 9NE2001     0.0000 
     25 C11        37.3990   17.3370   10.0500 C.3       1 9NE2001     0.0000 
     26 C12        38.2980   15.3990    8.9860 C.3       1 9NE2001     0.0000 
     27 H          29.9894   16.4480   10.5766 H         1 9NE2001     0.0000 
     28 H          29.5792   13.6530   11.4495 H         1 9NE2001     0.0000 
     29 H          28.8800   14.6976   13.6671 H         1 9NE2001     0.0000 
     30 H          29.3846   16.2553   12.9897 H         1 9NE2001     0.0000 
     31 H          31.3275   15.5464   14.1039 H         1 9NE2001     0.0000 
     32 H          31.6376   15.0954   12.4186 H         1 9NE2001     0.0000 
     33 H          31.1465   16.7095    7.4202 H         1 9NE2001     0.0000 
     34 H          33.1445   17.8205    6.7060 H         1 9NE2001     0.0000 
     35 H          35.3083   17.2715    7.6993 H         1 9NE2001     0.0000 
     36 H          32.7117   13.5620   10.8903 H         1 9NE2001     0.0000 
     37 H          34.9149   13.0871   11.8241 H         1 9NE2001     0.0000 
     38 H          36.8824   14.2689   11.0593 H         1 9NE2001     0.0000 
     39 H          37.6213   17.0053   10.9668 H         1 9NE2001     0.0000 
     40 H          38.1917   17.8525    9.7246 H         1 9NE2001     0.0000 
     41 H          36.6463   17.9879   10.1483 H         1 9NE2001     0.0000 
     42 H          39.0657   15.9421    8.6458 H         1 9NE2001     0.0000 
     43 H          38.5839   15.0011    9.8577 H         1 9NE2001     0.0000 
     44 H          38.1687   14.6413    8.3463 H         1 9NE2001     0.0000 
@<TRIPOS>BOND
     1    2    1 1    
     2   11    1 1    
     3   27    1 1    
     4    3    2 1    
     5    5    2 1    
     6   28    2 1    
     7    4    3 ar   
     8   10    3 ar   
     9    6    5 1    
    10   29    5 1    
    11   30    5 1    
    12    7    6 1    
    13   31    6 1    
    14   32    6 1    
    15    8    7 ar   
    16    9    7 ar   
    17   12   11 2    
    18   13   11 2    
    19   14   11 1    
    20   15   14 ar   
    21   19   14 ar   
    22   16   15 ar   
    23   33   15 1    
    24   17   16 ar   
    25   34   16 1    
    26   18   17 ar   
    27   35   17 1    
    28   19   18 ar   
    29   23   18 ar   
    30   20   19 ar   
    31   21   20 ar   
    32   36   20 1    
    33   22   21 ar   
    34   37   21 1    
    35   23   22 ar   
    36   38   22 1    
    37   24   23 1    
    38   25   24 1    
    39   26   24 1    
    40   39   25 1    
    41   40   25 1    
    42   41   25 1    
    43   42   26 1    
    44   43   26 1    
    45   44   26 1    
@<TRIPOS>SUBSTRUCTURE
     1 9NE2001     1 GROUP   
@<TRIPOS>SET

