#    Name: 3llt_ANP_1_INTS_M
#    Modification time : Mon Mar 24 21:48:01 2014

@<TRIPOS>MOLECULE
3llt_ANP_1_INTS_M
   62     0    12     0     0
SMALL
NO_CHARGES


@<TRIPOS>ATOM
      1 N          51.1375  -34.2350    6.4385 N.am      2 SEC2        0.0000 
      2 N          51.2870  -34.3070    5.1120 N.am     10 SEL2        0.0000 
      3 N          50.9880  -34.1630    7.7650 N.am      6 SEP2        0.0000 
      4 N          53.6925  -33.5800    2.1410 N.am      2 SEC2        0.0000 
      5 N          52.5420  -33.5020    3.0800 N.am     10 SEL2        0.0000 
      6 N          54.8430  -33.6580    1.2020 N.am      6 SEP2        0.0000 
      7 N          52.2785  -33.4385    1.7150 N.am      2 SEC2        0.0000 
      8 N          52.0150  -33.3750    0.3500 N.am      6 SEP2        0.0000 
      9 N          54.5010  -31.3090    2.1985 N.am      2 SEC2        0.0000 
     10 N          54.6650  -31.5220    3.6360 N.am     10 SEL2        0.0000 
     11 N          54.3370  -31.0960    0.7610 N.am      6 SEP2        0.0000 
     12 N          55.4680  -30.5385    2.8620 N.am      2 SEC2        0.0000 
     13 N          56.2710  -29.5550    2.0880 N.am      6 SEP2        0.0000 
     14 NZ         54.1360  -29.1445    6.5605 N.4       3 LYC4        0.0000 
     15 NZ         53.8060  -29.7750    5.3410 N.4      11 LYL4        0.0000 
     16 NZ         54.4660  -28.5140    7.7800 N.4       7 LYP4        0.0000 
     17 N          54.1360  -29.1445    6.5605 N.am      2 SEC2        0.0000 
     18 N          53.8060  -29.7750    5.3410 N.am     10 SEL2        0.0000 
     19 N          54.4660  -28.5140    7.7800 N.am      6 SEP2        0.0000 
     20 NZ         54.7270  -29.8010    8.1205 N.4       3 LYC4        0.0000 
     21 NZ         54.9880  -31.0880    8.4610 N.4      11 LYL4        0.0000 
     22 N          54.7270  -29.8010    8.1205 N.am      2 SEC2        0.0000 
     23 N          54.9880  -31.0880    8.4610 N.am     10 SEL2        0.0000 
     24 CA         56.9205  -33.8245    4.7710 C.3       4 GLC5        0.0000 
     25 CA         57.3710  -33.4600    6.6280 C.3      12 GLL5        0.0000 
     26 CA         56.4700  -34.1890    2.9140 C.3       8 GLP5        0.0000 
     27 CA         60.4630  -34.9155    6.6040 C.3       4 GLC5        0.0000 
     28 CA         58.3870  -34.4620    7.1460 C.3      12 GLL5        0.0000 
     29 CA         62.5390  -35.3690    6.0620 C.3       8 GLP5        0.0000 
     30 CA         59.3065  -34.5315    5.1495 C.3       4 GLC5        0.0000 
     31 CA         60.2260  -34.6010    3.1530 C.3       8 GLP5        0.0000 
     32 CA         61.2260  -34.8790    7.5010 C.3       4 GLC5        0.0000 
     33 CA         59.9130  -34.3890    8.9400 C.3      12 GLL5        0.0000 
     34 CA         60.0210  -32.4675    8.2590 C.3       4 GLC5        0.0000 
     35 CA         60.1290  -30.5460    7.5780 C.3       8 GLP5        0.0000 
     36 CA         60.8980  -32.9480   14.8875 C.3       4 GLC5        0.0000 
     37 CA         60.6760  -31.9030   13.2120 C.3      12 GLL5        0.0000 
     38 CA         61.1200  -33.9930   16.5630 C.3       8 GLP5        0.0000 
     39 O          60.9570  -30.2385   14.9600 O.2       1 ALC1        0.0000 
     40 O          60.2030  -30.9530   14.0530 O.2       9 ALL1        0.0000 
     41 O          61.7110  -29.5240   15.8670 O.2       5 ALP1        0.0000 
     42 N          62.5060  -32.6460   14.7950 N.am      2 SEC2        0.0000 
     43 N          61.8290  -32.5610   13.4800 N.am     10 SEL2        0.0000 
     44 N          63.1830  -32.7310   16.1100 N.am      6 SEP2        0.0000 
     45 CA         64.1100  -33.3675   12.6560 C.3       4 GLC5        0.0000 
     46 CA         62.3120  -33.5120   12.6520 C.3      12 GLL5        0.0000 
     47 CA         65.9080  -33.2230   12.6600 C.3       8 GLP5        0.0000 
     48 CA         62.4800  -33.7345   14.6750 C.3       4 GLC5        0.0000 
     49 CA         62.6480  -33.9570   16.6980 C.3       8 GLP5        0.0000 
     50 CA         60.5895  -34.3685   13.2210 C.3       4 GLC5        0.0000 
     51 CA         58.8670  -35.2250   13.7900 C.3       8 GLP5        0.0000 
     52 CA         59.0040  -32.2535    7.2325 C.3       4 GLC5        0.0000 
     53 CA         57.0332  -35.0003    9.9930 C.3       4 GLC5        0.0000 
     54 CA         57.8380  -35.3590    8.2440 C.3      12 GLL5        0.0000 
     55 CA         55.6250  -34.5080   11.3030 C.3       8 GLP5        0.0000 
     56 CA         61.1825  -31.5987   10.3078 C.3       4 GLC5        0.0000 
     57 CA         60.5390  -33.3010   11.1130 C.3      12 GLL5        0.0000 
     58 CA         62.1210  -30.4190    9.0760 C.3       8 GLP5        0.0000 
     59 CA         61.6442  -30.5602   12.5455 C.3       4 GLC5        0.0000 
     60 CA         59.9490  -32.2560   11.9660 C.3      12 GLL5        0.0000 
     61 CA         62.9760  -29.0410   12.5020 C.3       8 GLP5        0.0000 
     62 CA         59.6464  -33.9576   12.8205 C.3       4 GLC5        0.0000 
@<TRIPOS>BOND
@<TRIPOS>SUBSTRUCTURE
     1 ALC1       39 GROUP        1 X    ALC  0     ROOT ALC X 1
     2 SEC2        1 GROUP        1 X    SEC  0     **** SEC X 2
     3 LYC4       14 GROUP        1 X    LYC  0     **** LYC X 4
     4 GLC5       24 GROUP        1 X    GLC  0     **** GLC X 6
     5 ALP1       41 GROUP        1 Y    ALP  0     ROOT ALP Y 8
     6 SEP2        3 GROUP        1 Y    SEP  0     **** SEP Y 9
     7 LYP4       16 GROUP        1 Y    LYP  0     **** LYP Y 11
     8 GLP5       26 GROUP        1 Y    GLP  0     **** GLP Y 13
     9 ALL1       40 GROUP        1 Z    ALL  0     ROOT ALL Z 15
    10 SEL2        2 GROUP        1 Z    SEL  0     **** SEL Z 16
    11 LYL4       15 GROUP        1 Z    LYL  0     **** LYL Z 18
    12 GLL5       25 GROUP        1 Z    GLL  0     **** GLL Z 20
@<TRIPOS>SET

