#    Name: 3llt_ANP_1_ligand
#    Modification time : Mon Mar 24 21:48:01 2014

@<TRIPOS>MOLECULE
3llt_ANP_1_ligand
   43    45     1     0     0
SMALL
NO_CHARGES


@<TRIPOS>ATOM
      1 PG         52.5840  -33.7640    4.5670 P.3       1 ANP877      0.0000 
      2 O1G        51.2870  -34.3070    5.1120 O.co2     1 ANP877      0.0000 
      3 O2G        52.5420  -33.5020    3.0800 O.co2     1 ANP877      0.0000 
      4 O3G        53.8080  -34.5320    5.0050 O.co2     1 ANP877      0.0000 
      5 PB         54.1650  -31.2060    5.0240 P.3       1 ANP877      0.0000 
      6 O1B        54.6650  -31.5220    3.6360 O.co2     1 ANP877      0.0000 
      7 O2B        53.8060  -29.7750    5.3410 O.co2     1 ANP877      0.0000 
      8 N3B        52.7530  -32.1940    5.3280 N.4       1 ANP877      0.0000 
      9 PA         55.2500  -32.2150    7.4880 P.3       1 ANP877      0.0000 
     10 O1A        54.9880  -31.0880    8.4610 O.co2     1 ANP877      0.0000 
     11 O2A        54.3520  -33.4280    7.4700 O.co2     1 ANP877      0.0000 
     12 O3A        55.3850  -31.6090    5.9980 O.3       1 ANP877      0.0000 
     13 O5'        56.7460  -32.7610    7.7030 O.3       1 ANP877      0.0000 
     14 C5'        57.3710  -33.4600    6.6280 C.3       1 ANP877      0.0000 
     15 C4'        58.3870  -34.4620    7.1460 C.3       1 ANP877      0.0000 
     16 O4'        59.5000  -33.7710    7.7170 O.3       1 ANP877      0.0000 
     17 C3'        57.8380  -35.3590    8.2440 C.3       1 ANP877      0.0000 
     18 O3'        57.2600  -36.5560    7.7130 O.3       1 ANP877      0.0000 
     19 C2'        59.0450  -35.6260    9.1220 C.3       1 ANP877      0.0000 
     20 O2'        59.7580  -36.7710    8.6480 O.3       1 ANP877      0.0000 
     21 C1'        59.9130  -34.3890    8.9400 C.3       1 ANP877      0.0000 
     22 N9         59.7190  -33.4430   10.0700 N.pl3     1 ANP877      0.0000 
     23 C8         58.6950  -32.5780   10.2170 C.2       1 ANP877      0.0000 
     24 N7         58.8200  -31.8550   11.3570 N.2       1 ANP877      0.0000 
     25 C5         59.9490  -32.2560   11.9660 C.ar      1 ANP877      0.0000 
     26 C6         60.6760  -31.9030   13.2120 C.ar      1 ANP877      0.0000 
     27 N6         60.2030  -30.9530   14.0530 N.pl3     1 ANP877      0.0000 
     28 N1         61.8290  -32.5610   13.4800 N.ar      1 ANP877      0.0000 
     29 C2         62.3120  -33.5120   12.6520 C.ar      1 ANP877      0.0000 
     30 N3         61.7050  -33.8800   11.5050 N.ar      1 ANP877      0.0000 
     31 C4         60.5390  -33.3010   11.1130 C.ar      1 ANP877      0.0000 
     32 H          57.8953  -32.7689    5.9471 H         1 ANP877      0.0000 
     33 H          56.6333  -34.0106    6.0207 H         1 ANP877      0.0000 
     34 H          58.7162  -35.0886    6.3315 H         1 ANP877      0.0000 
     35 H          57.1393  -34.7741    8.8163 H         1 ANP877      0.0000 
     36 H          58.7451  -35.6903   10.1218 H         1 ANP877      0.0000 
     37 H          60.9344  -34.6995    8.8875 H         1 ANP877      0.0000 
     38 H          57.9511  -32.4811    9.5811 H         1 ANP877      0.0000 
     39 H          60.7573  -30.7683   14.8645 H         1 ANP877      0.0000 
     40 H          59.3413  -30.5203   13.7880 H         1 ANP877      0.0000 
     41 H          63.2225  -33.9980   12.9198 H         1 ANP877      0.0000 
     42 H          56.6306  -36.2455    7.0006 H         1 ANP877      0.0000 
     43 H          59.0764  -37.3168    8.1606 H         1 ANP877      0.0000 
@<TRIPOS>BOND
     1    2    1 ar   
     2    3    1 ar   
     3    4    1 ar   
     4    8    1 1    
     5    6    5 ar   
     6    7    5 ar   
     7    8    5 1    
     8   12    5 1    
     9   10    9 ar   
    10   11    9 ar   
    11   12    9 1    
    12   13    9 1    
    13   14   13 1    
    14   15   14 1    
    15   32   14 1    
    16   33   14 1    
    17   16   15 1    
    18   17   15 1    
    19   34   15 1    
    20   21   16 1    
    21   18   17 1    
    22   19   17 1    
    23   35   17 1    
    24   42   18 1    
    25   20   19 1    
    26   21   19 1    
    27   36   19 1    
    28   43   20 1    
    29   22   21 1    
    30   37   21 1    
    31   23   22 1    
    32   31   22 1    
    33   24   23 2    
    34   38   23 1    
    35   25   24 1    
    36   26   25 ar   
    37   31   25 ar   
    38   27   26 1    
    39   28   26 ar   
    40   39   27 1    
    41   40   27 1    
    42   29   28 ar   
    43   30   29 ar   
    44   41   29 1    
    45   31   30 ar   
@<TRIPOS>SUBSTRUCTURE
     1 ANP877      1 GROUP   
@<TRIPOS>SET

