#    Name: 3n10_CMP_1_INTS_M
#    Modification time : Tue Mar 25 00:30:53 2014

@<TRIPOS>MOLECULE
3n10_CMP_1_INTS_M
   46     0    12     0     0
SMALL
NO_CHARGES


@<TRIPOS>ATOM
      1 NZ         -2.7420    4.7670   13.5860 N.4       2 LYC4        0.0000 
      2 NZ         -3.8950    3.5900   13.2080 N.4      10 LYL4        0.0000 
      3 NZ         -2.3180    6.0740   15.0640 N.4       6 LYP4        0.0000 
      4 NZ         -4.6500    4.8390   13.0035 N.4       2 LYC4        0.0000 
      5 NZ         -5.9200    6.6590   11.7090 N.4       6 LYP4        0.0000 
      6 N          -3.6050    4.4010   14.2620 N.am      1 SEC2        0.0000 
      7 N          -3.8950    3.5900   13.2080 N.am      9 SEL2        0.0000 
      8 N          -3.3150    5.2120   15.3160 N.am      5 SEP2        0.0000 
      9 N          -2.7420    4.7670   13.5860 N.am      1 SEC2        0.0000 
     10 N          -1.5890    5.9440   13.9640 N.am      5 SEP2        0.0000 
     11 N          -4.6500    4.8390   13.0035 N.am      1 SEC2        0.0000 
     12 N          -5.4050    6.0880   12.7990 N.am      5 SEP2        0.0000 
     13 NZ         -2.1085    1.7005   10.9370 N.4       2 LYC4        0.0000 
     14 NZ         -3.4940    1.7970   11.5510 N.4      10 LYL4        0.0000 
     15 NZ         -0.7230    1.6040   10.3230 N.4       6 LYP4        0.0000 
     16 Zn         -4.2000    1.4970   10.6610 Zn        3 ZIC7        0.0000 
     17 Zn         -3.4940    1.7970   11.5510 Zn       11 ZIL7        0.0000 
     18 Zn         -4.9060    1.1970    9.7710 Zn        7 ZIP7        0.0000 
     19 N          -2.1085    1.7005   10.9370 N.am      1 SEC2        0.0000 
     20 N          -3.4940    1.7970   11.5510 N.am      9 SEL2        0.0000 
     21 N          -0.7230    1.6040   10.3230 N.am      5 SEP2        0.0000 
     22 CA         -1.5055    2.6405   16.1795 C.3       4 GLC5        0.0000 
     23 CA         -2.5500    1.4980   15.3280 C.3      12 GLL5        0.0000 
     24 CA         -0.4610    3.7830   17.0310 C.3       8 GLP5        0.0000 
     25 Zn         -6.1350    0.9035   13.4030 Zn        3 ZIC7        0.0000 
     26 Zn         -4.9810    1.2880   13.5960 Zn       11 ZIL7        0.0000 
     27 Zn         -7.2890    0.5190   13.2100 Zn        7 ZIP7        0.0000 
     28 Zn         -6.8290   -0.1285   14.0625 Zn        3 ZIC7        0.0000 
     29 Zn         -6.3690   -0.7760   14.9150 Zn       11 ZIL7        0.0000 
     30 CA         -3.6055   -0.0490   18.2945 C.3       4 GLC5        0.0000 
     31 CA         -5.4390    0.0390   17.0170 C.3      12 GLL5        0.0000 
     32 CA         -1.7720   -0.1370   19.5720 C.3       8 GLP5        0.0000 
     33 CA         -6.4875    4.9725   20.0160 C.3       4 GLC5        0.0000 
     34 CA         -7.8640    3.3020   19.9680 C.3      12 GLL5        0.0000 
     35 CA         -5.1110    6.6430   20.0640 C.3       8 GLP5        0.0000 
     36 CA         -8.9990    4.5990   16.6340 C.3       4 GLC5        0.0000 
     37 CA         -7.8110    3.8890   17.6750 C.3      12 GLL5        0.0000 
     38 CA        -10.1870    5.3090   15.5930 C.3       8 GLP5        0.0000 
     39 CA         -2.2692   -0.3453   14.6635 C.3       4 GLC5        0.0000 
     40 CA         -3.7570    0.6150   15.5580 C.3      12 GLL5        0.0000 
     41 CA         -1.3850   -1.7470   13.8840 C.3       8 GLP5        0.0000 
     42 CA         -7.5115   -0.3180   16.5760 C.3       4 GLC5        0.0000 
     43 CA         -9.2510   -0.8610   16.8030 C.3       8 GLP5        0.0000 
     44 CA         -5.4377    3.0648   19.3719 C.3       4 GLC5        0.0000 
     45 CA         -7.0860    2.0840   19.6430 C.3      12 GLL5        0.0000 
     46 CA         -3.7780    3.8490   19.7270 C.3       8 GLP5        0.0000 
@<TRIPOS>BOND
@<TRIPOS>SUBSTRUCTURE
     1 SEC2        6 GROUP        1 X    SEC  0     ROOT SEC X 2
     2 LYC4        1 GROUP        1 X    LYC  0     **** LYC X 4
     3 ZIC7       16 GROUP        1 X    ZIC  0     **** ZIC X 5
     4 GLC5       22 GROUP        1 X    GLC  0     **** GLC X 6
     5 SEP2        8 GROUP        1 Y    SEP  0     ROOT SEP Y 9
     6 LYP4        3 GROUP        1 Y    LYP  0     **** LYP Y 11
     7 ZIP7       18 GROUP        1 Y    ZIP  0     **** ZIP Y 12
     8 GLP5       24 GROUP        1 Y    GLP  0     **** GLP Y 13
     9 SEL2        7 GROUP        1 Z    SEL  0     ROOT SEL Z 16
    10 LYL4        2 GROUP        1 Z    LYL  0     **** LYL Z 18
    11 ZIL7       17 GROUP        1 Z    ZIL  0     **** ZIL Z 19
    12 GLL5       23 GROUP        1 Z    GLL  0     **** GLL Z 20
@<TRIPOS>SET

