#    Name: 3n10_CMP_1_ligand
#    Modification time : Tue Mar 25 00:30:53 2014

@<TRIPOS>MOLECULE
3n10_CMP_1_ligand
   32    35     1     0     0
SMALL
NO_CHARGES


@<TRIPOS>ATOM
      1 P          -3.6910    2.1140   13.0180 P.3       1 CMP181      0.0000 
      2 O1P        -3.8950    3.5900   13.2080 O.co2     1 CMP181      0.0000 
      3 O2P        -3.4940    1.7970   11.5510 O.co2     1 CMP181      0.0000 
      4 O5'        -2.4240    1.6400   13.9140 O.3       1 CMP181      0.0000 
      5 C5'        -2.5500    1.4980   15.3280 C.3       1 CMP181      0.0000 
      6 C4'        -3.7570    0.6150   15.5580 C.3       1 CMP181      0.0000 
      7 O4'        -4.0470    0.3840   16.9290 O.3       1 CMP181      0.0000 
      8 C3'        -5.0320    1.2610   15.0220 C.3       1 CMP181      0.0000 
      9 O3'        -4.9810    1.2880   13.5960 O.3       1 CMP181      0.0000 
     10 C2'        -6.1050    0.4110   15.6810 C.3       1 CMP181      0.0000 
     11 O2'        -6.3690   -0.7760   14.9150 O.3       1 CMP181      0.0000 
     12 C1'        -5.4390    0.0390   17.0170 C.3       1 CMP181      0.0000 
     13 N9         -6.0370    0.7180   18.2020 N.pl3     1 CMP181      0.0000 
     14 C8         -5.9680    0.2290   19.4520 C.2       1 CMP181      0.0000 
     15 N7         -6.5970    1.0400   20.3350 N.2       1 CMP181      0.0000 
     16 C5         -7.0860    2.0840   19.6430 C.ar      1 CMP181      0.0000 
     17 C6         -7.8640    3.3020   19.9680 C.ar      1 CMP181      0.0000 
     18 N6         -8.2340    3.5530   21.2500 N.pl3     1 CMP181      0.0000 
     19 N1         -8.1760    4.1490   18.9510 N.ar      1 CMP181      0.0000 
     20 C2         -7.8110    3.8890   17.6750 C.ar      1 CMP181      0.0000 
     21 N3         -7.1120    2.7920   17.3000 N.ar      1 CMP181      0.0000 
     22 C4         -6.7200    1.8680   18.2280 C.ar      1 CMP181      0.0000 
     23 H          -2.7236    2.4493   15.8168 H         1 CMP181      0.0000 
     24 H          -1.6842    1.0151   15.7654 H         1 CMP181      0.0000 
     25 H          -3.6344   -0.3198   15.0300 H         1 CMP181      0.0000 
     26 H          -5.0676    2.2461   15.4675 H         1 CMP181      0.0000 
     27 H          -6.9423    1.0009   15.8803 H         1 CMP181      0.0000 
     28 H          -5.5336   -1.0415   17.1380 H         1 CMP181      0.0000 
     29 H          -5.5184   -0.6117   19.6997 H         1 CMP181      0.0000 
     30 H          -7.9397    2.8835   21.9320 H         1 CMP181      0.0000 
     31 H          -8.7681    4.3852   21.3989 H         1 CMP181      0.0000 
     32 H          -8.0899    4.5889   16.9194 H         1 CMP181      0.0000 
@<TRIPOS>BOND
     1    2    1 ar   
     2    3    1 ar   
     3    4    1 1    
     4    9    1 1    
     5    5    4 1    
     6    6    5 1    
     7   23    5 1    
     8   24    5 1    
     9    7    6 1    
    10    8    6 1    
    11   25    6 1    
    12   12    7 1    
    13    9    8 1    
    14   10    8 1    
    15   26    8 1    
    16   11   10 1    
    17   12   10 1    
    18   27   10 1    
    19   13   12 1    
    20   28   12 1    
    21   14   13 1    
    22   22   13 1    
    23   15   14 2    
    24   29   14 1    
    25   16   15 1    
    26   17   16 ar   
    27   22   16 ar   
    28   18   17 1    
    29   19   17 ar   
    30   30   18 1    
    31   31   18 1    
    32   20   19 ar   
    33   21   20 ar   
    34   32   20 1    
    35   22   21 ar   
@<TRIPOS>SUBSTRUCTURE
     1 CMP181      1 GROUP   
@<TRIPOS>SET

