#    Name: 3l3n_LSW_1_INTS_M
#    Modification time : Mon Mar 24 20:56:55 2014

@<TRIPOS>MOLECULE
3l3n_LSW_1_INTS_M
   82     0    18     0     0
SMALL
NO_CHARGES


@<TRIPOS>ATOM
      1 Zn         41.8575    4.6130  113.7330 Zn        5 ZIC7        0.0000 
      2 Zn         42.9030    4.9570  113.8580 Zn       17 ZIL7        0.0000 
      3 Zn         40.8120    4.2690  113.6080 Zn       11 ZIP7        0.0000 
      4 N          43.9790    4.9330  113.2385 N.am      2 SEC2        0.0000 
      5 N          42.9030    4.9570  113.8580 N.am     14 SEL2        0.0000 
      6 N          45.0550    4.9090  112.6190 N.am      8 SEP2        0.0000 
      7 CA         44.2940    5.8385  112.8370 C.3       6 GLC5        0.0000 
      8 CA         43.5650    7.2100  114.3560 C.3      18 GLL5        0.0000 
      9 CA         45.0230    4.4670  111.3180 C.3      12 GLP5        0.0000 
     10 CA         43.3750    7.8680  117.6690 C.3       6 GLC5        0.0000 
     11 CA         44.2160    7.2890  115.7400 C.3      18 GLL5        0.0000 
     12 CA         42.5340    8.4470  119.5980 C.3      12 GLP5        0.0000 
     13 OD1        42.1320   15.8910  112.2030 O.co2     3 ASC3        0.0000 
     14 OD1        40.8670   14.5300  111.8140 O.co2    15 ASL3        0.0000 
     15 OD1        43.3970   17.2520  112.5920 O.co2     9 ASP3        0.0000 
     16 OD1        39.1070   15.2260  111.7195 O.co2     3 ASC3        0.0000 
     17 OD1        37.3470   15.9220  111.6250 O.co2     9 ASP3        0.0000 
     18 NZ         46.8510   10.1550  108.5510 N.4       4 LYC4        0.0000 
     19 NZ         45.8610    9.1690  108.7270 N.4      16 LYL4        0.0000 
     20 NZ         47.8410   11.1410  108.3750 N.4      10 LYP4        0.0000 
     21 N          45.5420    9.8300  107.4050 N.am      2 SEC2        0.0000 
     22 N          45.8610    9.1690  108.7270 N.am     14 SEL2        0.0000 
     23 N          45.2230   10.4910  106.0830 N.am      8 SEP2        0.0000 
     24 N          46.8510   10.1550  108.5510 N.am      2 SEC2        0.0000 
     25 N          47.8410   11.1410  108.3750 N.am      8 SEP2        0.0000 
     26 N          46.3985    8.2870  107.8540 N.am      2 SEC2        0.0000 
     27 N          46.9360    7.4050  106.9810 N.am      8 SEP2        0.0000 
     28 N          44.8435    9.4190  112.7925 N.am      2 SEC2        0.0000 
     29 N          44.5260    8.4060  111.9170 N.am     14 SEL2        0.0000 
     30 N          45.1610   10.4320  113.6680 N.am      8 SEP2        0.0000 
     31 CA         39.7420   12.7930  110.8660 C.3       6 GLC5        0.0000 
     32 CA         41.7330   13.3610  111.4520 C.3      18 GLL5        0.0000 
     33 CA         37.7510   12.2250  110.2800 C.3      12 GLP5        0.0000 
     34 CA         43.5890   10.8520  113.6300 C.3       6 GLC5        0.0000 
     35 CA         42.0970   10.9440  112.2600 C.3      18 GLL5        0.0000 
     36 CA         45.0810   10.7600  115.0000 C.3      12 GLP5        0.0000 
     37 CA         46.7520    4.9645  115.5590 C.3       6 GLC5        0.0000 
     38 CA         45.0710    6.0470  116.0060 C.3      18 GLL5        0.0000 
     39 CA         48.4330    3.8820  115.1120 C.3      12 GLP5        0.0000 
     40 CA         43.9185    6.6865  106.4215 C.3       6 GLC5        0.0000 
     41 CA         43.2740    7.5260  107.9500 C.3      18 GLL5        0.0000 
     42 CA         44.5630    5.8470  104.8930 C.3      12 GLP5        0.0000 
     43 CA         43.5175    5.7140  108.6575 C.3       6 GLC5        0.0000 
     44 CA         43.7610    3.9020  109.3650 C.3      12 GLP5        0.0000 
     45 CA         43.6755    9.5645  113.8590 C.3       6 GLC5        0.0000 
     46 CA         42.2700    8.3690  112.7180 C.3      18 GLL5        0.0000 
     47 CA         43.8625    6.0935  109.9940 C.3       6 GLC5        0.0000 
     48 CA         43.9240    7.8590  109.3020 C.3      18 GLL5        0.0000 
     49 CA         43.8010    4.3280  110.6860 C.3      12 GLP5        0.0000 
     50 Zn         41.1105    5.2575  114.2040 Zn        5 ZIC7        0.0000 
     51 Zn         41.4090    6.2460  114.8000 Zn       17 ZIL7        0.0000 
     52 N          40.4340    7.2290  115.0345 N.am      2 SEC2        0.0000 
     53 N          41.4090    6.2460  114.8000 N.am     14 SEL2        0.0000 
     54 N          39.4590    8.2120  115.2690 N.am      8 SEP2        0.0000 
     55 O          38.6750    5.1740  107.4550 O.2       1 ALC1        0.0000 
     56 O          39.8520    6.1160  107.9510 O.2      13 ALL1        0.0000 
     57 O          37.4980    4.2320  106.9590 O.2       7 ALP1        0.0000 
     58 CA         44.4857    9.0047  115.0240 C.3       6 GLC5        0.0000 
     59 CA         48.1392    5.4000  118.2015 C.3       6 GLC5        0.0000 
     60 CA         46.9100    6.0110  119.9110 C.3      18 GLL5        0.0000 
     61 CA         49.5320    5.3870  116.8070 C.3      12 GLP5        0.0000 
     62 CA         44.4257    7.8385  119.1318 C.3       6 GLC5        0.0000 
     63 CA         46.6230    7.2220  119.2900 C.3      18 GLL5        0.0000 
     64 CA         47.9248    6.3085  117.7363 C.3       6 GLC5        0.0000 
     65 CA         46.0120    7.2380  118.0410 C.3      18 GLL5        0.0000 
     66 CA         36.3217    9.1062  107.5480 C.3       6 GLC5        0.0000 
     67 CA         38.2970    8.0780  108.0950 C.3      18 GLL5        0.0000 
     68 CA         34.3550    9.4490  106.9580 C.3      12 GLP5        0.0000 
     69 CA         38.3137   11.0250  109.2392 C.3       6 GLC5        0.0000 
     70 CA         38.2800    9.4490  108.1810 C.3      18 GLL5        0.0000 
     71 CA         47.6802    5.4125  117.2640 C.3       6 GLC5        0.0000 
     72 CA         45.6860    6.0430  117.4090 C.3      18 GLL5        0.0000 
     73 CA         38.2650    6.9852  109.8755 C.3       6 GLC5        0.0000 
     74 CA         39.5430    7.4490  108.0390 C.3      18 GLL5        0.0000 
     75 CA         37.6100    6.2070  111.6840 C.3      12 GLP5        0.0000 
     76 CA         40.7774   11.0858  113.9715 C.3       6 GLC5        0.0000 
     77 CA         40.0750   11.6330  115.6940 C.3      12 GLP5        0.0000 
     78 CA         39.6479   11.0177  112.4635 C.3       6 GLC5        0.0000 
     79 CA         41.3730    9.5920  112.4460 C.3      18 GLL5        0.0000 
     80 CA         37.8160   11.4970  112.6780 C.3      12 GLP5        0.0000 
     81 CA         40.1898    7.5943  112.6165 C.3       6 GLC5        0.0000 
     82 CA         38.5580    6.2080  112.6510 C.3      12 GLP5        0.0000 
@<TRIPOS>BOND
@<TRIPOS>SUBSTRUCTURE
     1 ALC1       55 GROUP        1 X    ALC  0     ROOT ALC X 1
     2 SEC2        4 GROUP        1 X    SEC  0     **** SEC X 2
     3 ASC3       13 GROUP        1 X    ASC  0     **** ASC X 3
     4 LYC4       18 GROUP        1 X    LYC  0     **** LYC X 4
     5 ZIC7        1 GROUP        1 X    ZIC  0     **** ZIC X 5
     6 GLC5        7 GROUP        1 X    GLC  0     **** GLC X 6
     7 ALP1       57 GROUP        1 Y    ALP  0     ROOT ALP Y 8
     8 SEP2        6 GROUP        1 Y    SEP  0     **** SEP Y 9
     9 ASP3       15 GROUP        1 Y    ASP  0     **** ASP Y 10
    10 LYP4       20 GROUP        1 Y    LYP  0     **** LYP Y 11
    11 ZIP7        3 GROUP        1 Y    ZIP  0     **** ZIP Y 12
    12 GLP5        9 GROUP        1 Y    GLP  0     **** GLP Y 13
    13 ALL1       56 GROUP        1 Z    ALL  0     ROOT ALL Z 15
    14 SEL2        5 GROUP        1 Z    SEL  0     **** SEL Z 16
    15 ASL3       14 GROUP        1 Z    ASL  0     **** ASL Z 17
    16 LYL4       19 GROUP        1 Z    LYL  0     **** LYL Z 18
    17 ZIL7        2 GROUP        1 Z    ZIL  0     **** ZIL Z 19
    18 GLL5        8 GROUP        1 Z    GLL  0     **** GLL Z 20
@<TRIPOS>SET

