#    Name: 3l3n_LSW_1_ligand
#    Modification time : Mon Mar 24 20:56:55 2014

@<TRIPOS>MOLECULE
3l3n_LSW_1_ligand
   68    70     1     0     0
SMALL
NO_CHARGES


@<TRIPOS>ATOM
      1 C          42.5540    6.0590  114.3340 C.2       1 LSW1        0.0000 
      2 N          42.8870    8.4750  114.0390 N.4       1 LSW1        0.0000 
      3 O          42.9030    4.9570  113.8580 O.co2     1 LSW1        0.0000 
      4 CA         43.5650    7.2100  114.3560 C.3       1 LSW1        0.0000 
      5 CB         44.2160    7.2890  115.7400 C.3       1 LSW1        0.0000 
      6 NAA        40.8670   14.5300  111.8140 N.4       1 LSW1        0.0000 
      7 OAC        45.8610    9.1690  108.7270 O.co2     1 LSW1        0.0000 
      8 OAD        44.5260    8.4060  111.9170 O.2       1 LSW1        0.0000 
      9 OAF        44.0720   10.2380  109.4530 O.co2     1 LSW1        0.0000 
     10 CAG        46.9100    6.0110  119.9110 C.ar      1 LSW1        0.0000 
     11 CAH        46.5830    4.8150  119.2810 C.ar      1 LSW1        0.0000 
     12 CAI        46.6230    7.2220  119.2900 C.ar      1 LSW1        0.0000 
     13 CAJ        38.2800    9.4490  108.1810 C.ar      1 LSW1        0.0000 
     14 CAK        39.4730   10.2010  108.2160 C.ar      1 LSW1        0.0000 
     15 CAL        45.9710    4.8330  118.0330 C.ar      1 LSW1        0.0000 
     16 CAM        46.0120    7.2380  118.0410 C.ar      1 LSW1        0.0000 
     17 CAN        38.2970    8.0780  108.0950 C.ar      1 LSW1        0.0000 
     18 CAO        40.7160    9.5720  108.1620 C.ar      1 LSW1        0.0000 
     19 CAP        41.2410    5.9800  107.9210 C.2       1 LSW1        0.0000 
     20 CAQ        41.7330   13.3610  111.4520 C.3       1 LSW1        0.0000 
     21 CAR        41.0760   12.0260  111.8440 C.3       1 LSW1        0.0000 
     22 CAS        42.0970   10.9440  112.2600 C.3       1 LSW1        0.0000 
     23 CAT        45.0710    6.0470  116.0060 C.3       1 LSW1        0.0000 
     24 CAU        41.3730    9.5920  112.4460 C.3       1 LSW1        0.0000 
     25 CAW        43.2740    7.5260  107.9500 C.3       1 LSW1        0.0000 
     26 NAX        42.9390    7.9530  110.3880 N.am      1 LSW1        0.0000 
     27 CBB        44.6800    9.1860  109.1570 C.2       1 LSW1        0.0000 
     28 CBC        43.3390    8.2480  111.6290 C.2       1 LSW1        0.0000 
     29 CBD        45.6860    6.0430  117.4090 C.ar      1 LSW1        0.0000 
     30 CBE        41.8260    7.2200  107.9880 C.2       1 LSW1        0.0000 
     31 CBF        39.5430    7.4490  108.0390 C.ar      1 LSW1        0.0000 
     32 CBG        40.7600    8.1730  108.0690 C.ar      1 LSW1        0.0000 
     33 CBI        42.2700    8.3690  112.7180 C.3       1 LSW1        0.0000 
     34 CBJ        43.9240    7.8590  109.3020 C.3       1 LSW1        0.0000 
     35 OXT        41.4090    6.2460  114.8000 O.co2     1 LSW1        0.0000 
     36 NXZ        39.8520    6.1160  107.9510 N.pl3     1 LSW1        0.0000 
     37 H          44.3314    7.0004  113.6308 H         1 LSW1        0.0000 
     38 H          43.4396    7.3589  116.4978 H         1 LSW1        0.0000 
     39 H          44.8446    8.1746  115.7903 H         1 LSW1        0.0000 
     40 H          47.3626    6.0001  120.8331 H         1 LSW1        0.0000 
     41 H          46.7938    3.9187  119.7380 H         1 LSW1        0.0000 
     42 H          46.8633    8.1076  119.7558 H         1 LSW1        0.0000 
     43 H          37.3758    9.9585  108.2220 H         1 LSW1        0.0000 
     44 H          39.4174   11.2276  108.2824 H         1 LSW1        0.0000 
     45 H          45.7273    3.9466  117.5680 H         1 LSW1        0.0000 
     46 H          45.8008    8.1352  117.5838 H         1 LSW1        0.0000 
     47 H          37.4430    7.5331  108.0723 H         1 LSW1        0.0000 
     48 H          41.5762   10.1132  108.1892 H         1 LSW1        0.0000 
     49 H          41.7039    5.1414  107.8623 H         1 LSW1        0.0000 
     50 H          42.6972   13.4361  111.9637 H         1 LSW1        0.0000 
     51 H          41.9193   13.3521  110.3738 H         1 LSW1        0.0000 
     52 H          40.4919   11.6524  110.9951 H         1 LSW1        0.0000 
     53 H          40.3855   12.1987  112.6775 H         1 LSW1        0.0000 
     54 H          42.5596   11.2310  113.1926 H         1 LSW1        0.0000 
     55 H          42.8444   10.8439  111.4870 H         1 LSW1        0.0000 
     56 H          45.8754    6.0006  115.2632 H         1 LSW1        0.0000 
     57 H          44.4496    5.1524  115.8858 H         1 LSW1        0.0000 
     58 H          40.7659    9.3911  111.5391 H         1 LSW1        0.0000 
     59 H          40.6495    9.6931  113.2813 H         1 LSW1        0.0000 
     60 H          43.4630    8.3835  107.2625 H         1 LSW1        0.0000 
     61 H          43.8320    6.6677  107.5077 H         1 LSW1        0.0000 
     62 H          41.9600    7.7823  110.1342 H         1 LSW1        0.0000 
     63 H          41.6408    7.4846  112.6686 H         1 LSW1        0.0000 
     64 H          44.6570    7.0903  109.5175 H         1 LSW1        0.0000 
     65 H          39.2318    5.3917  107.9154 H         1 LSW1        0.0000 
     66 H          40.6828   14.5657  112.7962 H         1 LSW1        0.0000 
     67 H          41.2932   15.3994  111.5640 H         1 LSW1        0.0000 
     68 H          39.9815   14.4937  111.3508 H         1 LSW1        0.0000 
@<TRIPOS>BOND
     1    3    1 ar   
     2    4    1 1    
     3   35    1 ar   
     4    4    2 1    
     5   33    2 1    
     6    5    4 1    
     7   37    4 1    
     8   23    5 1    
     9   38    5 1    
    10   39    5 1    
    11   20    6 1    
    12   66    6 1    
    13   67    6 1    
    14   68    6 1    
    15   27    7 ar   
    16   28    8 2    
    17   27    9 ar   
    18   11   10 ar   
    19   12   10 ar   
    20   40   10 1    
    21   15   11 ar   
    22   41   11 1    
    23   16   12 ar   
    24   42   12 1    
    25   14   13 ar   
    26   17   13 ar   
    27   43   13 1    
    28   18   14 ar   
    29   44   14 1    
    30   29   15 ar   
    31   45   15 1    
    32   29   16 ar   
    33   46   16 1    
    34   31   17 ar   
    35   47   17 1    
    36   32   18 ar   
    37   48   18 1    
    38   30   19 2    
    39   36   19 1    
    40   49   19 1    
    41   21   20 1    
    42   50   20 1    
    43   51   20 1    
    44   22   21 1    
    45   52   21 1    
    46   53   21 1    
    47   24   22 1    
    48   54   22 1    
    49   55   22 1    
    50   29   23 1    
    51   56   23 1    
    52   57   23 1    
    53   33   24 1    
    54   58   24 1    
    55   59   24 1    
    56   30   25 1    
    57   34   25 1    
    58   60   25 1    
    59   61   25 1    
    60   28   26 am   
    61   34   26 1    
    62   62   26 1    
    63   34   27 1    
    64   33   28 1    
    65   32   30 1    
    66   32   31 ar   
    67   36   31 1    
    68   63   33 1    
    69   64   34 1    
    70   65   36 1    
@<TRIPOS>SUBSTRUCTURE
     1 LSW1        1 GROUP   
@<TRIPOS>SET

