#    Name: 3cj2_SX3_1_INTS_M
#    Modification time : Mon Mar 24 21:40:48 2014

@<TRIPOS>MOLECULE
3cj2_SX3_1_INTS_M
   47     0     6     0     0
SMALL
NO_CHARGES


@<TRIPOS>ATOM
      1 CA        -17.7930    9.9475  -13.6920 C.3       2 GLC5        0.0000 
      2 CA        -19.2830    9.2300  -14.4060 C.3       6 GLL5        0.0000 
      3 CA        -16.3030   10.6650  -12.9780 C.3       4 GLP5        0.0000 
      4 CA        -20.1310    7.7390  -13.1310 C.3       2 GLC5        0.0000 
      5 CA        -20.9790    6.2480  -11.8560 C.3       4 GLP5        0.0000 
      6 CA        -18.8720   10.1160  -16.0710 C.3       2 GLC5        0.0000 
      7 CA        -18.4610   11.0020  -17.7360 C.3       4 GLP5        0.0000 
      8 CA        -22.2420    9.5825  -13.6410 C.3       2 GLC5        0.0000 
      9 CA        -21.8210    9.5080  -15.6250 C.3       6 GLL5        0.0000 
     10 CA        -22.6630    9.6570  -11.6570 C.3       4 GLP5        0.0000 
     11 CA        -21.4365    5.1895  -15.1280 C.3       2 GLC5        0.0000 
     12 CA        -20.9370    7.2320  -15.6400 C.3       6 GLL5        0.0000 
     13 CA        -21.9360    3.1470  -14.6160 C.3       4 GLP5        0.0000 
     14 CA        -22.1980    4.8500  -16.1975 C.3       2 GLC5        0.0000 
     15 CA        -22.1080    6.8040  -16.2950 C.3       6 GLL5        0.0000 
     16 CA        -22.2880    2.8960  -16.1000 C.3       4 GLP5        0.0000 
     17 N         -23.9175   11.3120  -18.6760 N.am      1 SEC2        0.0000 
     18 N         -23.5970   10.9450  -17.4540 N.am      5 SEL2        0.0000 
     19 N         -24.2380   11.6790  -19.8980 N.am      3 SEP2        0.0000 
     20 N         -23.2780   10.3815  -18.8610 N.am      1 SEC2        0.0000 
     21 N         -22.9590    9.8180  -20.2680 N.am      3 SEP2        0.0000 
     22 CA        -27.2040    7.9855  -11.3305 C.3       2 GLC5        0.0000 
     23 CA        -26.5810    9.2090  -12.6660 C.3       6 GLL5        0.0000 
     24 CA        -27.8270    6.7620   -9.9950 C.3       4 GLP5        0.0000 
     25 CA        -25.5255   12.1390  -18.3265 C.3       2 GLC5        0.0000 
     26 CA        -26.2000   11.3270  -16.4140 C.3       6 GLL5        0.0000 
     27 CA        -24.8510   12.9510  -20.2390 C.3       4 GLP5        0.0000 
     28 CA        -27.5365   14.8510  -16.2460 C.3       2 GLC5        0.0000 
     29 CA        -27.9560   12.9430  -15.6860 C.3       6 GLL5        0.0000 
     30 CA        -27.1170   16.7590  -16.8060 C.3       4 GLP5        0.0000 
     31 CA        -21.3562    9.2828  -13.2578 C.3       2 GLC5        0.0000 
     32 CA        -20.8160    8.5870  -15.3110 C.3       6 GLL5        0.0000 
     33 CA        -20.3188   10.8137  -14.3867 C.3       2 GLC5        0.0000 
     34 CA        -20.5880   12.7190  -13.9150 C.3       4 GLP5        0.0000 
     35 CA        -19.5358    8.1522  -16.9207 C.3       2 GLC5        0.0000 
     36 CA        -18.1950    8.3950  -18.3660 C.3       4 GLP5        0.0000 
     37 CA        -22.3828   11.0060  -14.8802 C.3       2 GLC5        0.0000 
     38 CA        -22.3650   12.7200  -13.8060 C.3       4 GLP5        0.0000 
     39 CA        -24.4492    9.5755  -12.5809 C.3       2 GLC5        0.0000 
     40 CA        -26.1501   11.7899  -12.3319 C.3       2 GLC5        0.0000 
     41 CA        -26.1280   10.1760  -13.7390 C.3       6 GLL5        0.0000 
     42 CA        -25.5010   13.1680  -10.9940 C.3       4 GLP5        0.0000 
     43 CA        -24.6080   12.6878  -15.5525 C.3       2 GLC5        0.0000 
     44 CA        -26.7800   12.0800  -15.2340 C.3       6 GLL5        0.0000 
     45 CA        -22.7260   13.6720  -15.2810 C.3       4 GLP5        0.0000 
     46 CA        -26.4090   13.6922  -14.1405 C.3       2 GLC5        0.0000 
     47 CA        -25.4500   14.8730  -12.8210 C.3       4 GLP5        0.0000 
@<TRIPOS>BOND
@<TRIPOS>SUBSTRUCTURE
     1 SEC2       17 GROUP        1 X    SEC  0     ROOT SEC X 2
     2 GLC5        1 GROUP        1 X    GLC  0     **** GLC X 6
     3 SEP2       19 GROUP        1 Y    SEP  0     ROOT SEP Y 9
     4 GLP5        3 GROUP        1 Y    GLP  0     **** GLP Y 13
     5 SEL2       18 GROUP        1 Z    SEL  0     ROOT SEL Z 16
     6 GLL5        2 GROUP        1 Z    GLL  0     **** GLL Z 20
@<TRIPOS>SET

