#    Name: 3cj2_SX3_1_ligand
#    Modification time : Mon Mar 24 21:40:48 2014

@<TRIPOS>MOLECULE
3cj2_SX3_1_ligand
   37    38     1     0     0
SMALL
NO_CHARGES


@<TRIPOS>ATOM
      1 BR1       -19.2830    9.2300  -14.4060 Br        1 SX3571      0.0000 
      2 C11       -20.8160    8.5870  -15.3110 C.ar      1 SX3571      0.0000 
      3 C10       -21.8210    9.5080  -15.6250 C.ar      1 SX3571      0.0000 
      4 C12       -20.9370    7.2320  -15.6400 C.ar      1 SX3571      0.0000 
      5 C13       -22.1080    6.8040  -16.2950 C.ar      1 SX3571      0.0000 
      6 C14       -23.1370    7.7080  -16.6380 C.ar      1 SX3571      0.0000 
      7 N2        -24.2690    7.2190  -17.3100 N.pl3     1 SX3571      0.0000 
      8 C9        -22.9800    9.0760  -16.2840 C.ar      1 SX3571      0.0000 
      9 C8        -23.9740   10.1270  -16.6150 C.2       1 SX3571      0.0000 
     10 O1        -23.5970   10.9450  -17.4540 O.2       1 SX3571      0.0000 
     11 N1        -25.2720   10.2250  -16.0880 N.am      1 SX3571      0.0000 
     12 C6        -25.6520    9.3820  -14.9480 C.3       1 SX3571      0.0000 
     13 C4        -26.1280   10.1760  -13.7390 C.3       1 SX3571      0.0000 
     14 C5        -26.5810    9.2090  -12.6660 C.3       1 SX3571      0.0000 
     15 C3        -27.2440   11.1310  -14.1370 C.3       1 SX3571      0.0000 
     16 C7        -26.2000   11.3270  -16.4140 C.3       1 SX3571      0.0000 
     17 C2        -26.7800   12.0800  -15.2340 C.3       1 SX3571      0.0000 
     18 C1        -27.9560   12.9430  -15.6860 C.3       1 SX3571      0.0000 
     19 H         -21.7114   10.4944  -15.3748 H         1 SX3571      0.0000 
     20 H         -20.2028    6.5723  -15.4144 H         1 SX3571      0.0000 
     21 H         -22.2183    5.8041  -16.5311 H         1 SX3571      0.0000 
     22 H         -24.9986    7.8808  -17.4820 H         1 SX3571      0.0000 
     23 H         -24.2487    6.2507  -17.5591 H         1 SX3571      0.0000 
     24 H         -24.7961    8.7541  -14.6324 H         1 SX3571      0.0000 
     25 H         -26.4591    8.6822  -15.2400 H         1 SX3571      0.0000 
     26 H         -25.2924   10.7495  -13.3609 H         1 SX3571      0.0000 
     27 H         -27.5509   11.7102  -13.2661 H         1 SX3571      0.0000 
     28 H         -28.0990   10.5575  -14.4951 H         1 SX3571      0.0000 
     29 H         -27.0492   10.9336  -17.0269 H         1 SX3571      0.0000 
     30 H         -25.6867   12.0654  -17.0794 H         1 SX3571      0.0000 
     31 H         -26.0207   12.7351  -14.8248 H         1 SX3571      0.0000 
     32 H         -25.8409    8.6019  -12.3767 H         1 SX3571      0.0000 
     33 H         -26.9051    9.6860  -11.8490 H         1 SX3571      0.0000 
     34 H         -27.3304    8.6274  -12.9825 H         1 SX3571      0.0000 
     35 H         -27.6918   13.5818  -16.4086 H         1 SX3571      0.0000 
     36 H         -28.7070   12.3888  -16.0450 H         1 SX3571      0.0000 
     37 H         -28.3272   13.4880  -14.9343 H         1 SX3571      0.0000 
@<TRIPOS>BOND
     1    2    1 1    
     2    3    2 ar   
     3    4    2 ar   
     4    8    3 ar   
     5   19    3 1    
     6    5    4 ar   
     7   20    4 1    
     8    6    5 ar   
     9   21    5 1    
    10    7    6 1    
    11    8    6 ar   
    12   22    7 1    
    13   23    7 1    
    14    9    8 1    
    15   10    9 2    
    16   11    9 am   
    17   12   11 1    
    18   16   11 1    
    19   13   12 1    
    20   24   12 1    
    21   25   12 1    
    22   14   13 1    
    23   15   13 1    
    24   26   13 1    
    25   32   14 1    
    26   33   14 1    
    27   34   14 1    
    28   17   15 1    
    29   27   15 1    
    30   28   15 1    
    31   17   16 1    
    32   29   16 1    
    33   30   16 1    
    34   18   17 1    
    35   31   17 1    
    36   35   18 1    
    37   36   18 1    
    38   37   18 1    
@<TRIPOS>SUBSTRUCTURE
     1 SX3571      1 GROUP   
@<TRIPOS>SET

