#    Name: 2yer_TQ1_1_INTS_M
#    Modification time : Tue Mar 25 08:45:57 2014

@<TRIPOS>MOLECULE
2yer_TQ1_1_INTS_M
   51     0     9     0     0
SMALL
NO_CHARGES


@<TRIPOS>ATOM
      1 CA          0.5055   36.9985    9.1410 C.3       3 GLC5        0.0000 
      2 CA          1.2870   36.0710   10.5950 C.3       9 GLL5        0.0000 
      3 CA         -0.2760   37.9260    7.6870 C.3       6 GLP5        0.0000 
      4 CA         -2.3290   32.6380   11.1545 C.3       3 GLC5        0.0000 
      5 CA         -2.3990   34.5430   12.1340 C.3       9 GLL5        0.0000 
      6 CA         -2.2590   30.7330   10.1750 C.3       6 GLP5        0.0000 
      7 CA          4.1505   38.8080    8.1340 C.3       3 GLC5        0.0000 
      8 CA          5.0320   37.7850    9.5660 C.3       9 GLL5        0.0000 
      9 CA          3.2690   39.8310    6.7020 C.3       6 GLP5        0.0000 
     10 CA          4.0125   39.6635    9.0760 C.3       3 GLC5        0.0000 
     11 CA          4.3390   38.2110   10.7470 C.3       9 GLL5        0.0000 
     12 CA          3.6860   41.1160    7.4050 C.3       6 GLP5        0.0000 
     13 CA          3.6585   40.9220   11.7320 C.3       3 GLC5        0.0000 
     14 CA          5.0320   39.2280   11.5750 C.3       9 GLL5        0.0000 
     15 CA          2.2850   42.6160   11.8890 C.3       6 GLP5        0.0000 
     16 O          -0.5375   33.4500   11.0565 O.2       1 ALC1        0.0000 
     17 O          -1.1860   34.7480   11.4390 O.2       7 ALL1        0.0000 
     18 O           0.1110   32.1520   10.6740 O.2       4 ALP1        0.0000 
     19 O           3.8300   34.2780    6.4920 O.2       1 ALC1        0.0000 
     20 O           4.0470   35.4030    7.3000 O.2       7 ALL1        0.0000 
     21 O           3.6130   33.1530    5.6840 O.2       4 ALP1        0.0000 
     22 N           1.6255   33.2205    7.9945 N.am      2 SEC2        0.0000 
     23 N           1.9540   34.5590    8.0990 N.am      8 SEL2        0.0000 
     24 N           1.2970   31.8820    7.8900 N.am      5 SEP2        0.0000 
     25 N           6.8265   38.1780   12.3710 N.am      2 SEC2        0.0000 
     26 N           5.5340   38.5430   12.7160 N.am      8 SEL2        0.0000 
     27 N           8.1190   37.8130   12.0260 N.am      5 SEP2        0.0000 
     28 O           4.8265   38.7640   13.8570 O.2       1 ALC1        0.0000 
     29 O           5.5340   38.5430   12.7160 O.2       7 ALL1        0.0000 
     30 O           4.1190   38.9850   14.9980 O.2       4 ALP1        0.0000 
     31 CA          2.6423   37.2658   13.9952 C.3       3 GLC5        0.0000 
     32 CA          1.2590   37.4840   12.5640 C.3       9 GLL5        0.0000 
     33 CA          3.4420   36.7620   15.5680 C.3       6 GLP5        0.0000 
     34 CA          3.8738   36.3023   12.3765 C.3       3 GLC5        0.0000 
     35 CA          2.4260   38.0550   12.2810 C.3       9 GLL5        0.0000 
     36 CA          4.9580   34.7310   13.0580 C.3       6 GLP5        0.0000 
     37 CA         -1.5493   37.1707   10.9168 C.3       3 GLC5        0.0000 
     38 CA         -0.5560   35.8430   11.9870 C.3       9 GLL5        0.0000 
     39 CA         -2.1410   38.2680    9.3410 C.3       6 GLP5        0.0000 
     40 CA          3.5330   35.2635   10.5150 C.3       3 GLC5        0.0000 
     41 CA          5.1290   34.1600   10.6240 C.3       6 GLP5        0.0000 
     42 CA         -1.0641   34.2366   13.4554 C.3       3 GLC5        0.0000 
     43 CA         -1.3590   36.3040   12.9980 C.3       9 GLL5        0.0000 
     44 CA          0.0300   33.2450   14.3210 C.3       6 GLP5        0.0000 
     45 CA          0.6329   38.3464   10.8076 C.3       3 GLC5        0.0000 
     46 CA          0.6710   36.4820   11.7160 C.3       9 GLL5        0.0000 
     47 CA          0.0090   39.5670    9.5460 C.3       6 GLP5        0.0000 
     48 CA          0.0438   34.7037   13.0862 C.3       3 GLC5        0.0000 
     49 CA          1.4395   38.3722   10.1045 C.3       3 GLC5        0.0000 
     50 CA          2.5870   36.6630   10.2170 C.3       9 GLL5        0.0000 
     51 CA          4.9072   36.0790   10.3903 C.3       3 GLC5        0.0000 
@<TRIPOS>BOND
@<TRIPOS>SUBSTRUCTURE
     1 ALC1       16 GROUP        1 X    ALC  0     ROOT ALC X 1
     2 SEC2       22 GROUP        1 X    SEC  0     **** SEC X 2
     3 GLC5        1 GROUP        1 X    GLC  0     **** GLC X 6
     4 ALP1       18 GROUP        1 Y    ALP  0     ROOT ALP Y 8
     5 SEP2       24 GROUP        1 Y    SEP  0     **** SEP Y 9
     6 GLP5        3 GROUP        1 Y    GLP  0     **** GLP Y 13
     7 ALL1       17 GROUP        1 Z    ALL  0     ROOT ALL Z 15
     8 SEL2       23 GROUP        1 Z    SEL  0     **** SEL Z 16
     9 GLL5        2 GROUP        1 Z    GLL  0     **** GLL Z 20
@<TRIPOS>SET

