#    Name: 2yer_TQ1_1_ligand
#    Modification time : Tue Mar 25 08:45:57 2014

@<TRIPOS>MOLECULE
2yer_TQ1_1_ligand
   33    36     1     0     0
SMALL
NO_CHARGES


@<TRIPOS>ATOM
      1 C1         -2.4760   35.5230   13.0930 C.2       1 TQ11270     0.0000 
      2 C7          1.2590   37.4840   12.5640 C.ar      1 TQ11270     0.0000 
      3 C8          2.4260   38.0550   12.2810 C.ar      1 TQ11270     0.0000 
      4 C2         -1.3590   36.3040   12.9980 C.2       1 TQ11270     0.0000 
      5 C19         1.2870   36.0710   10.5950 C.ar      1 TQ11270     0.0000 
      6 C5         -2.3990   34.5430   12.1340 C.2       1 TQ11270     0.0000 
      7 C6          0.6710   36.4820   11.7160 C.ar      1 TQ11270     0.0000 
      8 C9          3.1530   37.6920   11.1090 C.ar      1 TQ11270     0.0000 
      9 C18         2.5870   36.6630   10.2170 C.ar      1 TQ11270     0.0000 
     10 C3         -0.5560   35.8430   11.9870 C.2       1 TQ11270     0.0000 
     11 C11         5.0320   37.7850    9.5660 C.2       1 TQ11270     0.0000 
     12 C10         4.3390   38.2110   10.7470 C.2       1 TQ11270     0.0000 
     13 C12         4.4590   36.8460    8.8220 C.2       1 TQ11270     0.0000 
     14 C15         2.9430   35.2690    8.0920 C.2       1 TQ11270     0.0000 
     15 C20         5.0320   39.2280   11.5750 C.3       1 TQ11270     0.0000 
     16 N13         4.9320   36.3360    7.7640 N.2       1 TQ11270     0.0000 
     17 N4         -1.1860   34.7480   11.4390 N.pl3     1 TQ11270     0.0000 
     18 N14         4.0470   35.4030    7.3000 N.am      1 TQ11270     0.0000 
     19 N17         3.2400   36.3150    9.1640 N.am      1 TQ11270     0.0000 
     20 O16         1.9540   34.5590    8.0990 O.2       1 TQ11270     0.0000 
     21 O21         5.5340   38.5430   12.7160 O.3       1 TQ11270     0.0000 
     22 H          -3.1911   35.6360   13.7185 H         1 TQ11270     0.0000 
     23 H           0.7147   37.7402   13.4207 H         1 TQ11270     0.0000 
     24 H           2.8495   38.7792   12.8946 H         1 TQ11270     0.0000 
     25 H          -1.1621   37.0672   13.5580 H         1 TQ11270     0.0000 
     26 H           0.9094   35.3588    9.9689 H         1 TQ11270     0.0000 
     27 H          -3.0177   33.8609   11.9563 H         1 TQ11270     0.0000 
     28 H           5.9259   38.2165    9.3498 H         1 TQ11270     0.0000 
     29 H           4.3217   40.0032   11.8543 H         1 TQ11270     0.0000 
     30 H           5.8343   39.6749   10.9917 H         1 TQ11270     0.0000 
     31 H          -0.8775   34.2125   10.7219 H         1 TQ11270     0.0000 
     32 H           4.1928   34.8781    6.4731 H         1 TQ11270     0.0000 
     33 H           4.9413   38.8269   13.4697 H         1 TQ11270     0.0000 
@<TRIPOS>BOND
     1    4    1 1    
     2    6    1 2    
     3   22    1 1    
     4    3    2 ar   
     5    7    2 ar   
     6   23    2 1    
     7    8    3 ar   
     8   24    3 1    
     9   10    4 2    
    10   25    4 1    
    11    7    5 ar   
    12    9    5 ar   
    13   26    5 1    
    14   17    6 1    
    15   27    6 1    
    16   10    7 1    
    17    9    8 ar   
    18   12    8 1    
    19   19    9 1    
    20   17   10 1    
    21   12   11 2    
    22   13   11 1    
    23   28   11 1    
    24   15   12 1    
    25   16   13 2    
    26   19   13 1    
    27   18   14 am   
    28   19   14 am   
    29   20   14 2    
    30   21   15 1    
    31   29   15 1    
    32   30   15 1    
    33   18   16 1    
    34   31   17 1    
    35   32   18 1    
    36   33   21 1    
@<TRIPOS>SUBSTRUCTURE
     1 TQ11270     1 GROUP   
@<TRIPOS>SET

