#    Name: 2OJT_2_CAVITY_N1_6.mol2
#    Modification time : Tue Mar 11 02:57:02 2014

@<TRIPOS>MOLECULE
2OJT_2_CAVITY_N1_6.mol2
  124     0     7     0     0
SMALL
NO_CHARGES


@<TRIPOS>ATOM
      1 CA        -57.5331   -2.4263   12.2836 C.3       6 GLY6        0.0000 
      2 OG        -54.1765   -0.0762   16.1190 O.2       1 SER1        0.0000 
      3 OG        -54.9587   -0.0903   17.3988 O.2       1 SER1        0.0000 
      4 OG        -53.5600   -1.5482   14.7215 O.2       1 SER1        0.0000 
      5 DU        -54.3422   -1.5623   16.0014 H         7 CUB7        0.0000 
      6 OG        -55.1244   -1.5764   17.2812 O.2       1 SER1        0.0000 
      7 OG        -54.5078   -3.0485   15.8837 O.2       1 SER1        0.0000 
      8 OG        -54.6735   -4.5347   15.7661 O.2       1 SER1        0.0000 
      9 OG        -55.6214   -6.0350   16.9283 O.2       1 SER1        0.0000 
     10 DU        -55.0048   -7.5070   15.5308 H         7 CUB7        0.0000 
     11 CA        -55.7871   -7.5211   16.8107 C.3       6 GLY6        0.0000 
     12 CA        -56.5693   -7.5352   18.0905 C.3       6 GLY6        0.0000 
     13 CA        -57.3515   -7.5494   19.3703 C.3       6 GLY6        0.0000 
     14 CA        -58.1337   -7.5635   20.6502 C.3       6 GLY6        0.0000 
     15 CZ        -54.3883   -8.9791   14.1334 C.ar      5 PHE5        0.0000 
     16 CA        -55.1705   -8.9932   15.4132 C.3       6 GLY6        0.0000 
     17 O         -55.9527   -9.0073   16.6930 O.2       2 ALA2        0.0000 
     18 O         -56.7349   -9.0214   17.9729 O.2       2 ALA2        0.0000 
     19 DU        -57.5171   -9.0355   19.2527 H         7 CUB7        0.0000 
     20 DU        -58.2993   -9.0496   20.5325 H         7 CUB7        0.0000 
     21 O         -56.9006  -10.5076   17.8552 O.2       2 ALA2        0.0000 
     22 O         -57.6828  -10.5217   19.1351 O.2       2 ALA2        0.0000 
     23 CA        -58.4650  -10.5358   20.4149 C.3       6 GLY6        0.0000 
     24 OD1       -57.8485  -12.0079   19.0174 O.3       3 ASP3        0.0000 
     25 CA        -58.6307  -12.0220   20.2973 C.3       6 GLY6        0.0000 
     26 O         -58.0141  -13.4941   18.8998 O.2       2 ALA2        0.0000 
     27 OG        -52.1252   -0.2647   15.6126 O.2       1 SER1        0.0000 
     28 OG        -52.9074   -0.2788   16.8924 O.2       1 SER1        0.0000 
     29 O         -53.6896   -0.2930   18.1723 O.2       2 ALA2        0.0000 
     30 DU        -51.5086   -1.7368   14.2151 H         7 CUB7        0.0000 
     31 DU        -52.2908   -1.7509   15.4950 H         7 CUB7        0.0000 
     32 CA        -53.0730   -1.7650   16.7748 C.3       6 GLY6        0.0000 
     33 CA        -53.8552   -1.7791   18.0546 C.3       6 GLY6        0.0000 
     34 NZ        -51.6743   -3.2230   14.0975 N.2       4 LYS4        0.0000 
     35 DU        -53.2387   -3.2512   16.6572 H         7 CUB7        0.0000 
     36 OG        -54.0209   -3.2653   17.9370 O.2       1 SER1        0.0000 
     37 DU        -52.6222   -4.7233   15.2597 H         7 CUB7        0.0000 
     38 DU        -53.4044   -4.7374   16.5395 H         7 CUB7        0.0000 
     39 OG        -54.1866   -4.7515   17.8194 O.2       1 SER1        0.0000 
     40 CZ        -52.7878   -6.2094   15.1421 C.ar      5 PHE5        0.0000 
     41 DU        -53.5700   -6.2236   16.4219 H         7 CUB7        0.0000 
     42 OG        -54.3522   -6.2377   17.7017 O.2       1 SER1        0.0000 
     43 OG        -55.1344   -6.2518   18.9816 O.2       1 SER1        0.0000 
     44 CA        -55.9166   -6.2659   20.2614 C.3       6 GLY6        0.0000 
     45 OD1       -56.6988   -6.2800   21.5412 O.3       3 ASP3        0.0000 
     46 CZ        -52.9535   -7.6956   15.0244 C.ar      5 PHE5        0.0000 
     47 CZ        -53.7357   -7.7097   16.3043 C.ar      5 PHE5        0.0000 
     48 DU        -54.5179   -7.7238   17.5841 H         7 CUB7        0.0000 
     49 OG        -55.3001   -7.7379   18.8639 O.2       1 SER1        0.0000 
     50 OG        -56.0823   -7.7520   20.1438 O.2       1 SER1        0.0000 
     51 CA        -56.8645   -7.7662   21.4236 C.3       6 GLY6        0.0000 
     52 CZ        -53.9014   -9.1959   16.1866 C.ar      5 PHE5        0.0000 
     53 O         -54.6836   -9.2100   17.4665 O.2       2 ALA2        0.0000 
     54 O         -55.4658   -9.2241   18.7463 O.2       2 ALA2        0.0000 
     55 CA        -56.2480   -9.2382   20.0261 C.3       6 GLY6        0.0000 
     56 CA        -57.0302   -9.2523   21.3060 C.3       6 GLY6        0.0000 
     57 O         -56.4136  -10.7244   19.9085 O.2       2 ALA2        0.0000 
     58 NZ        -49.4573   -1.9254   13.7088 N.2       4 LYS4        0.0000 
     59 OG        -50.2395   -1.9395   14.9886 O.2       1 SER1        0.0000 
     60 OG        -51.0217   -1.9536   16.2684 O.2       1 SER1        0.0000 
     61 OG        -51.8039   -1.9677   17.5482 O.2       1 SER1        0.0000 
     62 NZ        -50.4052   -3.4257   14.8709 N.2       4 LYS4        0.0000 
     63 DU        -51.1874   -3.4398   16.1508 H         7 CUB7        0.0000 
     64 CA        -51.9696   -3.4539   17.4306 C.3       6 GLY6        0.0000 
     65 NZ        -50.5708   -4.9119   14.7533 N.2       4 LYS4        0.0000 
     66 DU        -51.3530   -4.9260   16.0331 H         7 CUB7        0.0000 
     67 OG        -52.1352   -4.9401   17.3130 O.2       1 SER1        0.0000 
     68 CA        -52.9174   -4.9542   18.5928 C.3       6 GLY6        0.0000 
     69 NZ        -53.6996   -4.9683   19.8726 N.2       4 LYS4        0.0000 
     70 CZ        -51.5187   -6.4121   15.9155 C.ar      5 PHE5        0.0000 
     71 N         -52.3009   -6.4262   17.1953 N.2       2 ALA2        0.0000 
     72 OG        -53.0831   -6.4403   18.4752 O.2       1 SER1        0.0000 
     73 OG        -53.8653   -6.4545   19.7550 O.2       1 SER1        0.0000 
     74 OG        -54.6475   -6.4686   21.0348 O.2       1 SER1        0.0000 
     75 CZ        -51.6844   -7.8983   15.7979 C.ar      5 PHE5        0.0000 
     76 N         -52.4666   -7.9124   17.0777 N.2       2 ALA2        0.0000 
     77 OG        -53.2488   -7.9265   18.3575 O.2       1 SER1        0.0000 
     78 CZ        -52.6322   -9.3986   16.9601 C.ar      5 PHE5        0.0000 
     79 OG        -53.4144   -9.4127   18.2399 O.2       1 SER1        0.0000 
     80 NZ        -48.1882   -2.1281   14.4822 N.2       4 LYS4        0.0000 
     81 OG        -48.9704   -2.1422   15.7620 O.2       1 SER1        0.0000 
     82 NZ        -49.1360   -3.6284   15.6444 N.2       4 LYS4        0.0000 
     83 OG        -49.9182   -3.6425   16.9242 O.2       1 SER1        0.0000 
     84 OG        -50.7004   -3.6566   18.2040 O.2       1 SER1        0.0000 
     85 OG        -51.4826   -3.6707   19.4839 O.2       1 SER1        0.0000 
     86 NZ        -49.3017   -5.1145   15.5267 N.2       4 LYS4        0.0000 
     87 OG        -50.0839   -5.1287   16.8066 O.2       1 SER1        0.0000 
     88 OG        -50.8661   -5.1428   18.0864 O.2       1 SER1        0.0000 
     89 N         -51.0318   -6.6289   17.9688 N.2       2 ALA2        0.0000 
     90 CZ        -51.8140   -6.6430   19.2486 C.ar      5 PHE5        0.0000 
     91 OG        -51.9796   -8.1292   19.1310 O.2       1 SER1        0.0000 
     92 OG        -47.7012   -2.3449   16.5354 O.2       1 SER1        0.0000 
     93 OG        -48.4834   -2.3590   17.8153 O.2       1 SER1        0.0000 
     94 CZ        -47.8669   -3.8311   16.4178 C.ar      5 PHE5        0.0000 
     95 OG        -48.6491   -3.8452   17.6976 O.2       1 SER1        0.0000 
     96 OG        -48.8148   -5.3313   17.5800 O.2       1 SER1        0.0000 
     97 CA        -56.0983   -1.1428   13.1747 C.3       6 GLY6        0.0000 
     98 CA        -56.8805   -1.1569   14.4545 C.3       6 GLY6        0.0000 
     99 CA        -57.0461   -2.6431   14.3369 C.3       6 GLY6        0.0000 
    100 CA        -59.8897   -7.1440   17.8235 C.3       6 GLY6        0.0000 
    101 CA        -59.6045  -11.5884   16.1907 C.3       6 GLY6        0.0000 
    102 CA        -55.4457    0.1265   15.3456 C.3       6 GLY6        0.0000 
    103 OG        -56.2279    0.1124   16.6254 O.2       1 SER1        0.0000 
    104 OG        -54.0469   -1.3314   12.6683 O.2       1 SER1        0.0000 
    105 OG        -54.8291   -1.3455   13.9481 O.2       1 SER1        0.0000 
    106 DU        -55.6113   -1.3596   15.2279 H         7 CUB7        0.0000 
    107 OG        -56.3935   -1.3737   16.5078 O.2       1 SER1        0.0000 
    108 DU        -54.9948   -2.8317   13.8305 H         7 CUB7        0.0000 
    109 O         -55.7770   -2.8458   15.1103 O.2       2 ALA2        0.0000 
    110 OG        -56.5592   -2.8599   16.3901 O.2       1 SER1        0.0000 
    111 CA        -56.8905   -5.8323   16.1549 C.3       6 GLY6        0.0000 
    112 CA        -57.0562   -7.3184   16.0372 C.3       6 GLY6        0.0000 
    113 CA        -57.8384   -7.3326   17.3171 C.3       6 GLY6        0.0000 
    114 DU        -57.2219   -8.8046   15.9196 H         7 CUB7        0.0000 
    115 CA        -58.0041   -8.8187   17.1994 C.3       6 GLY6        0.0000 
    116 CA        -58.7863   -8.8328   18.4793 C.3       6 GLY6        0.0000 
    117 DU        -59.5685   -8.8469   19.7591 H         7 CUB7        0.0000 
    118 O         -57.3875  -10.2908   15.8020 O.2       2 ALA2        0.0000 
    119 O         -58.1697  -10.3049   17.0818 O.2       2 ALA2        0.0000 
    120 DU        -58.9519  -10.3190   18.3616 H         7 CUB7        0.0000 
    121 DU        -59.7341  -10.3331   19.6415 H         7 CUB7        0.0000 
    122 O         -58.3354  -11.7911   16.9642 O.2       2 ALA2        0.0000 
    123 DU        -59.1176  -11.8052   18.2440 H         7 CUB7        0.0000 
    124 N         -59.2833  -13.2914   18.1264 N.2       2 ALA2        0.0000 
@<TRIPOS>BOND
@<TRIPOS>SUBSTRUCTURE
     1 SER1        2 GROUP   
     2 ALA2       17 GROUP   
     3 ASP3       24 GROUP   
     4 LYS4       34 GROUP   
     5 PHE5       15 GROUP   
     6 GLY6        1 GROUP   
     7 CUB7        5 GROUP   
@<TRIPOS>SET

