#    Name: 2ojt_UBA_2_INTS_M
#    Modification time : Tue Mar 25 22:48:47 2014

@<TRIPOS>MOLECULE
2ojt_UBA_2_INTS_M
   50     0    12     0     0
SMALL
NO_CHARGES


@<TRIPOS>ATOM
      1 NZ        -53.7200  -11.5100   18.8355 N.4       3 LYC4        0.0000 
      2 NZ        -52.9730  -10.3970   18.3940 N.4      11 LYL4        0.0000 
      3 NZ        -55.1490  -13.2650   18.3470 N.4       7 LYP4        0.0000 
      4 N         -52.3105  -10.6930   19.6380 N.am      2 SEC2        0.0000 
      5 N         -52.9730  -10.3970   18.3940 N.am     10 SEL2        0.0000 
      6 N         -51.6480  -10.9890   20.8820 N.am      6 SEP2        0.0000 
      7 N         -53.7200  -11.5100   18.8355 N.am      2 SEC2        0.0000 
      8 N         -54.4670  -12.6230   19.2770 N.am      6 SEP2        0.0000 
      9 NZ        -54.9430  -11.3290   17.0530 N.4       3 LYC4        0.0000 
     10 NZ        -54.5260   -9.9780   16.9330 N.4      11 LYL4        0.0000 
     11 N         -54.9430  -11.3290   17.0530 N.am      2 SEC2        0.0000 
     12 N         -54.5260   -9.9780   16.9330 N.am     10 SEL2        0.0000 
     13 N         -55.3600  -12.6800   17.1730 N.am      6 SEP2        0.0000 
     14 CA        -52.0305   -9.4580   16.3505 C.3       4 GLC5        0.0000 
     15 CA        -53.1860   -8.1580   17.6510 C.3      12 GLL5        0.0000 
     16 CA        -50.8750  -10.7580   15.0500 C.3       8 GLP5        0.0000 
     17 O         -50.8295   -8.5105   18.4330 O.2       1 ALC1        0.0000 
     18 O         -52.1610   -7.9320   18.6690 O.2       9 ALL1        0.0000 
     19 O         -49.4980   -9.0890   18.1970 O.2       5 ALP1        0.0000 
     20 O         -52.5840   -8.2565   20.0785 O.2       1 ALC1        0.0000 
     21 O         -53.0070   -8.5810   21.4880 O.2       5 ALP1        0.0000 
     22 CA        -51.9290   -8.2125   14.7255 C.3       4 GLC5        0.0000 
     23 CA        -52.7300   -7.7180   16.2430 C.3      12 GLL5        0.0000 
     24 CA        -51.1280   -8.7070   13.2080 C.3       8 GLP5        0.0000 
     25 CA        -47.8365   -4.9330   14.9770 C.3       4 GLC5        0.0000 
     26 CA        -48.8990   -4.4720   16.6170 C.3      12 GLL5        0.0000 
     27 CA        -46.7740   -5.3940   13.3370 C.3       8 GLP5        0.0000 
     28 CA        -47.0205   -4.4510   16.9990 C.3       4 GLC5        0.0000 
     29 CA        -45.1420   -4.4300   17.3810 C.3       8 GLP5        0.0000 
     30 CA        -50.4510   -7.4310   15.2335 C.3       4 GLC5        0.0000 
     31 CA        -50.8700   -6.1200   16.4170 C.3      12 GLL5        0.0000 
     32 CA        -50.0320   -8.7420   14.0500 C.3       8 GLP5        0.0000 
     33 CA        -53.3935   -2.4025   18.7585 C.3       4 GLC5        0.0000 
     34 CA        -53.5790   -2.8720   16.8870 C.3      12 GLL5        0.0000 
     35 CA        -53.2080   -1.9330   20.6300 C.3       8 GLP5        0.0000 
     36 CA        -57.1205   -0.0480   13.5790 C.3       4 GLC5        0.0000 
     37 CA        -56.1580   -1.4320   14.1960 C.3      12 GLL5        0.0000 
     38 CA        -58.0830    1.3360   12.9620 C.3       8 GLP5        0.0000 
     39 CA        -57.9325   -2.2540   14.4125 C.3       4 GLC5        0.0000 
     40 CA        -59.7070   -3.0760   14.6290 C.3       8 GLP5        0.0000 
     41 N         -56.4925   -0.5860   18.9340 N.am      2 SEC2        0.0000 
     42 N         -55.5850   -0.9740   18.0230 N.am     10 SEL2        0.0000 
     43 N         -57.4000   -0.1980   19.8450 N.am      6 SEP2        0.0000 
     44 N         -58.3670   -1.6295   17.8385 N.am      2 SEC2        0.0000 
     45 N         -57.4750   -1.1070   16.9190 N.am     10 SEL2        0.0000 
     46 N         -59.2590   -2.1520   18.7580 N.am      6 SEP2        0.0000 
     47 N         -57.4375   -0.6525   18.3820 N.am      2 SEC2        0.0000 
     48 CA        -48.7254   -6.5134   17.2651 C.3       4 GLC5        0.0000 
     49 CA        -50.3720   -4.8270   16.5780 C.3      12 GLL5        0.0000 
     50 CA        -47.1980   -7.6420   18.0230 C.3       8 GLP5        0.0000 
@<TRIPOS>BOND
@<TRIPOS>SUBSTRUCTURE
     1 ALC1       17 GROUP        1 X    ALC  0     ROOT ALC X 1
     2 SEC2        4 GROUP        1 X    SEC  0     **** SEC X 2
     3 LYC4        1 GROUP        1 X    LYC  0     **** LYC X 4
     4 GLC5       14 GROUP        1 X    GLC  0     **** GLC X 6
     5 ALP1       19 GROUP        1 Y    ALP  0     ROOT ALP Y 8
     6 SEP2        6 GROUP        1 Y    SEP  0     **** SEP Y 9
     7 LYP4        3 GROUP        1 Y    LYP  0     **** LYP Y 11
     8 GLP5       16 GROUP        1 Y    GLP  0     **** GLP Y 13
     9 ALL1       18 GROUP        1 Z    ALL  0     ROOT ALL Z 15
    10 SEL2        5 GROUP        1 Z    SEL  0     **** SEL Z 16
    11 LYL4        2 GROUP        1 Z    LYL  0     **** LYL Z 18
    12 GLL5       15 GROUP        1 Z    GLL  0     **** GLL Z 20
@<TRIPOS>SET

