#    Name: 2ojt_UBA_2_ligand
#    Modification time : Tue Mar 25 22:48:47 2014

@<TRIPOS>MOLECULE
2ojt_UBA_2_ligand
   38    39     1     0     0
SMALL
NO_CHARGES


@<TRIPOS>ATOM
      1 OXT       -52.9730  -10.3970   18.3940 O.co2     1 UBA501      0.0000 
      2 C         -53.5840   -9.6010   17.6550 C.2       1 UBA501      0.0000 
      3 O         -54.5260   -9.9780   16.9330 O.co2     1 UBA501      0.0000 
      4 CA        -53.1860   -8.1580   17.6510 C.3       1 UBA501      0.0000 
      5 N         -52.1610   -7.9320   18.6690 N.4       1 UBA501      0.0000 
      6 CB        -52.7300   -7.7180   16.2430 C.3       1 UBA501      0.0000 
      7 N4        -52.1970   -6.3720   16.3890 N.am      1 UBA501      0.0000 
      8 C5        -53.1340   -5.3350   16.5140 C.2       1 UBA501      0.0000 
      9 O8        -54.3390   -5.6240   16.4720 O.2       1 UBA501      0.0000 
     10 N6        -52.6990   -4.0130   16.6870 N.am      1 UBA501      0.0000 
     11 C1        -51.3410   -3.7300   16.7160 C.2       1 UBA501      0.0000 
     12 O7        -50.9600   -2.5660   16.8920 O.2       1 UBA501      0.0000 
     13 C2        -50.3720   -4.8270   16.5780 C.2       1 UBA501      0.0000 
     14 C6        -48.8990   -4.4720   16.6170 C.3       1 UBA501      0.0000 
     15 C3        -50.8700   -6.1200   16.4170 C.2       1 UBA501      0.0000 
     16 C17       -53.5790   -2.8720   16.8870 C.3       1 UBA501      0.0000 
     17 C18       -54.3090   -2.4920   15.6570 C.2       1 UBA501      0.0000 
     18 C23       -53.9700   -2.7640   14.3200 C.2       1 UBA501      0.0000 
     19 C22       -54.8670   -2.2660   13.3640 C.2       1 UBA501      0.0000 
     20 S20       -56.1580   -1.4320   14.1960 S.3       1 UBA501      0.0000 
     21 C19       -55.5500   -1.7130   15.7680 C.2       1 UBA501      0.0000 
     22 C10       -56.2410   -1.2340   16.9880 C.2       1 UBA501      0.0000 
     23 O2        -55.5850   -0.9740   18.0230 O.co2     1 UBA501      0.0000 
     24 O1        -57.4750   -1.1070   16.9190 O.co2     1 UBA501      0.0000 
     25 H         -54.0788   -7.5656   17.9000 H         1 UBA501      0.0000 
     26 H         -53.5877   -7.7386   15.5919 H         1 UBA501      0.0000 
     27 H         -51.9777   -8.4100   15.9035 H         1 UBA501      0.0000 
     28 H         -50.1824   -6.9024   16.3169 H         1 UBA501      0.0000 
     29 H         -52.9938   -1.9990   17.2443 H         1 UBA501      0.0000 
     30 H         -54.3135   -3.0948   17.6890 H         1 UBA501      0.0000 
     31 H         -53.1562   -3.2708   14.0730 H         1 UBA501      0.0000 
     32 H         -54.9363   -2.2709   12.4741 H         1 UBA501      0.0000 
     33 H         -51.3435   -8.4830   18.5016 H         1 UBA501      0.0000 
     34 H         -51.8694   -6.9759   18.6966 H         1 UBA501      0.0000 
     35 H         -52.4891   -8.1649   19.5845 H         1 UBA501      0.0000 
     36 H         -48.3193   -5.2810   16.5195 H         1 UBA501      0.0000 
     37 H         -48.6492   -3.8421   15.8816 H         1 UBA501      0.0000 
     38 H         -48.6457   -4.0320   17.4785 H         1 UBA501      0.0000 
@<TRIPOS>BOND
     1    2    1 ar   
     2    3    2 ar   
     3    4    2 1    
     4    5    4 1    
     5    6    4 1    
     6   25    4 1    
     7   33    5 1    
     8   34    5 1    
     9   35    5 1    
    10    7    6 1    
    11   26    6 1    
    12   27    6 1    
    13    8    7 am   
    14   15    7 1    
    15    9    8 2    
    16   10    8 am   
    17   11   10 am   
    18   16   10 1    
    19   12   11 2    
    20   13   11 1    
    21   14   13 1    
    22   15   13 2    
    23   36   14 1    
    24   37   14 1    
    25   38   14 1    
    26   28   15 1    
    27   17   16 1    
    28   29   16 1    
    29   30   16 1    
    30   18   17 1    
    31   21   17 2    
    32   19   18 2    
    33   31   18 1    
    34   20   19 1    
    35   32   19 1    
    36   21   20 1    
    37   22   21 1    
    38   23   22 ar   
    39   24   22 ar   
@<TRIPOS>SUBSTRUCTURE
     1 UBA501      1 GROUP   
@<TRIPOS>SET

