#    Name: 1siv_PSI_1_INTS_M
#    Modification time : Tue Mar 25 02:28:29 2014

@<TRIPOS>MOLECULE
1siv_PSI_1_INTS_M
   95     0    12     0     0
SMALL
NO_CHARGES


@<TRIPOS>ATOM
      1 OD1         6.9820   17.2540   33.2180 O.co2     3 ASC3        0.0000 
      2 OD1         6.3210   16.3470   32.3890 O.co2    11 ASL3        0.0000 
      3 OD1         7.6430   18.1610   34.0470 O.co2     7 ASP3        0.0000 
      4 OD1         5.2995   16.8335   31.5205 O.co2     3 ASC3        0.0000 
      5 OD1         4.2780   17.3200   30.6520 O.co2     7 ASP3        0.0000 
      6 O           6.9820   17.2540   33.2180 O.2       1 ALC1        0.0000 
      7 O           6.3210   16.3470   32.3890 O.2       9 ALL1        0.0000 
      8 O           7.6430   18.1610   34.0470 O.2       5 ALP1        0.0000 
      9 O           5.2995   16.8335   31.5205 O.2       1 ALC1        0.0000 
     10 O           4.2780   17.3200   30.6520 O.2       5 ALP1        0.0000 
     11 CA          4.5245   14.4035   32.0865 C.3       4 GLC5        0.0000 
     12 CA          6.1780   15.1570   33.2190 C.3      12 GLL5        0.0000 
     13 CA          2.8710   13.6500   30.9540 C.3       8 GLP5        0.0000 
     14 N           4.7490   17.8485   35.0495 N.am      2 SEC2        0.0000 
     15 N           4.7450   16.5620   34.5420 N.am     10 SEL2        0.0000 
     16 N           4.7530   19.1350   35.5570 N.am      6 SEP2        0.0000 
     17 N           3.9445   17.9850   33.9865 N.am      2 SEC2        0.0000 
     18 N           3.1440   19.4080   33.4310 N.am      6 SEP2        0.0000 
     19 O           5.0715   13.2250   34.1435 O.2       1 ALC1        0.0000 
     20 O           4.5530   14.3870   34.8220 O.2       9 ALL1        0.0000 
     21 O           5.5900   12.0630   33.4650 O.2       5 ALP1        0.0000 
     22 CA          1.2260   12.3270   35.1110 C.3       4 GLC5        0.0000 
     23 CA          2.2050   14.3110   35.1050 C.3      12 GLL5        0.0000 
     24 CA          0.2470   10.3430   35.1170 C.3       8 GLP5        0.0000 
     25 CA          0.7830   14.6030   34.3455 C.3       4 GLC5        0.0000 
     26 CA         -0.6390   14.8950   33.5860 C.3       8 GLP5        0.0000 
     27 CA          2.5380   13.9805   33.0295 C.3       4 GLC5        0.0000 
     28 CA          0.5435   13.9565   36.4570 C.3       4 GLC5        0.0000 
     29 CA         -1.1180   13.6020   37.8090 C.3       8 GLP5        0.0000 
     30 N           3.5830   15.2605   41.9125 N.am      2 SEC2        0.0000 
     31 N           3.2270   14.4600   40.7050 N.am     10 SEL2        0.0000 
     32 N           3.9390   16.0610   43.1200 N.am      6 SEP2        0.0000 
     33 O           1.9395   15.1280   40.5455 O.2       1 ALC1        0.0000 
     34 O           3.2270   14.4600   40.7050 O.2       9 ALL1        0.0000 
     35 O           0.6520   15.7960   40.3860 O.2       5 ALP1        0.0000 
     36 O           4.8945   15.2600   38.4205 O.2       1 ALC1        0.0000 
     37 O           4.2150   13.9480   38.0820 O.2       9 ALL1        0.0000 
     38 O           5.5740   16.5720   38.7590 O.2       5 ALP1        0.0000 
     39 CA          7.3815   10.1480   39.5670 C.3       4 GLC5        0.0000 
     40 CA          7.2680   11.7740   38.4250 C.3      12 GLL5        0.0000 
     41 CA          7.4950    8.5220   40.7090 C.3       8 GLP5        0.0000 
     42 CA          8.2080   15.7285   39.4445 C.3       4 GLC5        0.0000 
     43 CA          7.5420   14.1430   38.1310 C.3      12 GLL5        0.0000 
     44 CA          8.8740   17.3140   40.7580 C.3       8 GLP5        0.0000 
     45 O           1.0465   12.0490   43.4260 O.2       1 ALC1        0.0000 
     46 O           1.5240   10.7800   42.7580 O.2       9 ALL1        0.0000 
     47 O           0.5690   13.3180   44.0940 O.2       5 ALP1        0.0000 
     48 N           1.0895   10.7225   46.3770 N.am      2 SEC2        0.0000 
     49 N           0.5940    9.9730   45.2060 N.am     10 SEL2        0.0000 
     50 N           1.5850   11.4720   47.5480 N.am      6 SEP2        0.0000 
     51 CA          3.6775    6.1625   44.7105 C.3       4 GLC5        0.0000 
     52 CA          3.5120    7.8660   44.2020 C.3      12 GLL5        0.0000 
     53 CA          3.8430    4.4590   45.2190 C.3       8 GLP5        0.0000 
     54 CA          4.2620   11.3830   44.4395 C.3       4 GLC5        0.0000 
     55 CA          4.4250    9.8050   43.0380 C.3      12 GLL5        0.0000 
     56 CA          4.0990   12.9610   45.8410 C.3       8 GLP5        0.0000 
     57 CA          6.2450   10.7400   42.8345 C.3       4 GLC5        0.0000 
     58 CA          8.0650   11.6750   42.6310 C.3       8 GLP5        0.0000 
     59 CA          5.4775    8.5720   41.8170 C.3       4 GLC5        0.0000 
     60 CA          6.5300    7.3390   40.5960 C.3       8 GLP5        0.0000 
     61 O           0.6450    7.2465   43.0205 O.2       1 ALC1        0.0000 
     62 O           0.1870    8.0630   44.1370 O.2       9 ALL1        0.0000 
     63 O           1.1030    6.4300   41.9040 O.2       5 ALP1        0.0000 
     64 N           1.1635    4.8520   44.1010 N.am      2 SEC2        0.0000 
     65 N           0.6610    5.6870   45.2290 N.am     10 SEL2        0.0000 
     66 N           1.6660    4.0170   42.9730 N.am      6 SEP2        0.0000 
     67 CA         -3.1675    9.5530   42.1410 C.3       4 GLC5        0.0000 
     68 CA         -2.6520    8.8320   43.8880 C.3      12 GLL5        0.0000 
     69 CA         -3.6830   10.2740   40.3940 C.3       8 GLP5        0.0000 
     70 CA          1.7980    4.8680   47.1805 C.3       4 GLC5        0.0000 
     71 CA         -0.1460    5.0100   47.6450 C.3      12 GLL5        0.0000 
     72 CA          3.7420    4.7260   46.7160 C.3       8 GLP5        0.0000 
     73 CA          2.5847   16.0663   36.3820 C.3       4 GLC5        0.0000 
     74 CA          3.5220   14.5460   35.8010 C.3      12 GLL5        0.0000 
     75 CA          2.3060   17.7040   37.3110 C.3       8 GLP5        0.0000 
     76 CA          0.2125   13.0843   39.0882 C.3       4 GLC5        0.0000 
     77 CA          1.9690   12.7550   39.7840 C.3      12 GLL5        0.0000 
     78 CA          8.9543   12.4912   39.1732 C.3       4 GLC5        0.0000 
     79 CA          6.9110   13.0670   38.7320 C.3      12 GLL5        0.0000 
     80 CA         10.8190   12.5620   39.7680 C.3       8 GLP5        0.0000 
     81 CA          7.4411   12.0787   40.7323 C.3       4 GLC5        0.0000 
     82 CA          6.4807   10.7520   36.5880 C.3       4 GLC5        0.0000 
     83 CA          5.1930    9.8260   35.2130 C.3       8 GLP5        0.0000 
     84 CA          9.4303   13.3040   38.7193 C.3       4 GLC5        0.0000 
     85 CA          8.5410   13.9490   37.2100 C.3      12 GLL5        0.0000 
     86 CA          9.6635   10.5162   37.1698 C.3       4 GLC5        0.0000 
     87 CA          8.8990   12.6610   36.8980 C.3      12 GLL5        0.0000 
     88 CA         10.7430    8.9110   37.1400 C.3       8 GLP5        0.0000 
     89 CA          9.7015   12.3417   38.4838 C.3       4 GLC5        0.0000 
     90 CA          8.2690   11.5820   37.5010 C.3      12 GLL5        0.0000 
     91 CA          2.5885   11.1828   44.7235 C.3       4 GLC5        0.0000 
     92 CA          3.2720    9.3430   43.9190 C.3      12 GLL5        0.0000 
     93 CA          2.6000   12.9560   45.8740 C.3       8 GLP5        0.0000 
     94 CA          5.5258    8.7884   44.7306 C.3       4 GLC5        0.0000 
     95 CA          7.1430    8.3720   45.9120 C.3       8 GLP5        0.0000 
@<TRIPOS>BOND
@<TRIPOS>SUBSTRUCTURE
     1 ALC1        6 GROUP        1 X    ALC  0     ROOT ALC X 1
     2 SEC2       14 GROUP        1 X    SEC  0     **** SEC X 2
     3 ASC3        1 GROUP        1 X    ASC  0     **** ASC X 3
     4 GLC5       11 GROUP        1 X    GLC  0     **** GLC X 6
     5 ALP1        8 GROUP        1 Y    ALP  0     ROOT ALP Y 8
     6 SEP2       16 GROUP        1 Y    SEP  0     **** SEP Y 9
     7 ASP3        3 GROUP        1 Y    ASP  0     **** ASP Y 10
     8 GLP5       13 GROUP        1 Y    GLP  0     **** GLP Y 13
     9 ALL1        7 GROUP        1 Z    ALL  0     ROOT ALL Z 15
    10 SEL2       15 GROUP        1 Z    SEL  0     **** SEL Z 16
    11 ASL3        2 GROUP        1 Z    ASL  0     **** ASL Z 17
    12 GLL5       12 GROUP        1 Z    GLL  0     **** GLL Z 20
@<TRIPOS>SET

