#    Name: 1siv_PSI_1_ligand
#    Modification time : Tue Mar 25 02:28:29 2014

@<TRIPOS>MOLECULE
1siv_PSI_1_ligand
   89    89     1     0     0
SMALL
NO_CHARGES


@<TRIPOS>ATOM
      1 N           6.3210   16.3470   32.3890 N.4       1 PSI100      0.0000 
      2 CA          6.1780   15.1570   33.2190 C.3       1 PSI100      0.0000 
      3 C           5.1000   15.4110   34.2600 C.2       1 PSI100      0.0000 
      4 O           4.7450   16.5620   34.5420 O.2       1 PSI100      0.0000 
      5 CB          7.4680   14.8260   33.9450 C.3       1 PSI100      0.0000 
      6 N1          4.5530   14.3870   34.8220 N.am      1 PSI100      0.0000 
      7 CA1         3.5220   14.5460   35.8010 C.3       1 PSI100      0.0000 
      8 C1          3.7600   13.5250   36.9140 C.2       1 PSI100      0.0000 
      9 O1          3.5460   12.3220   36.7610 O.2       1 PSI100      0.0000 
     10 CB1         2.2050   14.3110   35.1050 C.3       1 PSI100      0.0000 
     11 C3          1.5270   11.0000   41.4510 C.2       1 PSI100      0.0000 
     12 O2          1.8450   10.1220   40.6350 O.2       1 PSI100      0.0000 
     13 CA3         1.1170   12.3780   40.9510 C.3       1 PSI100      0.0000 
     14 CM          1.9690   12.7550   39.7840 C.3       1 PSI100      0.0000 
     15 C2          3.3430   13.1250   40.2330 C.3       1 PSI100      0.0000 
     16 OS          3.2270   14.4600   40.7050 O.3       1 PSI100      0.0000 
     17 CA2         4.4520   13.0110   39.1770 C.3       1 PSI100      0.0000 
     18 N2          4.2150   13.9480   38.0820 N.am      1 PSI100      0.0000 
     19 CB2         5.8220   13.3150   39.7520 C.3       1 PSI100      0.0000 
     20 CG          6.9110   13.0670   38.7320 C.ar      1 PSI100      0.0000 
     21 CD1         7.2680   11.7740   38.4250 C.ar      1 PSI100      0.0000 
     22 CD2         7.5420   14.1430   38.1310 C.ar      1 PSI100      0.0000 
     23 CE1         8.2690   11.5820   37.5010 C.ar      1 PSI100      0.0000 
     24 CE2         8.5410   13.9490   37.2100 C.ar      1 PSI100      0.0000 
     25 CZ          8.8990   12.6610   36.8980 C.ar      1 PSI100      0.0000 
     26 N4          1.5240   10.7800   42.7580 N.am      1 PSI100      0.0000 
     27 CA4         1.8820    9.4760   43.2270 C.3       1 PSI100      0.0000 
     28 C4          0.8310    9.2020   44.2720 C.2       1 PSI100      0.0000 
     29 O3          0.5940    9.9730   45.2060 O.2       1 PSI100      0.0000 
     30 CB3         3.2720    9.3430   43.9190 C.3       1 PSI100      0.0000 
     31 CG1         3.5120    7.8660   44.2020 C.3       1 PSI100      0.0000 
     32 CG2         4.4250    9.8050   43.0380 C.3       1 PSI100      0.0000 
     33 N5          0.1870    8.0630   44.1370 N.am      1 PSI100      0.0000 
     34 CA5        -0.8350    7.6230   45.0770 C.3       1 PSI100      0.0000 
     35 C5         -0.3580    6.2630   45.6270 C.2       1 PSI100      0.0000 
     36 O4          0.6610    5.6870   45.2290 O.2       1 PSI100      0.0000 
     37 CB4        -2.2130    7.4720   44.3940 C.3       1 PSI100      0.0000 
     38 CG11       -2.1560    6.4120   43.3150 C.3       1 PSI100      0.0000 
     39 CG21       -2.6520    8.8320   43.8880 C.3       1 PSI100      0.0000 
     40 C6         -0.1460    5.0100   47.6450 C.3       1 PSI100      0.0000 
     41 O5         -1.0360    5.6020   46.6760 O.3       1 PSI100      0.0000 
     42 H           5.8815   14.3094   32.6310 H         1 PSI100      0.0000 
     43 H           4.8240   13.3997   34.6010 H         1 PSI100      0.0000 
     44 H           3.5354   15.5267   36.2179 H         1 PSI100      0.0000 
     45 H           1.2437   13.0983   41.7554 H         1 PSI100      0.0000 
     46 H           0.0706   12.3509   40.6575 H         1 PSI100      0.0000 
     47 H           1.5146   13.6014   39.2568 H         1 PSI100      0.0000 
     48 H           2.0254   11.9134   39.0845 H         1 PSI100      0.0000 
     49 H           3.6084   12.4749   41.0781 H         1 PSI100      0.0000 
     50 H           4.4601   11.9987   38.7945 H         1 PSI100      0.0000 
     51 H           4.4240   14.9423   38.2823 H         1 PSI100      0.0000 
     52 H           5.9937   12.6832   40.6276 H         1 PSI100      0.0000 
     53 H           5.8549   14.3600   40.0717 H         1 PSI100      0.0000 
     54 H           6.8044   10.9820   38.8691 H         1 PSI100      0.0000 
     55 H           7.2518   15.1074   38.3839 H         1 PSI100      0.0000 
     56 H           8.5606   10.6188   37.2481 H         1 PSI100      0.0000 
     57 H           9.0073   14.7444   36.7670 H         1 PSI100      0.0000 
     58 H           9.6494   12.4855   36.2033 H         1 PSI100      0.0000 
     59 H           1.2804   11.4890   43.4520 H         1 PSI100      0.0000 
     60 H           1.7866    8.7313   42.4740 H         1 PSI100      0.0000 
     61 H           3.2684    9.8725   44.8333 H         1 PSI100      0.0000 
     62 H           0.3738    7.4040   43.3412 H         1 PSI100      0.0000 
     63 H          -0.9190    8.2995   45.8985 H         1 PSI100      0.0000 
     64 H          -2.9132    7.1514   45.1702 H         1 PSI100      0.0000 
     65 H           7.0249   16.2288   31.6886 H         1 PSI100      0.0000 
     66 H           5.4704   16.5732   31.9144 H         1 PSI100      0.0000 
     67 H           6.5771   17.1483   32.9297 H         1 PSI100      0.0000 
     68 H           8.2191   14.6537   33.3077 H         1 PSI100      0.0000 
     69 H           7.7581   15.5713   34.5453 H         1 PSI100      0.0000 
     70 H           7.3744   14.0099   34.5152 H         1 PSI100      0.0000 
     71 H           2.0568   14.9624   34.3608 H         1 PSI100      0.0000 
     72 H           2.1534   13.3949   34.7073 H         1 PSI100      0.0000 
     73 H           1.4318   14.4021   35.7326 H         1 PSI100      0.0000 
     74 H           4.3924    7.7121   44.6505 H         1 PSI100      0.0000 
     75 H           2.8076    7.4831   44.7997 H         1 PSI100      0.0000 
     76 H           3.5115    7.3222   43.3628 H         1 PSI100      0.0000 
     77 H           5.3067    9.7098   43.5001 H         1 PSI100      0.0000 
     78 H           4.4796    9.2769   42.1906 H         1 PSI100      0.0000 
     79 H           4.3322   10.7663   42.7788 H         1 PSI100      0.0000 
     80 H          -1.4895    6.6400   42.6052 H         1 PSI100      0.0000 
     81 H          -1.8970    5.5195   43.6844 H         1 PSI100      0.0000 
     82 H          -3.0395    6.2962   42.8611 H         1 PSI100      0.0000 
     83 H          -2.7329    9.4963   44.6310 H         1 PSI100      0.0000 
     84 H          -2.0036    9.2093   43.2268 H         1 PSI100      0.0000 
     85 H          -3.5422    8.7899   43.4343 H         1 PSI100      0.0000 
     86 H           0.4588    4.3316   47.2280 H         1 PSI100      0.0000 
     87 H           0.4381    5.6952   48.0802 H         1 PSI100      0.0000 
     88 H          -0.6476    4.5461   48.3752 H         1 PSI100      0.0000 
     89 H           2.2897   14.7313   40.4860 H         1 PSI100      0.0000 
@<TRIPOS>BOND
     1    2    1 1    
     2   65    1 1    
     3   66    1 1    
     4   67    1 1    
     5    3    2 1    
     6    5    2 1    
     7   42    2 1    
     8    4    3 2    
     9    6    3 am   
    10   68    5 1    
    11   69    5 1    
    12   70    5 1    
    13    7    6 1    
    14   43    6 1    
    15    8    7 1    
    16   10    7 1    
    17   44    7 1    
    18    9    8 2    
    19   18    8 am   
    20   71   10 1    
    21   72   10 1    
    22   73   10 1    
    23   12   11 2    
    24   13   11 1    
    25   26   11 am   
    26   14   13 1    
    27   45   13 1    
    28   46   13 1    
    29   15   14 1    
    30   47   14 1    
    31   48   14 1    
    32   16   15 1    
    33   17   15 1    
    34   49   15 1    
    35   89   16 1    
    36   18   17 1    
    37   19   17 1    
    38   50   17 1    
    39   51   18 1    
    40   20   19 1    
    41   52   19 1    
    42   53   19 1    
    43   21   20 ar   
    44   22   20 ar   
    45   23   21 ar   
    46   54   21 1    
    47   24   22 ar   
    48   55   22 1    
    49   25   23 ar   
    50   56   23 1    
    51   25   24 ar   
    52   57   24 1    
    53   58   25 1    
    54   27   26 1    
    55   59   26 1    
    56   28   27 1    
    57   30   27 1    
    58   60   27 1    
    59   29   28 2    
    60   33   28 am   
    61   31   30 1    
    62   32   30 1    
    63   61   30 1    
    64   74   31 1    
    65   75   31 1    
    66   76   31 1    
    67   77   32 1    
    68   78   32 1    
    69   79   32 1    
    70   34   33 1    
    71   62   33 1    
    72   35   34 1    
    73   37   34 1    
    74   63   34 1    
    75   36   35 2    
    76   41   35 1    
    77   38   37 1    
    78   39   37 1    
    79   64   37 1    
    80   80   38 1    
    81   81   38 1    
    82   82   38 1    
    83   83   39 1    
    84   84   39 1    
    85   85   39 1    
    86   41   40 1    
    87   86   40 1    
    88   87   40 1    
    89   88   40 1    
@<TRIPOS>SUBSTRUCTURE
     1 PSI100      1 GROUP   
@<TRIPOS>SET

