#    Name: 2V74_1_CAVITY_N1_6.mol2
#    Modification time : Mon Mar 10 15:17:51 2014

@<TRIPOS>MOLECULE
2V74_1_CAVITY_N1_6.mol2
   69     0     7     0     0
SMALL
NO_CHARGES


@<TRIPOS>ATOM
      1 CZ        -12.6105   21.3704  -88.8271 C.ar      5 PHE5        0.0000 
      2 CA        -13.9740   21.9399  -89.0849 C.3       6 GLY6        0.0000 
      3 CZ        -13.3850   26.6937  -90.4282 C.ar      5 PHE5        0.0000 
      4 OG        -14.7485   27.2631  -90.6860 O.2       1 SER1        0.0000 
      5 OG        -16.1121   27.8325  -90.9438 O.2       1 SER1        0.0000 
      6 CZ        -12.5765   24.7367  -90.2993 C.ar      5 PHE5        0.0000 
      7 CZ        -13.9400   25.3061  -90.5570 C.ar      5 PHE5        0.0000 
      8 CA        -15.3036   25.8756  -90.8148 C.3       6 GLY6        0.0000 
      9 CA        -16.6672   26.4450  -91.0726 C.3       6 GLY6        0.0000 
     10 NZ        -11.7680   22.7797  -90.1703 N.2       4 LYS4        0.0000 
     11 CA        -13.1316   23.3492  -90.4281 C.3       6 GLY6        0.0000 
     12 CA        -14.4951   23.9186  -90.6859 C.3       6 GLY6        0.0000 
     13 CA        -15.8587   24.4880  -90.9437 C.3       6 GLY6        0.0000 
     14 N         -12.3231   21.3922  -90.2992 N.2       2 ALA2        0.0000 
     15 N         -13.6867   21.9616  -90.5570 N.2       2 ALA2        0.0000 
     16 N         -11.7734   28.8341  -85.4965 N.2       2 ALA2        0.0000 
     17 N         -14.5005   29.9730  -86.0121 N.2       2 ALA2        0.0000 
     18 CA        -14.1738   27.3066  -93.6301 C.3       6 GLY6        0.0000 
     19 O         -13.3653   25.3496  -93.5011 O.2       2 ALA2        0.0000 
     20 CA        -14.7288   25.9190  -93.7589 C.3       6 GLY6        0.0000 
     21 CZ        -12.8978   21.3487  -87.3551 C.ar      5 PHE5        0.0000 
     22 O         -16.0924   26.4885  -94.0167 O.2       2 ALA2        0.0000 
     23 O         -15.2839   24.5315  -93.8878 O.2       2 ALA2        0.0000 
     24 CZ        -10.9309   30.2434  -86.8397 C.ar      5 PHE5        0.0000 
     25 DU        -12.2944   30.8128  -87.0975 H         7 CUB7        0.0000 
     26 DU        -13.6580   31.3823  -87.3553 H         7 CUB7        0.0000 
     27 OG        -15.0216   31.9517  -87.6131 O.2       1 SER1        0.0000 
     28 OG        -16.3851   32.5211  -87.8709 O.2       1 SER1        0.0000 
     29 NZ        -17.7487   33.0906  -88.1287 N.2       4 LYS4        0.0000 
     30 CZ        -11.4860   28.8559  -86.9686 C.ar      5 PHE5        0.0000 
     31 CZ        -12.8495   29.4253  -87.2264 C.ar      5 PHE5        0.0000 
     32 OG        -14.2131   29.9947  -87.4842 O.2       1 SER1        0.0000 
     33 CZ        -13.4046   28.0377  -87.3552 C.ar      5 PHE5        0.0000 
     34 OG        -14.7682   28.6072  -87.6130 O.2       1 SER1        0.0000 
     35 NZ        -12.8442   23.3709  -91.9002 N.2       4 LYS4        0.0000 
     36 CA        -15.5713   24.5098  -92.4157 C.3       6 GLY6        0.0000 
     37 O         -16.9349   25.0792  -92.6735 O.2       2 ALA2        0.0000 
     38 CZ        -13.9061   28.6724  -92.0292 C.ar      5 PHE5        0.0000 
     39 CZ        -14.4611   27.2848  -92.1580 C.ar      5 PHE5        0.0000 
     40 O         -15.8247   27.8543  -92.4158 O.2       2 ALA2        0.0000 
     41 CZ        -12.2891   24.7584  -91.7713 C.ar      5 PHE5        0.0000 
     42 CZ        -13.6527   25.3279  -92.0291 C.ar      5 PHE5        0.0000 
     43 DU        -15.0162   25.8973  -92.2869 H         7 CUB7        0.0000 
     44 CA        -16.3798   26.4667  -92.5447 C.3       6 GLY6        0.0000 
     45 OD1       -12.5282   32.8133  -90.1706 O.3       3 ASP3        0.0000 
     46 NZ        -13.8917   33.3827  -90.4283 N.2       4 LYS4        0.0000 
     47 NZ        -15.2553   33.9521  -90.6861 N.2       4 LYS4        0.0000 
     48 CZ        -13.0833   31.4257  -90.2994 C.ar      5 PHE5        0.0000 
     49 NZ        -14.4468   31.9952  -90.5572 N.2       4 LYS4        0.0000 
     50 CZ        -13.6383   30.0382  -90.4283 C.ar      5 PHE5        0.0000 
     51 CZ        -14.1934   28.6506  -90.5571 C.ar      5 PHE5        0.0000 
     52 DU        -12.8155   32.7915  -88.6985 H         7 CUB7        0.0000 
     53 DU        -14.1791   33.3610  -88.9563 H         7 CUB7        0.0000 
     54 NZ        -15.5427   33.9304  -89.2141 N.2       4 LYS4        0.0000 
     55 CZ        -10.6435   30.2651  -88.3118 C.ar      5 PHE5        0.0000 
     56 CZ        -12.0071   30.8346  -88.5696 C.ar      5 PHE5        0.0000 
     57 DU        -13.3706   31.4040  -88.8274 H         7 CUB7        0.0000 
     58 NZ        -14.7342   31.9734  -89.0851 N.2       4 LYS4        0.0000 
     59 NZ        -16.0978   32.5429  -89.3429 N.2       4 LYS4        0.0000 
     60 NZ        -17.4613   33.1123  -89.6007 N.2       4 LYS4        0.0000 
     61 CZ        -12.5622   29.4470  -88.6984 C.ar      5 PHE5        0.0000 
     62 OG        -13.9257   30.0165  -88.9562 O.2       1 SER1        0.0000 
     63 CZ        -13.1172   28.0595  -88.8273 C.ar      5 PHE5        0.0000 
     64 OG        -14.4808   28.6289  -89.0851 O.2       1 SER1        0.0000 
     65 OG        -13.6723   26.6719  -88.9561 O.2       1 SER1        0.0000 
     66 OG        -15.0359   27.2414  -89.2139 O.2       1 SER1        0.0000 
     67 CA        -14.2274   25.2844  -89.0850 C.3       6 GLY6        0.0000 
     68 OG        -12.0554   22.7580  -88.6983 O.2       1 SER1        0.0000 
     69 CA        -13.4189   23.3274  -88.9561 C.3       6 GLY6        0.0000 
@<TRIPOS>BOND
@<TRIPOS>SUBSTRUCTURE
     1 SER1        4 GROUP   
     2 ALA2       14 GROUP   
     3 ASP3       45 GROUP   
     4 LYS4       10 GROUP   
     5 PHE5        1 GROUP   
     6 GLY6        2 GROUP   
     7 CUB7       25 GROUP   
@<TRIPOS>SET

