#    Name: 2v74_SAH_1_INTS_M
#    Modification time : Tue Mar 25 01:05:34 2014

@<TRIPOS>MOLECULE
2v74_SAH_1_INTS_M
   87     0    12     0     0
SMALL
NO_CHARGES


@<TRIPOS>ATOM
      1 O         -15.4155   18.3570  -91.2605 O.2       1 ALC1        0.0000 
      2 O         -15.8040   16.9140  -90.6740 O.2       9 ALL1        0.0000 
      3 O         -15.0270   19.8000  -91.8470 O.2       5 ALP1        0.0000 
      4 O         -16.0455   16.2750  -92.0460 O.2       1 ALC1        0.0000 
      5 O         -16.2870   15.6360  -93.4180 O.2       5 ALP1        0.0000 
      6 CA        -14.9120   17.3770  -92.2855 C.3       4 GLC5        0.0000 
      7 CA        -14.4500   16.3890  -90.3380 C.3      12 GLL5        0.0000 
      8 CA        -15.3740   18.3650  -94.2330 C.3       8 GLP5        0.0000 
      9 CA        -14.4565   14.3465  -90.8720 C.3       4 GLC5        0.0000 
     10 CA        -14.4630   12.3040  -91.4060 C.3       8 GLP5        0.0000 
     11 CA        -16.5770   15.9175  -90.1665 C.3       4 GLC5        0.0000 
     12 CA        -18.7040   15.4460  -89.9950 C.3       8 GLP5        0.0000 
     13 CA        -12.5790   17.7140  -91.6925 C.3       4 GLC5        0.0000 
     14 CA        -13.5270   17.4790  -89.7950 C.3      12 GLL5        0.0000 
     15 CA        -11.6310   17.9490  -93.5900 C.3       8 GLP5        0.0000 
     16 CA        -15.8300   17.6815  -87.5660 C.3       4 GLC5        0.0000 
     17 CA        -14.0350   18.2450  -88.5810 C.3      12 GLL5        0.0000 
     18 CA        -17.6250   17.1180  -86.5510 C.3       8 GLP5        0.0000 
     19 CA        -11.1710   20.0015  -87.1245 C.3       4 GLC5        0.0000 
     20 CA        -12.7750   19.3270  -87.8510 C.3      12 GLL5        0.0000 
     21 CA         -9.5670   20.6760  -86.3980 C.3       8 GLP5        0.0000 
     22 CA        -11.6355   18.2020  -86.9325 C.3       4 GLC5        0.0000 
     23 CA        -10.4960   17.0770  -86.0140 C.3       8 GLP5        0.0000 
     24 NZ        -13.7365   13.4735  -88.0170 N.4       3 LYC4        0.0000 
     25 NZ        -13.5740   14.5480  -89.0270 N.4      11 LYL4        0.0000 
     26 NZ        -14.3140   13.1890  -86.0270 N.4       7 LYP4        0.0000 
     27 N         -14.1230   14.4940  -87.6585 N.am      2 SEC2        0.0000 
     28 N         -13.5740   14.5480  -89.0270 N.am     10 SEL2        0.0000 
     29 N         -14.6720   14.4400  -86.2900 N.am      6 SEP2        0.0000 
     30 N         -13.7365   13.4735  -88.0170 N.am      2 SEC2        0.0000 
     31 N         -13.8990   12.3990  -87.0070 N.am      6 SEP2        0.0000 
     32 NZ        -15.1625   14.6630  -87.6055 N.4       3 LYC4        0.0000 
     33 NZ        -15.6530   14.8860  -88.9210 N.4      11 LYL4        0.0000 
     34 N         -15.1625   14.6630  -87.6055 N.am      2 SEC2        0.0000 
     35 N         -15.6530   14.8860  -88.9210 N.am     10 SEL2        0.0000 
     36 CA        -14.6040   22.2080  -88.0800 C.3       4 GLC5        0.0000 
     37 CA        -13.4200   20.8190  -88.6600 C.3      12 GLL5        0.0000 
     38 CA        -15.7880   23.5970  -87.5000 C.3       8 GLP5        0.0000 
     39 CA        -14.2080   21.5065  -91.4550 C.3       4 GLC5        0.0000 
     40 CA        -12.9000   21.0910  -90.0760 C.3      12 GLL5        0.0000 
     41 CA        -15.5160   21.9220  -92.8340 C.3       8 GLP5        0.0000 
     42 N          -9.9805   19.6460  -91.1825 N.am      2 SEC2        0.0000 
     43 N         -10.8290   20.8540  -91.2060 N.am     10 SEL2        0.0000 
     44 N          -9.1320   18.4380  -91.1590 N.am      6 SEP2        0.0000 
     45 O         -11.5140   20.9775  -92.4980 O.2       1 ALC1        0.0000 
     46 O         -10.8290   20.8540  -91.2060 O.2       9 ALL1        0.0000 
     47 O         -12.1990   21.1010  -93.7900 O.2       5 ALP1        0.0000 
     48 CA        -11.1450   24.7610  -89.1370 C.3       4 GLC5        0.0000 
     49 CA        -11.4700   23.0100  -90.3800 C.3      12 GLL5        0.0000 
     50 CA        -10.8200   26.5120  -87.8940 C.3       8 GLP5        0.0000 
     51 CA         -9.7215   22.3740  -90.0260 C.3       4 GLC5        0.0000 
     52 CA         -7.9730   21.7380  -89.6720 C.3       8 GLP5        0.0000 
     53 O         -10.4730   22.9715  -92.5190 O.2       1 ALC1        0.0000 
     54 O         -10.4250   23.4440  -91.2070 O.2       9 ALL1        0.0000 
     55 O         -10.5210   22.4990  -93.8310 O.2       5 ALP1        0.0000 
     56 CA        -14.1545   22.5535  -91.9650 C.3       4 GLC5        0.0000 
     57 CA        -12.7930   23.1850  -91.0960 C.3      12 GLL5        0.0000 
     58 CA        -15.0505   28.2975  -93.8635 C.3       4 GLC5        0.0000 
     59 CA        -15.1150   27.3920  -91.8740 C.3      12 GLL5        0.0000 
     60 CA        -14.9860   29.2030  -95.8530 C.3       8 GLP5        0.0000 
     61 CA        -17.1520   27.6860  -92.5870 C.3       4 GLC5        0.0000 
     62 CA        -19.1890   27.9800  -93.3000 C.3       8 GLP5        0.0000 
     63 CA        -16.7310   27.9105  -90.6440 C.3       4 GLC5        0.0000 
     64 CA        -18.3470   28.4290  -89.4140 C.3       8 GLP5        0.0000 
     65 O         -16.3960   28.8600  -90.1025 O.2       1 ALC1        0.0000 
     66 O         -15.5160   28.5140  -91.2940 O.2       9 ALL1        0.0000 
     67 O         -17.2760   29.2060  -88.9110 O.2       5 ALP1        0.0000 
     68 N         -16.3585   27.8630  -94.3345 N.am      2 SEC2        0.0000 
     69 N         -15.3810   27.1840  -93.2110 N.am     10 SEL2        0.0000 
     70 N         -17.3360   28.5420  -95.4580 N.am      6 SEP2        0.0000 
     71 CA        -15.2385   23.9705  -93.3295 C.3       4 GLC5        0.0000 
     72 CA        -14.9610   26.0190  -93.8250 C.3      12 GLL5        0.0000 
     73 CA        -15.8600   25.6520  -95.5820 C.3       4 GLC5        0.0000 
     74 CA        -16.7590   25.2850  -97.3390 C.3       8 GLP5        0.0000 
     75 CA        -13.2745   26.4750  -94.3435 C.3       4 GLC5        0.0000 
     76 CA        -11.5880   26.9310  -94.8620 C.3       8 GLP5        0.0000 
     77 CA        -14.9735   27.6110  -94.8390 C.3       4 GLC5        0.0000 
     78 CA        -14.7695   23.5945  -92.3000 C.3       4 GLC5        0.0000 
     79 CA        -14.0230   25.2670  -91.7660 C.3      12 GLL5        0.0000 
     80 CA        -12.8055   26.0990  -93.3140 C.3       4 GLC5        0.0000 
     81 CA        -11.9280   17.3215  -88.4555 C.3       4 GLC5        0.0000 
     82 CA        -10.0750   16.7810  -87.7230 C.3       8 GLP5        0.0000 
     83 CA        -10.7015   20.9440  -88.7250 C.3       4 GLC5        0.0000 
     84 CA        -11.4400   21.5190  -90.1260 C.3      12 GLL5        0.0000 
     85 CA         -9.1030   20.6510  -87.7030 C.3       8 GLP5        0.0000 
     86 CA        -11.5478   25.1492  -91.0950 C.3       4 GLC5        0.0000 
     87 CA        -10.9640   27.2010  -91.4520 C.3       8 GLP5        0.0000 
@<TRIPOS>BOND
@<TRIPOS>SUBSTRUCTURE
     1 ALC1        1 GROUP        1 X    ALC  0     ROOT ALC X 1
     2 SEC2       27 GROUP        1 X    SEC  0     **** SEC X 2
     3 LYC4       24 GROUP        1 X    LYC  0     **** LYC X 4
     4 GLC5        6 GROUP        1 X    GLC  0     **** GLC X 6
     5 ALP1        3 GROUP        1 Y    ALP  0     ROOT ALP Y 8
     6 SEP2       29 GROUP        1 Y    SEP  0     **** SEP Y 9
     7 LYP4       26 GROUP        1 Y    LYP  0     **** LYP Y 11
     8 GLP5        8 GROUP        1 Y    GLP  0     **** GLP Y 13
     9 ALL1        2 GROUP        1 Z    ALL  0     ROOT ALL Z 15
    10 SEL2       28 GROUP        1 Z    SEL  0     **** SEL Z 16
    11 LYL4       25 GROUP        1 Z    LYL  0     **** LYL Z 18
    12 GLL5        7 GROUP        1 Z    GLL  0     **** GLL Z 20
@<TRIPOS>SET

