#    Name: 2v74_SAH_1_ligand
#    Modification time : Tue Mar 25 01:05:34 2014

@<TRIPOS>MOLECULE
2v74_SAH_1_ligand
   46    48     1     0     0
SMALL
NO_CHARGES


@<TRIPOS>ATOM
      1 N         -15.8040   16.9140  -90.6740 N.4       1 SAH1478     0.0000 
      2 CA        -14.4500   16.3890  -90.3380 C.3       1 SAH1478     0.0000 
      3 CB        -13.5270   17.4790  -89.7950 C.3       1 SAH1478     0.0000 
      4 CG        -14.0350   18.2450  -88.5810 C.3       1 SAH1478     0.0000 
      5 SD        -12.7750   19.3270  -87.8510 S.3       1 SAH1478     0.0000 
      6 C         -14.5600   15.2110  -89.3730 C.2       1 SAH1478     0.0000 
      7 O         -13.5740   14.5480  -89.0270 O.co2     1 SAH1478     0.0000 
      8 OXT       -15.6530   14.8860  -88.9210 O.co2     1 SAH1478     0.0000 
      9 C5'       -13.4200   20.8190  -88.6600 C.3       1 SAH1478     0.0000 
     10 C4'       -12.9000   21.0910  -90.0760 C.3       1 SAH1478     0.0000 
     11 O4'       -13.6450   22.1410  -90.6610 O.3       1 SAH1478     0.0000 
     12 C3'       -11.4400   21.5190  -90.1260 C.3       1 SAH1478     0.0000 
     13 O3'       -10.8290   20.8540  -91.2060 O.3       1 SAH1478     0.0000 
     14 C2'       -11.4700   23.0100  -90.3800 C.3       1 SAH1478     0.0000 
     15 O2'       -10.4250   23.4440  -91.2070 O.3       1 SAH1478     0.0000 
     16 C1'       -12.7930   23.1850  -91.0960 C.3       1 SAH1478     0.0000 
     17 N9        -13.3870   24.5050  -90.8300 N.pl3     1 SAH1478     0.0000 
     18 C8        -13.4090   25.1960  -89.6450 C.2       1 SAH1478     0.0000 
     19 N7        -14.0490   26.3680  -89.8440 N.2       1 SAH1478     0.0000 
     20 C5        -14.4330   26.4300  -91.1370 C.ar      1 SAH1478     0.0000 
     21 C6        -15.1150   27.3920  -91.8740 C.ar      1 SAH1478     0.0000 
     22 N6        -15.5160   28.5140  -91.2940 N.pl3     1 SAH1478     0.0000 
     23 N1        -15.3810   27.1840  -93.2110 N.ar      1 SAH1478     0.0000 
     24 C2        -14.9610   26.0190  -93.8250 C.ar      1 SAH1478     0.0000 
     25 N3        -14.2790   25.0650  -93.0830 N.ar      1 SAH1478     0.0000 
     26 C4        -14.0230   25.2670  -91.7660 C.ar      1 SAH1478     0.0000 
     27 H         -13.9914   16.0018  -91.2669 H         1 SAH1478     0.0000 
     28 H         -13.3155   18.2036  -90.6126 H         1 SAH1478     0.0000 
     29 H         -12.5457   17.0189  -89.5430 H         1 SAH1478     0.0000 
     30 H         -14.2999   17.6133  -87.7532 H         1 SAH1478     0.0000 
     31 H         -14.8252   18.9367  -88.8080 H         1 SAH1478     0.0000 
     32 H         -13.1536   21.5979  -87.9508 H         1 SAH1478     0.0000 
     33 H         -14.4933   20.6536  -88.6242 H         1 SAH1478     0.0000 
     34 H         -13.0047   20.1848  -90.6618 H         1 SAH1478     0.0000 
     35 H         -10.9980   21.3266  -89.1944 H         1 SAH1478     0.0000 
     36 H         -11.5374   23.5110  -89.4487 H         1 SAH1478     0.0000 
     37 H         -12.5948   23.0841  -92.1643 H         1 SAH1478     0.0000 
     38 H         -13.0285   24.8864  -88.8177 H         1 SAH1478     0.0000 
     39 H         -16.1931   28.4148  -90.5649 H         1 SAH1478     0.0000 
     40 H         -15.1052   29.3584  -91.6380 H         1 SAH1478     0.0000 
     41 H         -15.1506   25.8586  -94.8206 H         1 SAH1478     0.0000 
     42 H         -16.4273   16.8601  -89.8940 H         1 SAH1478     0.0000 
     43 H         -15.7710   17.8725  -90.9571 H         1 SAH1478     0.0000 
     44 H         -16.2258   16.4018  -91.4221 H         1 SAH1478     0.0000 
     45 H         -11.4410   21.0049  -91.9823 H         1 SAH1478     0.0000 
     46 H         -10.6260   23.0523  -92.1049 H         1 SAH1478     0.0000 
@<TRIPOS>BOND
     1    2    1 1    
     2   42    1 1    
     3   43    1 1    
     4   44    1 1    
     5    3    2 1    
     6    6    2 1    
     7   27    2 1    
     8    4    3 1    
     9   28    3 1    
    10   29    3 1    
    11    5    4 1    
    12   30    4 1    
    13   31    4 1    
    14    9    5 1    
    15    7    6 ar   
    16    8    6 ar   
    17   10    9 1    
    18   32    9 1    
    19   33    9 1    
    20   11   10 1    
    21   12   10 1    
    22   34   10 1    
    23   16   11 1    
    24   13   12 1    
    25   14   12 1    
    26   35   12 1    
    27   45   13 1    
    28   15   14 1    
    29   16   14 1    
    30   36   14 1    
    31   46   15 1    
    32   17   16 1    
    33   37   16 1    
    34   18   17 1    
    35   26   17 1    
    36   19   18 2    
    37   38   18 1    
    38   20   19 1    
    39   21   20 ar   
    40   26   20 ar   
    41   22   21 1    
    42   23   21 ar   
    43   39   22 1    
    44   40   22 1    
    45   24   23 ar   
    46   25   24 ar   
    47   41   24 1    
    48   26   25 ar   
@<TRIPOS>SUBSTRUCTURE
     1 SAH1478     1 GROUP   
@<TRIPOS>SET

