#    Name: 2Y1W_3_CAVITY_N1_ALL.mol2
#    Modification time : Tue Mar 11 01:55:00 2014

@<TRIPOS>MOLECULE
2Y1W_3_CAVITY_N1_ALL.mol2
  189     0     6     0     0
SMALL
NO_CHARGES


@<TRIPOS>ATOM
      1 NZ         23.5152  -19.1028  -18.2823 N.2       3 LYS4        0.0000 
      2 CA         24.9485  -19.4800  -18.5132 C.3       5 GLY6        0.0000 
      3 N          23.1559  -20.5525  -18.1440 N.2       2 ALA2        0.0000 
      4 OG         24.5892  -20.9298  -18.3749 O.2       1 SER1        0.0000 
      5 NZ         24.2299  -22.3795  -18.2366 N.2       3 LYS4        0.0000 
      6 CZ         31.3965  -24.2657  -19.3909 C.ar      4 PHE5        0.0000 
      7 CZ         32.8298  -24.6430  -19.6218 C.ar      4 PHE5        0.0000 
      8 CZ         31.0372  -25.7155  -19.2526 C.ar      4 PHE5        0.0000 
      9 CA         32.4705  -26.0927  -19.4835 C.3       5 GLY6        0.0000 
     10 CZ         30.6779  -27.1653  -19.1144 C.ar      4 PHE5        0.0000 
     11 CA         32.1112  -27.5425  -19.3452 C.3       5 GLY6        0.0000 
     12 CA         28.2758  -17.4118  -20.7272 C.3       5 GLY6        0.0000 
     13 O          29.7091  -17.7891  -20.9580 O.2       2 ALA2        0.0000 
     14 CA         26.4832  -18.4844  -20.3580 C.3       5 GLY6        0.0000 
     15 OG         27.9165  -18.8616  -20.5889 O.2       1 SER1        0.0000 
     16 CZ         29.3498  -19.2388  -20.8197 C.ar      4 PHE5        0.0000 
     17 OG         24.6906  -19.5569  -19.9888 O.2       1 SER1        0.0000 
     18 OG         28.9905  -20.6886  -20.6814 O.2       1 SER1        0.0000 
     19 NZ         22.8980  -20.6294  -19.6197 N.2       3 LYS4        0.0000 
     20 OG         24.3313  -21.0066  -19.8505 O.2       1 SER1        0.0000 
     21 CZ         30.0645  -22.5156  -20.7740 C.ar      4 PHE5        0.0000 
     22 CZ         31.4978  -22.8928  -21.0049 C.ar      4 PHE5        0.0000 
     23 CZ         32.9312  -23.2701  -21.2358 C.ar      4 PHE5        0.0000 
     24 CZ         29.7052  -23.9653  -20.6357 C.ar      4 PHE5        0.0000 
     25 CZ         31.1385  -24.3426  -20.8666 C.ar      4 PHE5        0.0000 
     26 CZ         32.5719  -24.7198  -21.0975 C.ar      4 PHE5        0.0000 
     27 N          23.7731  -19.0259  -16.8066 N.2       2 ALA2        0.0000 
     28 CA         25.2064  -19.4032  -17.0375 C.3       5 GLY6        0.0000 
     29 N          23.4138  -20.4757  -16.6684 N.2       2 ALA2        0.0000 
     30 CZ         24.8471  -20.8529  -16.8992 C.ar      4 PHE5        0.0000 
     31 CA         24.4878  -22.3027  -16.7609 C.3       5 GLY6        0.0000 
     32 O          31.3452  -15.4205  -24.4168 O.2       2 ALA2        0.0000 
     33 O          29.5526  -16.4930  -24.0476 O.2       2 ALA2        0.0000 
     34 O          30.9859  -16.8703  -24.2785 O.2       2 ALA2        0.0000 
     35 DU         32.4192  -17.2475  -24.5094 H         6 CUB7        0.0000 
     36 CA         29.1933  -17.9428  -23.9094 C.3       5 GLY6        0.0000 
     37 OG         30.6266  -18.3200  -24.1402 O.2       1 SER1        0.0000 
     38 OG         32.0599  -18.6973  -24.3711 O.2       1 SER1        0.0000 
     39 N          25.9674  -18.6380  -23.3093 N.2       2 ALA2        0.0000 
     40 CA         27.4007  -19.0153  -23.5402 C.3       5 GLY6        0.0000 
     41 OG         28.8340  -19.3925  -23.7711 O.2       1 SER1        0.0000 
     42 OG         30.2673  -19.7698  -24.0019 O.2       1 SER1        0.0000 
     43 OG         31.7006  -20.1470  -24.2328 O.2       1 SER1        0.0000 
     44 DU         33.1339  -20.5243  -24.4637 H         6 CUB7        0.0000 
     45 NZ         25.6081  -20.0878  -23.1710 N.2       3 LYS4        0.0000 
     46 NZ         27.0414  -20.4650  -23.4019 N.2       3 LYS4        0.0000 
     47 NZ         28.4747  -20.8423  -23.6328 N.2       3 LYS4        0.0000 
     48 DU         29.9080  -21.2195  -23.8636 H         6 CUB7        0.0000 
     49 DU         31.3413  -21.5968  -24.0945 H         6 CUB7        0.0000 
     50 DU         32.7746  -21.9740  -24.3254 H         6 CUB7        0.0000 
     51 NZ         28.1154  -22.2920  -23.4945 N.2       3 LYS4        0.0000 
     52 DU         29.5487  -22.6693  -23.7253 H         6 CUB7        0.0000 
     53 DU         30.9820  -23.0465  -23.9562 H         6 CUB7        0.0000 
     54 DU         32.4153  -23.4238  -24.1871 H         6 CUB7        0.0000 
     55 O          29.1894  -24.1190  -23.5871 O.2       2 ALA2        0.0000 
     56 DU         30.6227  -24.4963  -23.8179 H         6 CUB7        0.0000 
     57 DU         32.0560  -24.8735  -24.0488 H         6 CUB7        0.0000 
     58 O          28.8301  -25.5688  -23.4488 O.2       2 ALA2        0.0000 
     59 O          30.2634  -25.9460  -23.6796 O.2       2 ALA2        0.0000 
     60 N          31.6967  -26.3233  -23.9105 N.2       2 ALA2        0.0000 
     61 O          28.4708  -27.0185  -23.3105 O.2       2 ALA2        0.0000 
     62 N          29.9041  -27.3958  -23.5413 N.2       2 ALA2        0.0000 
     63 N          31.3374  -27.7730  -23.7722 N.2       2 ALA2        0.0000 
     64 N          28.1115  -28.4683  -23.1722 N.2       2 ALA2        0.0000 
     65 N          29.5448  -28.8455  -23.4030 N.2       2 ALA2        0.0000 
     66 N          30.9781  -29.2228  -23.6339 N.2       2 ALA2        0.0000 
     67 NZ         24.9023  -23.5219  -12.1957 N.2       3 LYS4        0.0000 
     68 CA         21.6763  -24.2172  -11.5956 C.3       5 GLY6        0.0000 
     69 CA         23.1097  -24.5944  -11.8265 C.3       5 GLY6        0.0000 
     70 CZ         24.5430  -24.9716  -12.0574 C.ar      4 PHE5        0.0000 
     71 O          21.3170  -25.6669  -11.4573 O.2       2 ALA2        0.0000 
     72 CZ         22.7504  -26.0442  -11.6882 C.ar      4 PHE5        0.0000 
     73 CZ         24.1837  -26.4214  -11.9191 C.ar      4 PHE5        0.0000 
     74 CA         20.9577  -27.1167  -11.3190 C.3       5 GLY6        0.0000 
     75 O          22.3911  -27.4939  -11.5499 O.2       2 ALA2        0.0000 
     76 CZ         23.8244  -27.8712  -11.7808 C.ar      4 PHE5        0.0000 
     77 CA         23.4651  -29.3209  -11.6425 C.3       5 GLY6        0.0000 
     78 CZ         32.8799  -14.4249  -26.2616 C.ar      4 PHE5        0.0000 
     79 CZ         31.0873  -15.4974  -25.8925 C.ar      4 PHE5        0.0000 
     80 CZ         32.5206  -15.8746  -26.1233 C.ar      4 PHE5        0.0000 
     81 N          29.2947  -16.5699  -25.5233 N.2       2 ALA2        0.0000 
     82 OG         30.7280  -16.9471  -25.7542 O.2       1 SER1        0.0000 
     83 N          27.5020  -17.6424  -25.1541 N.2       2 ALA2        0.0000 
     84 OG         28.9354  -18.0196  -25.3850 O.2       1 SER1        0.0000 
     85 OG         31.8020  -18.7741  -25.8468 O.2       1 SER1        0.0000 
     86 CZ         27.1428  -19.0921  -25.0159 C.ar      4 PHE5        0.0000 
     87 CZ         28.5761  -19.4694  -25.2467 C.ar      4 PHE5        0.0000 
     88 OG         31.4427  -20.2239  -25.7085 O.2       1 SER1        0.0000 
     89 CZ         26.7835  -20.5419  -24.8776 C.ar      4 PHE5        0.0000 
     90 CZ         28.2168  -20.9191  -25.1084 C.ar      4 PHE5        0.0000 
     91 CZ         29.6501  -21.2964  -25.3393 C.ar      4 PHE5        0.0000 
     92 CZ         31.0834  -21.6736  -25.5702 C.ar      4 PHE5        0.0000 
     93 DU         32.5167  -22.0509  -25.8010 H         6 CUB7        0.0000 
     94 CZ         27.8575  -22.3689  -24.9701 C.ar      4 PHE5        0.0000 
     95 CZ         29.2908  -22.7461  -25.2010 C.ar      4 PHE5        0.0000 
     96 CZ         30.7241  -23.1234  -25.4319 C.ar      4 PHE5        0.0000 
     97 DU         32.1574  -23.5006  -25.6627 H         6 CUB7        0.0000 
     98 O          28.9315  -24.1959  -25.0627 O.2       2 ALA2        0.0000 
     99 O          30.3648  -24.5731  -25.2936 O.2       2 ALA2        0.0000 
    100 N          31.7981  -24.9504  -25.5245 N.2       2 ALA2        0.0000 
    101 N          30.0055  -26.0229  -25.1553 N.2       2 ALA2        0.0000 
    102 N          29.6462  -27.4726  -25.0170 N.2       2 ALA2        0.0000 
    103 CA         22.1409  -15.2182  -13.6702 C.3       5 GLY6        0.0000 
    104 CA         23.5742  -15.5955  -13.9010 C.3       5 GLY6        0.0000 
    105 N          21.7816  -16.6680  -13.5319 N.2       2 ALA2        0.0000 
    106 N          23.2149  -17.0452  -13.7627 N.2       2 ALA2        0.0000 
    107 N          24.6482  -17.4225  -13.9936 N.2       2 ALA2        0.0000 
    108 N          24.2889  -18.8722  -13.8553 N.2       2 ALA2        0.0000 
    109 O          25.7222  -19.2495  -14.0862 O.2       2 ALA2        0.0000 
    110 N          23.9296  -20.3220  -13.7170 N.2       2 ALA2        0.0000 
    111 NZ         25.3629  -20.6992  -13.9479 N.2       3 LYS4        0.0000 
    112 CA         23.5703  -21.7717  -13.5787 C.3       5 GLY6        0.0000 
    113 NZ         25.0036  -22.1490  -13.8096 N.2       3 LYS4        0.0000 
    114 CZ         26.4370  -22.5262  -14.0405 C.ar      4 PHE5        0.0000 
    115 CA         23.2110  -23.2215  -13.4404 C.3       5 GLY6        0.0000 
    116 CZ         24.6443  -23.5987  -13.6713 C.ar      4 PHE5        0.0000 
    117 CZ         26.0777  -23.9760  -13.9022 C.ar      4 PHE5        0.0000 
    118 CA         22.8517  -24.6712  -13.3022 C.3       5 GLY6        0.0000 
    119 CZ         24.2851  -25.0485  -13.5330 C.ar      4 PHE5        0.0000 
    120 CA         21.0591  -25.7438  -12.9330 C.3       5 GLY6        0.0000 
    121 DU         22.4924  -26.1210  -13.1639 H         6 CUB7        0.0000 
    122 CZ         23.9258  -26.4982  -13.3947 C.ar      4 PHE5        0.0000 
    123 CA         20.6998  -27.1935  -12.7947 C.3       5 GLY6        0.0000 
    124 OG         22.1331  -27.5707  -13.0256 O.2       1 SER1        0.0000 
    125 CZ         23.5665  -27.9480  -13.2564 C.ar      4 PHE5        0.0000 
    126 NZ         21.7738  -29.0205  -12.8873 N.2       3 LYS4        0.0000 
    127 CZ         23.2072  -29.3977  -13.1181 C.ar      4 PHE5        0.0000 
    128 CZ         29.3459  -25.4151  -20.4974 C.ar      4 PHE5        0.0000 
    129 CZ         30.7792  -25.7923  -20.7283 C.ar      4 PHE5        0.0000 
    130 DU         32.2126  -26.1696  -20.9592 H         6 CUB7        0.0000 
    131 CZ         30.4199  -27.2421  -20.5900 C.ar      4 PHE5        0.0000 
    132 DU         31.8533  -27.6193  -20.8209 H         6 CUB7        0.0000 
    133 CZ         30.0607  -28.6918  -20.4517 C.ar      4 PHE5        0.0000 
    134 N          31.4940  -29.0691  -20.6826 N.2       2 ALA2        0.0000 
    135 OG         29.7014  -30.1416  -20.3134 O.2       1 SER1        0.0000 
    136 O          33.0364  -15.7209  -23.1720 O.2       2 ALA2        0.0000 
    137 O          32.6771  -17.1707  -23.0337 O.2       2 ALA2        0.0000 
    138 CA         28.0179  -17.4887  -22.2028 C.3       5 GLY6        0.0000 
    139 O          29.4512  -17.8659  -22.4337 O.2       2 ALA2        0.0000 
    140 O          30.8845  -18.2432  -22.6646 O.2       2 ALA2        0.0000 
    141 CZ         32.3178  -18.6204  -22.8954 C.ar      4 PHE5        0.0000 
    142 N          26.2253  -18.5612  -21.8337 N.2       2 ALA2        0.0000 
    143 N          27.6586  -18.9384  -22.0645 N.2       2 ALA2        0.0000 
    144 CZ         29.0919  -19.3157  -22.2954 C.ar      4 PHE5        0.0000 
    145 CZ         30.5252  -19.6929  -22.5263 C.ar      4 PHE5        0.0000 
    146 CZ         31.9585  -20.0702  -22.7571 C.ar      4 PHE5        0.0000 
    147 CZ         33.3918  -20.4474  -22.9880 C.ar      4 PHE5        0.0000 
    148 NZ         25.8660  -20.0109  -21.6954 N.2       3 LYS4        0.0000 
    149 NZ         27.2993  -20.3882  -21.9262 N.2       3 LYS4        0.0000 
    150 NZ         28.7326  -20.7654  -22.1571 N.2       3 LYS4        0.0000 
    151 CZ         30.1659  -21.1427  -22.3880 C.ar      4 PHE5        0.0000 
    152 CZ         31.5992  -21.5199  -22.6188 C.ar      4 PHE5        0.0000 
    153 CZ         33.0325  -21.8972  -22.8497 C.ar      4 PHE5        0.0000 
    154 NZ         28.3733  -22.2152  -22.0188 N.2       3 LYS4        0.0000 
    155 CZ         29.8066  -22.5924  -22.2497 C.ar      4 PHE5        0.0000 
    156 CZ         31.2399  -22.9697  -22.4806 C.ar      4 PHE5        0.0000 
    157 CZ         32.6732  -23.3469  -22.7114 C.ar      4 PHE5        0.0000 
    158 NZ         29.4473  -24.0422  -22.1114 N.2       3 LYS4        0.0000 
    159 DU         30.8806  -24.4194  -22.3423 H         6 CUB7        0.0000 
    160 DU         32.3139  -24.7967  -22.5731 H         6 CUB7        0.0000 
    161 CA         29.0880  -25.4919  -21.9731 C.3       5 GLY6        0.0000 
    162 DU         30.5213  -25.8692  -22.2040 H         6 CUB7        0.0000 
    163 CA         28.7287  -26.9417  -21.8348 C.3       5 GLY6        0.0000 
    164 DU         30.1620  -27.3189  -22.0657 H         6 CUB7        0.0000 
    165 DU         31.5953  -27.6962  -22.2965 H         6 CUB7        0.0000 
    166 CZ         28.3694  -28.3914  -21.6965 C.ar      4 PHE5        0.0000 
    167 N          29.8027  -28.7687  -21.9274 N.2       2 ALA2        0.0000 
    168 DU         31.2360  -29.1459  -22.1583 H         6 CUB7        0.0000 
    169 N          29.4434  -30.2184  -21.7891 N.2       2 ALA2        0.0000 
    170 N          30.8768  -30.5957  -22.0200 N.2       2 ALA2        0.0000 
    171 O          23.3676  -24.5176  -10.3508 O.2       2 ALA2        0.0000 
    172 O          21.5750  -25.5901   -9.9817 O.2       2 ALA2        0.0000 
    173 CA         23.0083  -25.9673  -10.2125 C.3       5 GLY6        0.0000 
    174 CA         22.6490  -27.4171  -10.0742 C.3       5 GLY6        0.0000 
    175 O          22.9570  -17.1221  -15.2384 O.2       2 ALA2        0.0000 
    176 CA         24.3903  -17.4993  -15.4693 C.3       5 GLY6        0.0000 
    177 N          22.5977  -18.5718  -15.1001 N.2       2 ALA2        0.0000 
    178 N          24.0310  -18.9491  -15.3310 N.2       2 ALA2        0.0000 
    179 CA         25.4643  -19.3263  -15.5619 C.3       5 GLY6        0.0000 
    180 N          22.2384  -20.0216  -14.9618 N.2       2 ALA2        0.0000 
    181 N          23.6717  -20.3988  -15.1927 N.2       2 ALA2        0.0000 
    182 CZ         25.1050  -20.7761  -15.4236 C.ar      4 PHE5        0.0000 
    183 CA         23.3124  -21.8486  -15.0544 C.3       5 GLY6        0.0000 
    184 CA         24.7457  -22.2258  -15.2853 C.3       5 GLY6        0.0000 
    185 OG         24.3864  -23.6756  -15.1470 O.2       1 SER1        0.0000 
    186 OG         24.0271  -25.1253  -15.0087 O.2       1 SER1        0.0000 
    187 OG         21.8752  -27.6476  -14.5012 O.2       1 SER1        0.0000 
    188 CZ         23.3085  -28.0248  -14.7321 C.ar      4 PHE5        0.0000 
    189 CZ         24.7419  -28.4021  -14.9630 C.ar      4 PHE5        0.0000 
@<TRIPOS>BOND
@<TRIPOS>SUBSTRUCTURE
     1 SER1        4 GROUP   
     2 ALA2        3 GROUP   
     3 LYS4        1 GROUP   
     4 PHE5        6 GROUP   
     5 GLY6        2 GROUP   
     6 CUB7       35 GROUP   
@<TRIPOS>SET

