#    Name: 2Y1W_3_CAVITY_N1_6.mol2
#    Modification time : Tue Mar 11 01:55:00 2014

@<TRIPOS>MOLECULE
2Y1W_3_CAVITY_N1_6.mol2
   74     0     6     0     0
SMALL
NO_CHARGES


@<TRIPOS>ATOM
      1 NZ         23.5152  -19.1028  -18.2823 N.2       3 LYS4        0.0000 
      2 CA         24.9485  -19.4800  -18.5132 C.3       5 GLY6        0.0000 
      3 N          23.1559  -20.5525  -18.1440 N.2       2 ALA2        0.0000 
      4 OG         24.5892  -20.9298  -18.3749 O.2       1 SER1        0.0000 
      5 NZ         24.2299  -22.3795  -18.2366 N.2       3 LYS4        0.0000 
      6 CA         28.2758  -17.4118  -20.7272 C.3       5 GLY6        0.0000 
      7 CA         26.4832  -18.4844  -20.3580 C.3       5 GLY6        0.0000 
      8 OG         27.9165  -18.8616  -20.5889 O.2       1 SER1        0.0000 
      9 OG         24.6906  -19.5569  -19.9888 O.2       1 SER1        0.0000 
     10 NZ         22.8980  -20.6294  -19.6197 N.2       3 LYS4        0.0000 
     11 OG         24.3313  -21.0066  -19.8505 O.2       1 SER1        0.0000 
     12 N          23.7731  -19.0259  -16.8066 N.2       2 ALA2        0.0000 
     13 CA         25.2064  -19.4032  -17.0375 C.3       5 GLY6        0.0000 
     14 N          23.4138  -20.4757  -16.6684 N.2       2 ALA2        0.0000 
     15 CZ         24.8471  -20.8529  -16.8992 C.ar      4 PHE5        0.0000 
     16 CA         24.4878  -22.3027  -16.7609 C.3       5 GLY6        0.0000 
     17 NZ         24.9023  -23.5219  -12.1957 N.2       3 LYS4        0.0000 
     18 CA         21.6763  -24.2172  -11.5956 C.3       5 GLY6        0.0000 
     19 CA         23.1097  -24.5944  -11.8265 C.3       5 GLY6        0.0000 
     20 CZ         24.5430  -24.9716  -12.0574 C.ar      4 PHE5        0.0000 
     21 O          21.3170  -25.6669  -11.4573 O.2       2 ALA2        0.0000 
     22 CZ         22.7504  -26.0442  -11.6882 C.ar      4 PHE5        0.0000 
     23 CZ         24.1837  -26.4214  -11.9191 C.ar      4 PHE5        0.0000 
     24 CA         20.9577  -27.1167  -11.3190 C.3       5 GLY6        0.0000 
     25 O          22.3911  -27.4939  -11.5499 O.2       2 ALA2        0.0000 
     26 CZ         23.8244  -27.8712  -11.7808 C.ar      4 PHE5        0.0000 
     27 CA         23.4651  -29.3209  -11.6425 C.3       5 GLY6        0.0000 
     28 CA         22.1409  -15.2182  -13.6702 C.3       5 GLY6        0.0000 
     29 CA         23.5742  -15.5955  -13.9010 C.3       5 GLY6        0.0000 
     30 N          21.7816  -16.6680  -13.5319 N.2       2 ALA2        0.0000 
     31 N          23.2149  -17.0452  -13.7627 N.2       2 ALA2        0.0000 
     32 N          24.6482  -17.4225  -13.9936 N.2       2 ALA2        0.0000 
     33 N          24.2889  -18.8722  -13.8553 N.2       2 ALA2        0.0000 
     34 O          25.7222  -19.2495  -14.0862 O.2       2 ALA2        0.0000 
     35 N          23.9296  -20.3220  -13.7170 N.2       2 ALA2        0.0000 
     36 NZ         25.3629  -20.6992  -13.9479 N.2       3 LYS4        0.0000 
     37 CA         23.5703  -21.7717  -13.5787 C.3       5 GLY6        0.0000 
     38 NZ         25.0036  -22.1490  -13.8096 N.2       3 LYS4        0.0000 
     39 CZ         26.4370  -22.5262  -14.0405 C.ar      4 PHE5        0.0000 
     40 CA         23.2110  -23.2215  -13.4404 C.3       5 GLY6        0.0000 
     41 CZ         24.6443  -23.5987  -13.6713 C.ar      4 PHE5        0.0000 
     42 CZ         26.0777  -23.9760  -13.9022 C.ar      4 PHE5        0.0000 
     43 CA         22.8517  -24.6712  -13.3022 C.3       5 GLY6        0.0000 
     44 CZ         24.2851  -25.0485  -13.5330 C.ar      4 PHE5        0.0000 
     45 CA         21.0591  -25.7438  -12.9330 C.3       5 GLY6        0.0000 
     46 DU         22.4924  -26.1210  -13.1639 H         6 CUB7        0.0000 
     47 CZ         23.9258  -26.4982  -13.3947 C.ar      4 PHE5        0.0000 
     48 CA         20.6998  -27.1935  -12.7947 C.3       5 GLY6        0.0000 
     49 OG         22.1331  -27.5707  -13.0256 O.2       1 SER1        0.0000 
     50 CZ         23.5665  -27.9480  -13.2564 C.ar      4 PHE5        0.0000 
     51 NZ         21.7738  -29.0205  -12.8873 N.2       3 LYS4        0.0000 
     52 CZ         23.2072  -29.3977  -13.1181 C.ar      4 PHE5        0.0000 
     53 N          26.2253  -18.5612  -21.8337 N.2       2 ALA2        0.0000 
     54 NZ         25.8660  -20.0109  -21.6954 N.2       3 LYS4        0.0000 
     55 NZ         27.2993  -20.3882  -21.9262 N.2       3 LYS4        0.0000 
     56 O          23.3676  -24.5176  -10.3508 O.2       2 ALA2        0.0000 
     57 O          21.5750  -25.5901   -9.9817 O.2       2 ALA2        0.0000 
     58 CA         23.0083  -25.9673  -10.2125 C.3       5 GLY6        0.0000 
     59 CA         22.6490  -27.4171  -10.0742 C.3       5 GLY6        0.0000 
     60 O          22.9570  -17.1221  -15.2384 O.2       2 ALA2        0.0000 
     61 CA         24.3903  -17.4993  -15.4693 C.3       5 GLY6        0.0000 
     62 N          22.5977  -18.5718  -15.1001 N.2       2 ALA2        0.0000 
     63 N          24.0310  -18.9491  -15.3310 N.2       2 ALA2        0.0000 
     64 CA         25.4643  -19.3263  -15.5619 C.3       5 GLY6        0.0000 
     65 N          22.2384  -20.0216  -14.9618 N.2       2 ALA2        0.0000 
     66 N          23.6717  -20.3988  -15.1927 N.2       2 ALA2        0.0000 
     67 CZ         25.1050  -20.7761  -15.4236 C.ar      4 PHE5        0.0000 
     68 CA         23.3124  -21.8486  -15.0544 C.3       5 GLY6        0.0000 
     69 CA         24.7457  -22.2258  -15.2853 C.3       5 GLY6        0.0000 
     70 OG         24.3864  -23.6756  -15.1470 O.2       1 SER1        0.0000 
     71 OG         24.0271  -25.1253  -15.0087 O.2       1 SER1        0.0000 
     72 OG         21.8752  -27.6476  -14.5012 O.2       1 SER1        0.0000 
     73 CZ         23.3085  -28.0248  -14.7321 C.ar      4 PHE5        0.0000 
     74 CZ         24.7419  -28.4021  -14.9630 C.ar      4 PHE5        0.0000 
@<TRIPOS>BOND
@<TRIPOS>SUBSTRUCTURE
     1 SER1        4 GROUP   
     2 ALA2        3 GROUP   
     3 LYS4        1 GROUP   
     4 PHE5       15 GROUP   
     5 GLY6        2 GROUP   
     6 CUB7       46 GROUP   
@<TRIPOS>SET

