#    Name: 2y1w_SFG_3_INTS_M
#    Modification time : Tue Mar 25 07:24:58 2014

@<TRIPOS>MOLECULE
2y1w_SFG_3_INTS_M
   93     0    12     0     0
SMALL
NO_CHARGES


@<TRIPOS>ATOM
      1 O          21.7160  -18.2615  -12.7290 O.2       1 ALC1        0.0000 
      2 O          21.4160  -16.9700  -13.3600 O.2       9 ALL1        0.0000 
      3 O          22.0160  -19.5530  -12.0980 O.2       5 ALP1        0.0000 
      4 O          21.1310  -16.1530  -12.0505 O.2       1 ALC1        0.0000 
      5 O          20.8460  -15.3360  -10.7410 O.2       5 ALP1        0.0000 
      6 CA         22.3220  -17.3670  -11.5995 C.3       4 GLC5        0.0000 
      7 CA         22.8100  -16.4200  -13.5550 C.3      12 GLL5        0.0000 
      8 CA         21.8340  -18.3140   -9.6440 C.3       8 GLP5        0.0000 
      9 CA         22.6605  -14.3250  -13.0250 C.3       4 GLC5        0.0000 
     10 CA         22.5110  -12.2300  -12.4950 C.3       8 GLP5        0.0000 
     11 NZ         22.0420  -14.6620  -16.3130 N.4       3 LYC4        0.0000 
     12 NZ         21.6010  -14.8460  -14.9220 N.4      11 LYL4        0.0000 
     13 NZ         23.0050  -13.2610  -17.8760 N.4       7 LYP4        0.0000 
     14 N          22.0420  -14.6620  -16.3130 N.am      2 SEC2        0.0000 
     15 N          21.6010  -14.8460  -14.9220 N.am     10 SEL2        0.0000 
     16 N          22.4830  -14.4780  -17.7040 N.am      6 SEP2        0.0000 
     17 NZ         23.5865  -13.5065  -15.6520 N.4       3 LYC4        0.0000 
     18 NZ         23.7730  -14.4790  -14.4630 N.4      11 LYL4        0.0000 
     19 N          23.1280  -14.4785  -16.0835 N.am      2 SEC2        0.0000 
     20 N          23.7730  -14.4790  -14.4630 N.am     10 SEL2        0.0000 
     21 N          23.5865  -13.5065  -15.6520 N.am      2 SEC2        0.0000 
     22 N          23.4000  -12.5340  -16.8410 N.am      6 SEP2        0.0000 
     23 CA         25.4685  -17.1535  -15.2535 C.3       4 GLC5        0.0000 
     24 CA         23.7100  -17.4910  -14.1950 C.3      12 GLL5        0.0000 
     25 CA         27.2270  -16.8160  -16.3120 C.3       8 GLP5        0.0000 
     26 CA         21.3320  -17.6290  -16.4340 C.3       4 GLC5        0.0000 
     27 CA         23.0620  -18.2020  -15.3900 C.3      12 GLL5        0.0000 
     28 CA         19.6020  -17.0560  -17.4780 C.3       8 GLP5        0.0000 
     29 CA         22.7100  -22.0740  -16.0945 C.3       4 GLC5        0.0000 
     30 CA         23.8630  -20.6570  -15.7130 C.3      12 GLL5        0.0000 
     31 CA         21.5570  -23.4910  -16.4760 C.3       8 GLP5        0.0000 
     32 CA         22.8845  -21.3725  -12.7505 C.3       4 GLC5        0.0000 
     33 CA         24.1950  -21.0080  -14.2160 C.3      12 GLL5        0.0000 
     34 CA         21.5740  -21.7370  -11.2850 C.3       8 GLP5        0.0000 
     35 CA         22.4450  -21.9935  -14.6220 C.3       4 GLC5        0.0000 
     36 CA         20.6950  -22.9790  -15.0280 C.3       8 GLP5        0.0000 
     37 CA         27.2660  -21.5580  -14.6395 C.3       4 GLC5        0.0000 
     38 CA         25.7210  -21.2760  -13.8910 C.3      12 GLL5        0.0000 
     39 CA         28.8110  -21.8400  -15.3880 C.3       8 GLP5        0.0000 
     40 N          27.2025  -19.3690  -12.7635 N.am      2 SEC2        0.0000 
     41 N          26.1380  -20.5720  -12.7060 N.am     10 SEL2        0.0000 
     42 N          28.2670  -18.1660  -12.8210 N.am      6 SEP2        0.0000 
     43 O          25.4990  -20.7560  -11.4695 O.2       1 ALC1        0.0000 
     44 O          26.1380  -20.5720  -12.7060 O.2       9 ALL1        0.0000 
     45 O          24.8600  -20.9400  -10.2330 O.2       5 ALP1        0.0000 
     46 CA         27.0915  -22.8840  -14.8575 C.3       4 GLC5        0.0000 
     47 CA         25.7690  -22.7770  -13.6400 C.3      12 GLL5        0.0000 
     48 CA         28.4140  -22.9910  -16.0750 C.3       8 GLP5        0.0000 
     49 O          26.7355  -22.7645  -11.5465 O.2       1 ALC1        0.0000 
     50 O          26.8340  -23.2800  -12.8360 O.2       9 ALL1        0.0000 
     51 O          26.6370  -22.2490  -10.2570 O.2       5 ALP1        0.0000 
     52 CA         22.9565  -22.3695  -12.1785 C.3       4 GLC5        0.0000 
     53 CA         24.3390  -23.0020  -13.0720 C.3      12 GLL5        0.0000 
     54 CA         22.5170  -22.9905  -14.0500 C.3       4 GLC5        0.0000 
     55 CA         24.0475  -27.1875  -10.5745 C.3       4 GLC5        0.0000 
     56 CA         22.3590  -27.3960  -11.9640 C.3      12 GLL5        0.0000 
     57 CA         25.7360  -26.9790   -9.1850 C.3       8 GLP5        0.0000 
     58 CA         22.4830  -28.2900  -10.0830 C.3       4 GLC5        0.0000 
     59 CA         22.6070  -29.1840   -8.2020 C.3       8 GLP5        0.0000 
     60 CA         20.2565  -27.7675  -11.3535 C.3       4 GLC5        0.0000 
     61 CA         18.1540  -28.1390  -10.7430 C.3       8 GLP5        0.0000 
     62 CA         20.5555  -27.8350  -13.2090 C.3       4 GLC5        0.0000 
     63 CA         18.7520  -28.2740  -14.4540 C.3       8 GLP5        0.0000 
     64 O          21.1480  -29.7270  -11.8630 O.2       1 ALC1        0.0000 
     65 O          21.9390  -28.6610  -12.3330 O.2       9 ALL1        0.0000 
     66 O          20.3570  -30.7930  -11.3930 O.2       5 ALP1        0.0000 
     67 N          21.2575  -27.7380   -9.6475 N.am      2 SEC2        0.0000 
     68 N          22.1930  -27.0130  -10.6420 N.am     10 SEL2        0.0000 
     69 N          20.3220  -28.4630   -8.6530 N.am      6 SEP2        0.0000 
     70 CA         22.0720  -23.7655  -10.7390 C.3       4 GLC5        0.0000 
     71 CA         22.5700  -25.7940  -10.1930 C.3      12 GLL5        0.0000 
     72 CA         21.4370  -25.4925   -8.3910 C.3       4 GLC5        0.0000 
     73 CA         20.3040  -25.1910   -6.5890 C.3       8 GLP5        0.0000 
     74 CA         23.2475  -24.3520   -8.8910 C.3       4 GLC5        0.0000 
     75 CA         23.9250  -22.9100   -7.5890 C.3       8 GLP5        0.0000 
     76 CA         24.1530  -26.3865   -9.6890 C.3       4 GLC5        0.0000 
     77 CA         22.5885  -27.4890   -9.1975 C.3       4 GLC5        0.0000 
     78 N          24.2495  -24.7620   -9.6680 N.am      2 SEC2        0.0000 
     79 N          23.1410  -24.8290  -10.9800 N.am     10 SEL2        0.0000 
     80 N          25.3580  -24.6950   -8.3560 N.am      6 SEP2        0.0000 
     81 CA         22.4320  -23.4790  -11.7600 C.3       4 GLC5        0.0000 
     82 CA         23.2900  -25.2210  -12.2350 C.3      12 GLL5        0.0000 
     83 CA         24.5130  -26.1000  -10.7100 C.3       4 GLC5        0.0000 
     84 CA         21.9925  -24.1000  -13.6315 C.3       4 GLC5        0.0000 
     85 CA         24.3595  -17.3413  -12.2410 C.3       4 GLC5        0.0000 
     86 CA         25.4590  -17.7270  -10.6070 C.3       8 GLP5        0.0000 
     87 CA         24.9095  -17.8663  -16.7958 C.3       4 GLC5        0.0000 
     88 CA         26.2840  -17.0510  -17.8340 C.3       8 GLP5        0.0000 
     89 CA         25.9503  -20.2055  -16.5685 C.3       4 GLC5        0.0000 
     90 CA         24.0080  -19.1610  -16.1250 C.3      12 GLL5        0.0000 
     91 CA         27.9650  -20.5020  -17.2180 C.3       8 GLP5        0.0000 
     92 CA         25.8100  -24.8483  -12.9795 C.3       4 GLC5        0.0000 
     93 CA         26.5660  -26.8070  -12.6030 C.3       8 GLP5        0.0000 
@<TRIPOS>BOND
@<TRIPOS>SUBSTRUCTURE
     1 ALC1        1 GROUP        1 X    ALC  0     ROOT ALC X 1
     2 SEC2       14 GROUP        1 X    SEC  0     **** SEC X 2
     3 LYC4       11 GROUP        1 X    LYC  0     **** LYC X 4
     4 GLC5        6 GROUP        1 X    GLC  0     **** GLC X 6
     5 ALP1        3 GROUP        1 Y    ALP  0     ROOT ALP Y 8
     6 SEP2       16 GROUP        1 Y    SEP  0     **** SEP Y 9
     7 LYP4       13 GROUP        1 Y    LYP  0     **** LYP Y 11
     8 GLP5        8 GROUP        1 Y    GLP  0     **** GLP Y 13
     9 ALL1        2 GROUP        1 Z    ALL  0     ROOT ALL Z 15
    10 SEL2       15 GROUP        1 Z    SEL  0     **** SEL Z 16
    11 LYL4       12 GROUP        1 Z    LYL  0     **** LYL Z 18
    12 GLL5        7 GROUP        1 Z    GLL  0     **** GLL Z 20
@<TRIPOS>SET

