#    Name: 2y1w_SFG_3_ligand
#    Modification time : Tue Mar 25 07:24:58 2014

@<TRIPOS>MOLECULE
2y1w_SFG_3_ligand
   47    49     1     0     0
SMALL
NO_CHARGES


@<TRIPOS>ATOM
      1 N          21.4160  -16.9700  -13.3600 N.4       1 SFG1001     0.0000 
      2 CA         22.8100  -16.4200  -13.5550 C.3       1 SFG1001     0.0000 
      3 C          22.7120  -15.1090  -14.4060 C.2       1 SFG1001     0.0000 
      4 O          21.6010  -14.8460  -14.9220 O.co2     1 SFG1001     0.0000 
      5 OXT        23.7730  -14.4790  -14.4630 O.co2     1 SFG1001     0.0000 
      6 CB         23.7100  -17.4910  -14.1950 C.3       1 SFG1001     0.0000 
      7 CG         23.0620  -18.2020  -15.3900 C.3       1 SFG1001     0.0000 
      8 CD         24.0080  -19.1610  -16.1250 C.3       1 SFG1001     0.0000 
      9 NE         23.6560  -19.0600  -17.5820 N.3       1 SFG1001     0.0000 
     10 C5'        23.8630  -20.6570  -15.7130 C.3       1 SFG1001     0.0000 
     11 C4'        24.1950  -21.0080  -14.2160 C.3       1 SFG1001     0.0000 
     12 O4'        23.4710  -22.1770  -13.8400 O.3       1 SFG1001     0.0000 
     13 C3'        25.7210  -21.2760  -13.8910 C.3       1 SFG1001     0.0000 
     14 O3'        26.1380  -20.5720  -12.7060 O.3       1 SFG1001     0.0000 
     15 C2'        25.7690  -22.7770  -13.6400 C.3       1 SFG1001     0.0000 
     16 O2'        26.8340  -23.2800  -12.8360 O.3       1 SFG1001     0.0000 
     17 C1'        24.3390  -23.0020  -13.0720 C.3       1 SFG1001     0.0000 
     18 N9         23.8460  -24.3830  -13.1890 N.pl3     1 SFG1001     0.0000 
     19 C8         23.7800  -25.2200  -14.2980 C.2       1 SFG1001     0.0000 
     20 N7         23.2620  -26.4040  -14.0940 N.2       1 SFG1001     0.0000 
     21 C5         22.9410  -26.4290  -12.7860 C.ar      1 SFG1001     0.0000 
     22 C6         22.3590  -27.3960  -11.9640 C.ar      1 SFG1001     0.0000 
     23 N6         21.9390  -28.6610  -12.3330 N.pl3     1 SFG1001     0.0000 
     24 N1         22.1930  -27.0130  -10.6420 N.ar      1 SFG1001     0.0000 
     25 C2         22.5700  -25.7940  -10.1930 C.ar      1 SFG1001     0.0000 
     26 N3         23.1410  -24.8290  -10.9800 N.ar      1 SFG1001     0.0000 
     27 C4         23.2900  -25.2210  -12.2350 C.ar      1 SFG1001     0.0000 
     28 H          23.2128  -16.1548  -12.5863 H         1 SFG1001     0.0000 
     29 H          23.9694  -18.2380  -13.4322 H         1 SFG1001     0.0000 
     30 H          24.6450  -17.0174  -14.5248 H         1 SFG1001     0.0000 
     31 H          22.6990  -17.4453  -16.1010 H         1 SFG1001     0.0000 
     32 H          22.1864  -18.7664  -15.0370 H         1 SFG1001     0.0000 
     33 H          25.0154  -18.8511  -15.9910 H         1 SFG1001     0.0000 
     34 H          24.5182  -21.2673  -16.3618 H         1 SFG1001     0.0000 
     35 H          22.8263  -20.9815  -15.9195 H         1 SFG1001     0.0000 
     36 H          23.8820  -20.1650  -13.5998 H         1 SFG1001     0.0000 
     37 H          26.2753  -21.0517  -14.7505 H         1 SFG1001     0.0000 
     38 H          25.7333  -23.2430  -14.6454 H         1 SFG1001     0.0000 
     39 H          24.3392  -22.6821  -12.0461 H         1 SFG1001     0.0000 
     40 H          24.1247  -24.8930  -15.1961 H         1 SFG1001     0.0000 
     41 H          22.4161  -25.5630   -9.1635 H         1 SFG1001     0.0000 
     42 H          20.9850  -16.6054  -12.5346 H         1 SFG1001     0.0000 
     43 H          20.8167  -16.7438  -14.1279 H         1 SFG1001     0.0000 
     44 H          21.4186  -17.9663  -13.2737 H         1 SFG1001     0.0000 
     45 H          25.4984  -20.8622  -11.9942 H         1 SFG1001     0.0000 
     46 H          26.6868  -22.8795  -11.9316 H         1 SFG1001     0.0000 
     47 H          21.4486  -29.0135  -11.5360 H         1 SFG1001     0.0000 
@<TRIPOS>BOND
     1    2    1 1    
     2   42    1 1    
     3   43    1 1    
     4   44    1 1    
     5    3    2 1    
     6    6    2 1    
     7   28    2 1    
     8    4    3 ar   
     9    5    3 ar   
    10    7    6 1    
    11   29    6 1    
    12   30    6 1    
    13    8    7 1    
    14   31    7 1    
    15   32    7 1    
    16    9    8 1    
    17   10    8 1    
    18   33    8 1    
    19   11   10 1    
    20   34   10 1    
    21   35   10 1    
    22   12   11 1    
    23   13   11 1    
    24   36   11 1    
    25   17   12 1    
    26   14   13 1    
    27   15   13 1    
    28   37   13 1    
    29   45   14 1    
    30   16   15 1    
    31   17   15 1    
    32   38   15 1    
    33   46   16 1    
    34   18   17 1    
    35   39   17 1    
    36   19   18 1    
    37   27   18 1    
    38   20   19 2    
    39   40   19 1    
    40   21   20 1    
    41   22   21 ar   
    42   27   21 ar   
    43   23   22 1    
    44   24   22 ar   
    45   47   23 1    
    46   25   24 ar   
    47   26   25 ar   
    48   41   25 1    
    49   27   26 ar   
@<TRIPOS>SUBSTRUCTURE
     1 SFG1001     1 GROUP   
@<TRIPOS>SET

