#    Name: 1lc3_NAD_1_INTS_M
#    Modification time : Tue Mar 25 11:06:03 2014

@<TRIPOS>MOLECULE
1lc3_NAD_1_INTS_M
   54     0     9     0     0
SMALL
NO_CHARGES


@<TRIPOS>ATOM
      1 N          33.7080   14.9450   60.4525 N.am      2 SEC2        0.0000 
      2 N          32.9070   15.4820   61.6540 N.am      8 SEL2        0.0000 
      3 N          34.5090   14.4080   59.2510 N.am      5 SEP2        0.0000 
      4 CA         30.8055   18.2780   63.6605 C.3       3 GLC5        0.0000 
      5 CA         30.0770   16.4620   62.8960 C.3       9 GLL5        0.0000 
      6 CA         31.5340   20.0940   64.4250 C.3       6 GLP5        0.0000 
      7 CA         27.6510   20.0100   62.7090 C.3       3 GLC5        0.0000 
      8 CA         28.0750   18.6380   61.1180 C.3       9 GLL5        0.0000 
      9 CA         27.2270   21.3820   64.3000 C.3       6 GLP5        0.0000 
     10 CA         28.2360   25.3460   61.1305 C.3       3 GLC5        0.0000 
     11 CA         28.4760   23.5040   59.8950 C.3       9 GLL5        0.0000 
     12 CA         27.9960   27.1880   62.3660 C.3       6 GLP5        0.0000 
     13 O          28.5665   25.7380   59.3785 O.2       1 ALC1        0.0000 
     14 O          29.2590   24.5080   59.5820 O.2       7 ALL1        0.0000 
     15 O          27.8740   26.9680   59.1750 O.2       4 ALP1        0.0000 
     16 CA         26.5825   23.2475   61.9405 C.3       3 GLC5        0.0000 
     17 CA         26.1730   22.7230   60.2910 C.3       9 GLL5        0.0000 
     18 CA         26.9920   23.7720   63.5900 C.3       6 GLP5        0.0000 
     19 CA         27.6035   21.2385   62.4120 C.3       3 GLC5        0.0000 
     20 CA         27.9800   21.0950   60.5240 C.3       9 GLL5        0.0000 
     21 N          34.6250   16.8800   58.0390 N.am      2 SEC2        0.0000 
     22 N          34.4490   17.6510   59.1480 N.am      8 SEL2        0.0000 
     23 N          34.8010   16.1090   56.9300 N.am      5 SEP2        0.0000 
     24 CA         33.1560   20.7490   61.8695 C.3       3 GLC5        0.0000 
     25 CA         34.4550   20.5700   60.3770 C.3       9 GLL5        0.0000 
     26 CA         31.8570   20.9280   63.3620 C.3       6 GLP5        0.0000 
     27 CA         35.6020   22.5955   57.7335 C.3       3 GLC5        0.0000 
     28 CA         34.8570   21.8210   59.7060 C.3       9 GLL5        0.0000 
     29 CA         36.3470   23.3700   55.7610 C.3       6 GLP5        0.0000 
     30 CA         32.7415   22.6620   61.7710 C.3       3 GLC5        0.0000 
     31 CA         34.0010   23.0550   60.1500 C.3       9 GLL5        0.0000 
     32 CA         31.4820   22.2690   63.3920 C.3       6 GLP5        0.0000 
     33 N          34.2205   24.9300   61.1850 N.am      2 SEC2        0.0000 
     34 N          34.8290   24.1120   60.0940 N.am      8 SEL2        0.0000 
     35 N          33.6120   25.7480   62.2760 N.am      5 SEP2        0.0000 
     36 O          36.3730   24.3045   60.2000 O.2       1 ALC1        0.0000 
     37 O          34.8290   24.1120   60.0940 O.2       7 ALL1        0.0000 
     38 O          37.9170   24.4970   60.3060 O.2       4 ALP1        0.0000 
     39 O          32.8770   25.1105   58.3310 O.2       1 ALC1        0.0000 
     40 O          32.1490   24.2820   59.1310 O.2       7 ALL1        0.0000 
     41 O          33.6050   25.9390   57.5310 O.2       4 ALP1        0.0000 
     42 CA         34.9560   23.0585   56.8215 C.3       3 GLC5        0.0000 
     43 CA         33.5650   22.7470   57.8820 C.3       9 GLL5        0.0000 
     44 CA         33.8705   19.6385   56.4460 C.3       3 GLC5        0.0000 
     45 CA         32.1650   20.9590   56.6720 C.3       9 GLL5        0.0000 
     46 CA         35.5760   18.3180   56.2200 C.3       6 GLP5        0.0000 
     47 CA         34.4930   23.2945   55.7380 C.3       3 GLC5        0.0000 
     48 CA         32.6390   23.2190   55.7150 C.3       9 GLL5        0.0000 
     49 CA         27.8470   23.2815   61.8188 C.3       3 GLC5        0.0000 
     50 CA         28.9280   22.0780   60.2000 C.3       9 GLL5        0.0000 
     51 CA         35.8470   23.9490   59.8035 C.3       3 GLC5        0.0000 
     52 CA         37.2650   25.4600   59.6790 C.3       6 GLP5        0.0000 
     53 CA         35.3638   22.1081   61.9594 C.3       3 GLC5        0.0000 
     54 CA         36.3990   22.0910   63.8230 C.3       6 GLP5        0.0000 
@<TRIPOS>BOND
@<TRIPOS>SUBSTRUCTURE
     1 ALC1       13 GROUP        1 X    ALC  0     ROOT ALC X 1
     2 SEC2        1 GROUP        1 X    SEC  0     **** SEC X 2
     3 GLC5        4 GROUP        1 X    GLC  0     **** GLC X 6
     4 ALP1       15 GROUP        1 Y    ALP  0     ROOT ALP Y 8
     5 SEP2        3 GROUP        1 Y    SEP  0     **** SEP Y 9
     6 GLP5        6 GROUP        1 Y    GLP  0     **** GLP Y 13
     7 ALL1       14 GROUP        1 Z    ALL  0     ROOT ALL Z 15
     8 SEL2        2 GROUP        1 Z    SEL  0     **** SEL Z 16
     9 GLL5        5 GROUP        1 Z    GLL  0     **** GLL Z 20
@<TRIPOS>SET

