#    Name: 1lc3_NAD_1_ligand
#    Modification time : Tue Mar 25 11:06:03 2014

@<TRIPOS>MOLECULE
1lc3_NAD_1_ligand
   69    73     1     0     0
SMALL
NO_CHARGES


@<TRIPOS>ATOM
      1 PA         32.6370   16.8400   62.2080 P.3       1 NAD900      0.0000 
      2 O1A        32.9070   15.4820   61.6540 O.co2     1 NAD900      0.0000 
      3 O2A        33.1550   16.9980   63.6430 O.co2     1 NAD900      0.0000 
      4 O5B        31.1380   17.1680   62.1270 O.3       1 NAD900      0.0000 
      5 C5B        30.0770   16.4620   62.8960 C.3       1 NAD900      0.0000 
      6 C4B        28.7210   16.8630   62.4580 C.3       1 NAD900      0.0000 
      7 O4B        28.5980   18.3260   62.3520 O.3       1 NAD900      0.0000 
      8 C3B        28.1990   16.3360   61.0570 C.3       1 NAD900      0.0000 
      9 O3B        26.7980   15.8990   61.1930 O.3       1 NAD900      0.0000 
     10 C2B        28.3650   17.4800   60.1060 C.3       1 NAD900      0.0000 
     11 O2B        27.6420   17.4480   58.9360 O.3       1 NAD900      0.0000 
     12 C1B        28.0750   18.6380   61.1180 C.3       1 NAD900      0.0000 
     13 N9A        28.6670   19.8900   60.7570 N.pl3     1 NAD900      0.0000 
     14 C8A        29.9840   20.2490   60.5500 C.2       1 NAD900      0.0000 
     15 N7A        30.1770   21.5080   60.2260 N.2       1 NAD900      0.0000 
     16 C5A        28.9280   22.0780   60.2000 C.ar      1 NAD900      0.0000 
     17 C6A        28.4760   23.5040   59.8950 C.ar      1 NAD900      0.0000 
     18 N6A        29.2590   24.5080   59.5820 N.pl3     1 NAD900      0.0000 
     19 N1A        27.0600   23.6690   59.9830 N.ar      1 NAD900      0.0000 
     20 C2A        26.1730   22.7230   60.2910 C.ar      1 NAD900      0.0000 
     21 N3A        26.5700   21.3770   60.5820 N.ar      1 NAD900      0.0000 
     22 C4A        27.9800   21.0950   60.5240 C.ar      1 NAD900      0.0000 
     23 O3         33.4580   17.7760   61.2570 O.3       1 NAD900      0.0000 
     24 PN         33.2590   18.2940   59.7270 P.3       1 NAD900      0.0000 
     25 O1N        31.9850   17.9460   59.1640 O.co2     1 NAD900      0.0000 
     26 O2N        34.4490   17.6510   59.1480 O.co2     1 NAD900      0.0000 
     27 O5D        33.6370   19.7990   59.5330 O.3       1 NAD900      0.0000 
     28 C5D        34.4550   20.5700   60.3770 C.3       1 NAD900      0.0000 
     29 C4D        34.8570   21.8210   59.7060 C.3       1 NAD900      0.0000 
     30 O4D        34.4680   21.7330   58.2140 O.3       1 NAD900      0.0000 
     31 C3D        34.0010   23.0550   60.1500 C.3       1 NAD900      0.0000 
     32 O3D        34.8290   24.1120   60.0940 O.3       1 NAD900      0.0000 
     33 C2D        32.8160   23.0800   59.1480 C.3       1 NAD900      0.0000 
     34 O2D        32.1490   24.2820   59.1310 O.3       1 NAD900      0.0000 
     35 C1D        33.5650   22.7470   57.8820 C.3       1 NAD900      0.0000 
     36 N1N        32.7410   22.2660   56.7030 N.pl3     1 NAD900      0.0000 
     37 C2N        32.1650   20.9590   56.6720 C.ar      1 NAD900      0.0000 
     38 C3N        31.4560   20.7000   55.5130 C.ar      1 NAD900      0.0000 
     39 C7N        30.8270   19.2130   55.5320 C.2       1 NAD900      0.0000 
     40 O7N        30.1600   18.8600   54.5330 O.2       1 NAD900      0.0000 
     41 N7N        31.0630   18.4090   56.6560 N.am      1 NAD900      0.0000 
     42 C4N        31.2710   21.5910   54.4140 C.ar      1 NAD900      0.0000 
     43 C5N        31.9100   22.8800   54.5830 C.ar      1 NAD900      0.0000 
     44 C6N        32.6390   23.2190   55.7150 C.ar      1 NAD900      0.0000 
     45 H          30.1990   16.6792   63.9700 H         1 NAD900      0.0000 
     46 H          30.1998   15.3733   62.7722 H         1 NAD900      0.0000 
     47 H          27.9637   16.5329   63.1920 H         1 NAD900      0.0000 
     48 H          28.8426   15.5323   60.7795 H         1 NAD900      0.0000 
     49 H          29.4714   17.5570   59.9547 H         1 NAD900      0.0000 
     50 H          26.9916   18.7421   61.1761 H         1 NAD900      0.0000 
     51 H          30.7236   19.5668   60.6489 H         1 NAD900      0.0000 
     52 H          25.1483   22.9256   60.3328 H         1 NAD900      0.0000 
     53 H          35.3690   20.0170   60.6688 H         1 NAD900      0.0000 
     54 H          33.9338   20.8273   61.3196 H         1 NAD900      0.0000 
     55 H          35.8581   22.0567   59.7767 H         1 NAD900      0.0000 
     56 H          33.6199   22.8062   61.1131 H         1 NAD900      0.0000 
     57 H          32.2180   22.2166   59.3954 H         1 NAD900      0.0000 
     58 H          34.1226   23.6369   57.5710 H         1 NAD900      0.0000 
     59 H          32.2747   20.3272   57.4092 H         1 NAD900      0.0000 
     60 H          30.6872   17.4830   56.6213 H         1 NAD900      0.0000 
     61 H          31.5870   18.8304   57.3962 H         1 NAD900      0.0000 
     62 H          30.7636   21.3638   53.6183 H         1 NAD900      0.0000 
     63 H          31.8034   23.5654   53.8074 H         1 NAD900      0.0000 
     64 H          33.0735   24.1272   55.8042 H         1 NAD900      0.0000 
     65 H          26.8411   14.9007   61.2331 H         1 NAD900      0.0000 
     66 H          26.9302   16.7628   59.0904 H         1 NAD900      0.0000 
     67 H          28.6417   25.2799   59.4299 H         1 NAD900      0.0000 
     68 H          35.7396   23.7368   60.2676 H         1 NAD900      0.0000 
     69 H          32.7064   24.8790   58.5540 H         1 NAD900      0.0000 
@<TRIPOS>BOND
     1    2    1 ar   
     2    3    1 ar   
     3    4    1 1    
     4   23    1 1    
     5    5    4 1    
     6    6    5 1    
     7   45    5 1    
     8   46    5 1    
     9    7    6 1    
    10    8    6 1    
    11   47    6 1    
    12   12    7 1    
    13    9    8 1    
    14   10    8 1    
    15   48    8 1    
    16   65    9 1    
    17   11   10 1    
    18   12   10 1    
    19   49   10 1    
    20   66   11 1    
    21   13   12 1    
    22   50   12 1    
    23   14   13 1    
    24   22   13 1    
    25   15   14 2    
    26   51   14 1    
    27   16   15 1    
    28   17   16 ar   
    29   22   16 ar   
    30   18   17 1    
    31   19   17 ar   
    32   67   18 1    
    33   20   19 ar   
    34   21   20 ar   
    35   52   20 1    
    36   22   21 ar   
    37   24   23 1    
    38   25   24 ar   
    39   26   24 ar   
    40   27   24 1    
    41   28   27 1    
    42   29   28 1    
    43   53   28 1    
    44   54   28 1    
    45   30   29 1    
    46   31   29 1    
    47   55   29 1    
    48   35   30 1    
    49   32   31 1    
    50   33   31 1    
    51   56   31 1    
    52   68   32 1    
    53   34   33 1    
    54   35   33 1    
    55   57   33 1    
    56   69   34 1    
    57   36   35 1    
    58   58   35 1    
    59   37   36 ar   
    60   44   36 ar   
    61   38   37 ar   
    62   59   37 1    
    63   39   38 1    
    64   42   38 ar   
    65   40   39 2    
    66   41   39 am   
    67   60   41 1    
    68   61   41 1    
    69   43   42 ar   
    70   62   42 1    
    71   44   43 ar   
    72   63   43 1    
    73   64   44 1    
@<TRIPOS>SUBSTRUCTURE
     1 NAD900      1 GROUP   
@<TRIPOS>SET

