#    Name: 1xu9_CPS_2_INTS_M
#    Modification time : Mon Apr  7 15:30:28 2014

@<TRIPOS>MOLECULE
1xu9_CPS_2_INTS_M
   99     0     9     0     0
SMALL
NO_CHARGES


@<TRIPOS>ATOM
      1 CA        -29.6175    0.2540   12.4785 C.3       3 GLC5        0.0000 
      2 CA        -27.9070   -0.1400   13.1530 C.3       9 GLL5        0.0000 
      3 CA        -31.3280    0.6480   11.8040 C.3       6 GLP5        0.0000 
      4 CA        -29.4300   -0.1865   14.5735 C.3       3 GLC5        0.0000 
      5 CA        -30.9530   -0.2330   15.9940 C.3       6 GLP5        0.0000 
      6 CA        -29.1355    2.1765   12.0885 C.3       3 GLC5        0.0000 
      7 CA        -27.5500    2.8360   13.4570 C.3       9 GLL5        0.0000 
      8 CA        -30.7210    1.5170   10.7200 C.3       6 GLP5        0.0000 
      9 CA        -21.7670    4.2465   14.7390 C.3       3 GLC5        0.0000 
     10 CA        -23.8370    4.5710   14.8750 C.3       9 GLL5        0.0000 
     11 CA        -19.6970    3.9220   14.6030 C.3       6 GLP5        0.0000 
     12 CA        -23.1570    7.5755   15.4010 C.3       3 GLC5        0.0000 
     13 CA        -24.1700    6.0630   14.7470 C.3       9 GLL5        0.0000 
     14 CA        -22.1440    9.0880   16.0550 C.3       6 GLP5        0.0000 
     15 CA        -26.6855    3.3890   17.2890 C.3       3 GLC5        0.0000 
     16 CA        -26.7340    4.6420   15.7220 C.3       9 GLL5        0.0000 
     17 CA        -26.6370    2.1360   18.8560 C.3       6 GLP5        0.0000 
     18 CA        -28.6950    4.4485   15.5020 C.3       3 GLC5        0.0000 
     19 CA        -30.6560    4.2550   15.2820 C.3       6 GLP5        0.0000 
     20 CA        -26.8555    1.2265   17.1375 C.3       3 GLC5        0.0000 
     21 CA        -27.0740    0.3170   15.4190 C.3       9 GLL5        0.0000 
     22 CA        -29.0135    0.0420   15.7065 C.3       3 GLC5        0.0000 
     23 CA        -29.2070    0.5855   11.1955 C.3       3 GLC5        0.0000 
     24 CA        -27.6930   -0.3460   11.6710 C.3       9 GLL5        0.0000 
     25 CA        -26.8070    0.7015   10.2115 C.3       3 GLC5        0.0000 
     26 CA        -25.9210    1.7490    8.7520 C.3       6 GLP5        0.0000 
     27 CA        -22.4015    0.9050   13.6700 C.3       3 GLC5        0.0000 
     28 CA        -23.9350    1.5760   13.9980 C.3       9 GLL5        0.0000 
     29 CA        -20.8680    0.2340   13.3420 C.3       6 GLP5        0.0000 
     30 CA        -25.7180    2.2865   11.4205 C.3       3 GLC5        0.0000 
     31 CA        -26.3500    1.8830   13.4930 C.3       9 GLL5        0.0000 
     32 CA        -25.0860    2.6900    9.3480 C.3       6 GLP5        0.0000 
     33 CA        -28.3765    7.4350   12.0505 C.3       3 GLC5        0.0000 
     34 CA        -27.7570    7.4420   13.9960 C.3       9 GLL5        0.0000 
     35 CA        -28.9960    7.4280   10.1050 C.3       6 GLP5        0.0000 
     36 CA        -29.2065    5.8485   14.6390 C.3       3 GLC5        0.0000 
     37 CA        -28.8595    7.9745   15.6475 C.3       3 GLC5        0.0000 
     38 CA        -29.9620    8.5070   17.2990 C.3       6 GLP5        0.0000 
     39 CA        -28.2485    9.3450   13.4420 C.3       3 GLC5        0.0000 
     40 CA        -28.7400   11.2480   12.8880 C.3       6 GLP5        0.0000 
     41 CA        -27.1375   10.0800   14.5645 C.3       3 GLC5        0.0000 
     42 CA        -25.6430    8.6970   14.4990 C.3       9 GLL5        0.0000 
     43 CA        -28.6320   11.4630   14.6300 C.3       6 GLP5        0.0000 
     44 CA        -23.9600    9.2085   11.7305 C.3       3 GLC5        0.0000 
     45 CA        -25.4420    9.1430   13.0590 C.3       9 GLL5        0.0000 
     46 CA        -22.4780    9.2740   10.4020 C.3       6 GLP5        0.0000 
     47 CA        -27.0910   10.1955   12.9735 C.3       3 GLC5        0.0000 
     48 CA        -22.5610   12.8230   12.1305 C.3       3 GLC5        0.0000 
     49 CA        -24.2850   12.3870   11.4500 C.3       9 GLL5        0.0000 
     50 CA        -20.8370   13.2590   12.8110 C.3       6 GLP5        0.0000 
     51 CA        -23.3815   10.8305   10.9260 C.3       3 GLC5        0.0000 
     52 CA        -23.2800   12.4455    9.7405 C.3       3 GLC5        0.0000 
     53 CA        -22.2750   12.5040    8.0310 C.3       6 GLP5        0.0000 
     54 CA        -23.1680   14.5590   12.5485 C.3       3 GLC5        0.0000 
     55 CA        -24.7480   13.6000   12.2380 C.3       9 GLL5        0.0000 
     56 CA        -21.5880   15.5180   12.8590 C.3       6 GLP5        0.0000 
     57 CA        -27.4105   12.6980   12.3150 C.3       3 GLC5        0.0000 
     58 CA        -26.0810   14.1480   11.7420 C.3       9 GLL5        0.0000 
     59 CA        -27.7225   14.5055   15.5095 C.3       3 GLC5        0.0000 
     60 CA        -27.2930   14.7920   13.7670 C.3       9 GLL5        0.0000 
     61 CA        -28.1520   14.2190   17.2520 C.3       6 GLP5        0.0000 
     62 CA        -27.9625   13.1275   14.1985 C.3       3 GLC5        0.0000 
     63 CA        -23.7375   15.7495   13.6075 C.3       3 GLC5        0.0000 
     64 CA        -25.4720   16.1510   13.0370 C.3       9 GLL5        0.0000 
     65 CA        -22.0030   15.3480   14.1780 C.3       6 GLP5        0.0000 
     66 CA        -24.3365   17.5950   12.9790 C.3       3 GLC5        0.0000 
     67 CA        -23.2010   19.0390   12.9210 C.3       6 GLP5        0.0000 
     68 CA        -29.9165   14.1085   11.9905 C.3       3 GLC5        0.0000 
     69 CA        -28.7210   15.6080   11.2500 C.3       9 GLL5        0.0000 
     70 CA        -31.1120   12.6090   12.7310 C.3       6 GLP5        0.0000 
     71 O         -27.3845   -1.7175    9.0910 O.2       1 ALC1        0.0000 
     72 O         -26.3150   -1.4940   10.0740 O.2       7 ALL1        0.0000 
     73 O         -28.4540   -1.9410    8.1080 O.2       4 ALP1        0.0000 
     74 N         -22.6855    0.8385   11.9235 N.am      2 SEC2        0.0000 
     75 N         -23.5350    1.8130   12.6570 N.am      8 SEL2        0.0000 
     76 N         -21.8360   -0.1360   11.1900 N.am      5 SEP2        0.0000 
     77 N         -31.9020   13.6905   10.1055 N.am      2 SEC2        0.0000 
     78 N         -31.0590   14.8160   10.0150 N.am      8 SEL2        0.0000 
     79 N         -32.7450   12.5650   10.1960 N.am      5 SEP2        0.0000 
     80 CA        -28.7355    4.5228   12.3125 C.3       3 GLC5        0.0000 
     81 CA        -30.0960    5.4730   11.2570 C.3       6 GLP5        0.0000 
     82 CA        -29.0155    3.9137   14.3250 C.3       3 GLC5        0.0000 
     83 CA        -27.2000    4.3090   13.2790 C.3       9 GLL5        0.0000 
     84 CA        -25.1980   -2.7630   11.4383 C.3       3 GLC5        0.0000 
     85 CA        -25.2940   -0.7210   12.1290 C.3       9 GLL5        0.0000 
     86 CA        -24.4780   -4.5110   11.0810 C.3       6 GLP5        0.0000 
     87 CA        -28.5865   -2.2195   11.9870 C.3       3 GLC5        0.0000 
     88 CA        -26.5420   -1.3090   11.4620 C.3       9 GLL5        0.0000 
     89 CA        -30.0020   -3.6630   12.0370 C.3       6 GLP5        0.0000 
     90 CA        -25.6380   -0.1895    9.9638 C.3       3 GLC5        0.0000 
     91 CA        -25.3580    0.6360    8.1320 C.3       6 GLP5        0.0000 
     92 CA        -24.8193   -2.1204   14.1824 C.3       3 GLC5        0.0000 
     93 CA        -24.8230   -3.9930   14.7830 C.3       6 GLP5        0.0000 
     94 CA        -23.1273   -0.4364   12.9964 C.3       3 GLC5        0.0000 
     95 CA        -24.2280    0.0970   14.2840 C.3       9 GLL5        0.0000 
     96 CA        -21.4390   -0.6250   12.4110 C.3       6 GLP5        0.0000 
     97 CA        -23.9479    1.5541   16.2115 C.3       3 GLC5        0.0000 
     98 CA        -23.2690    1.4840   18.1900 C.3       6 GLP5        0.0000 
     99 CA        -23.8432    9.0040   14.9170 C.3       3 GLC5        0.0000 
@<TRIPOS>BOND
@<TRIPOS>SUBSTRUCTURE
     1 ALC1       71 GROUP        1 X    ALC  0     ROOT ALC X 1
     2 SEC2       74 GROUP        1 X    SEC  0     **** SEC X 2
     3 GLC5        1 GROUP        1 X    GLC  0     **** GLC X 6
     4 ALP1       73 GROUP        1 Y    ALP  0     ROOT ALP Y 8
     5 SEP2       76 GROUP        1 Y    SEP  0     **** SEP Y 9
     6 GLP5        3 GROUP        1 Y    GLP  0     **** GLP Y 13
     7 ALL1       72 GROUP        1 Z    ALL  0     ROOT ALL Z 15
     8 SEL2       75 GROUP        1 Z    SEL  0     **** SEL Z 16
     9 GLL5        2 GROUP        1 Z    GLL  0     **** GLL Z 20
@<TRIPOS>SET

