#    Name: 1xu9_CPS_2_ligand
#    Modification time : Mon Apr  7 15:30:28 2014

@<TRIPOS>MOLECULE
1xu9_CPS_2_ligand
  100   103     1     0     0
SMALL
NO_CHARGES


@<TRIPOS>ATOM
      1 C1        -27.9070   -0.1400   13.1530 C.3       1 CPS6        0.0000 
      2 C2        -26.7130    0.4420   13.9270 C.3       1 CPS6        0.0000 
      3 C3        -27.5500    2.8360   13.4570 C.3       1 CPS6        0.0000 
      4 C4        -27.2000    4.3090   13.2790 C.3       1 CPS6        0.0000 
      5 C5        -26.1570    4.7720   14.3090 C.3       1 CPS6        0.0000 
      6 C6        -24.9330    3.8950   14.0790 C.3       1 CPS6        0.0000 
      7 C7        -23.8370    4.5710   14.8750 C.3       1 CPS6        0.0000 
      8 C8        -24.1700    6.0630   14.7470 C.3       1 CPS6        0.0000 
      9 C9        -25.5600    6.1680   14.0870 C.3       1 CPS6        0.0000 
     10 C10       -26.7340    4.6420   15.7220 C.3       1 CPS6        0.0000 
     11 C11       -27.0740    0.3170   15.4190 C.3       1 CPS6        0.0000 
     12 C12       -27.6930   -0.3460   11.6710 C.3       1 CPS6        0.0000 
     13 C13       -26.5420   -1.3090   11.4620 C.3       1 CPS6        0.0000 
     14 C14       -25.2940   -0.7210   12.1290 C.3       1 CPS6        0.0000 
     15 C15       -25.5120   -0.4640   13.6300 C.3       1 CPS6        0.0000 
     16 C16       -24.2280    0.0970   14.2840 C.3       1 CPS6        0.0000 
     17 C17       -23.9350    1.5760   13.9980 C.3       1 CPS6        0.0000 
     18 C18       -25.1720    2.4120   14.3250 C.3       1 CPS6        0.0000 
     19 C19       -26.3500    1.8830   13.4930 C.3       1 CPS6        0.0000 
     20 C20       -26.3770    7.3500   14.6390 C.3       1 CPS6        0.0000 
     21 C21       -27.7570    7.4420   13.9960 C.3       1 CPS6        0.0000 
     22 C22       -25.6430    8.6970   14.4990 C.3       1 CPS6        0.0000 
     23 C23       -25.4420    9.1430   13.0590 C.3       1 CPS6        0.0000 
     24 C24       -24.7140   10.4720   12.9250 C.2       1 CPS6        0.0000 
     25 C25       -24.2850   12.3870   11.4500 C.3       1 CPS6        0.0000 
     26 C26       -24.7480   13.6000   12.2380 C.3       1 CPS6        0.0000 
     27 C27       -26.0810   14.1480   11.7420 C.3       1 CPS6        0.0000 
     28 C28       -27.2930   14.7920   13.7670 C.3       1 CPS6        0.0000 
     29 C29       -25.4720   16.1510   13.0370 C.3       1 CPS6        0.0000 
     30 C30       -27.4180   16.1960   11.7680 C.3       1 CPS6        0.0000 
     31 C31       -28.7210   15.6080   11.2500 C.3       1 CPS6        0.0000 
     32 C32       -29.7180   16.7300   10.9340 C.3       1 CPS6        0.0000 
     33 N1        -24.9520   11.1340   11.7900 N.am      1 CPS6        0.0000 
     34 N2        -26.5810   15.2850   12.5730 N.4       1 CPS6        0.0000 
     35 O1        -23.9550   10.8940   13.7960 O.2       1 CPS6        0.0000 
     36 O2        -26.3150   -1.4940   10.0740 O.3       1 CPS6        0.0000 
     37 O3        -23.5350    1.8130   12.6570 O.3       1 CPS6        0.0000 
     38 O4        -26.7590    4.4880   11.9220 O.3       1 CPS6        0.0000 
     39 O2S       -31.0590   14.8160   10.0150 O.co2     1 CPS6        0.0000 
     40 O3S       -31.8820   15.8500   12.0530 O.co2     1 CPS6        0.0000 
     41 O1S       -32.0920   16.9930    9.9310 O.co2     1 CPS6        0.0000 
     42 S         -31.2380   16.0840   10.7370 S.o2      1 CPS6        0.0000 
     43 H         -28.7803    0.5300   13.3068 H         1 CPS6        0.0000 
     44 H         -28.1848   -1.1092   13.6207 H         1 CPS6        0.0000 
     45 H         -28.2238    2.5249   12.6354 H         1 CPS6        0.0000 
     46 H         -28.1261    2.7143   14.3946 H         1 CPS6        0.0000 
     47 H         -28.1184    4.8784   13.4503 H         1 CPS6        0.0000 
     48 H         -24.6696    4.0408   13.0008 H         1 CPS6        0.0000 
     49 H         -22.8920    4.3811   14.4340 H         1 CPS6        0.0000 
     50 H         -23.8918    4.2832   15.8937 H         1 CPS6        0.0000 
     51 H         -23.4434    6.5421   14.1214 H         1 CPS6        0.0000 
     52 H         -24.2053    6.5093   15.7209 H         1 CPS6        0.0000 
     53 H         -25.3893    6.2914   13.0244 H         1 CPS6        0.0000 
     54 H         -27.4594    0.6040   11.2012 H         1 CPS6        0.0000 
     55 H         -28.5937   -0.7572   11.2266 H         1 CPS6        0.0000 
     56 H         -26.7787   -2.2325   11.9592 H         1 CPS6        0.0000 
     57 H         -25.0362    0.2212   11.6414 H         1 CPS6        0.0000 
     58 H         -24.4599   -1.4145   12.0051 H         1 CPS6        0.0000 
     59 H         -25.7058   -1.4421   14.1088 H         1 CPS6        0.0000 
     60 H         -23.3683   -0.5105   13.9440 H         1 CPS6        0.0000 
     61 H         -24.3007   -0.0484   15.3782 H         1 CPS6        0.0000 
     62 H         -23.1515    1.8913   14.7003 H         1 CPS6        0.0000 
     63 H         -25.4128    2.2599   15.3736 H         1 CPS6        0.0000 
     64 H         -25.9692    1.7958   12.4385 H         1 CPS6        0.0000 
     65 H         -26.5293    7.1759   15.7185 H         1 CPS6        0.0000 
     66 H         -24.6626    8.6144   14.9946 H         1 CPS6        0.0000 
     67 H         -26.2160    9.4657   15.0414 H         1 CPS6        0.0000 
     68 H         -26.4259    9.2217   12.5668 H         1 CPS6        0.0000 
     69 H         -24.8744    8.3670   12.5186 H         1 CPS6        0.0000 
     70 H         -23.1822   12.2871   11.5918 H         1 CPS6        0.0000 
     71 H         -24.4185   12.6123   10.3648 H         1 CPS6        0.0000 
     72 H         -23.9881   14.3892   12.1665 H         1 CPS6        0.0000 
     73 H         -24.8452   13.3276   13.2971 H         1 CPS6        0.0000 
     74 H         -26.8193   13.3316   11.7444 H         1 CPS6        0.0000 
     75 H         -25.9600   14.4744   10.6978 H         1 CPS6        0.0000 
     76 H         -27.6631   17.1084   12.3630 H         1 CPS6        0.0000 
     77 H         -26.8351   16.5694   10.8920 H         1 CPS6        0.0000 
     78 H         -29.1503   14.9537   12.0030 H         1 CPS6        0.0000 
     79 H         -28.5295   15.0384   10.3454 H         1 CPS6        0.0000 
     80 H         -29.4785   17.2154   10.0119 H         1 CPS6        0.0000 
     81 H         -29.7918   17.4247   11.7434 H         1 CPS6        0.0000 
     82 H         -25.6371   10.7820   11.0801 H         1 CPS6        0.0000 
     83 H         -26.0781    4.9317   16.4191 H         1 CPS6        0.0000 
     84 H         -27.5544    5.2012   15.8410 H         1 CPS6        0.0000 
     85 H         -26.9891    3.6985   15.9336 H         1 CPS6        0.0000 
     86 H         -26.3480    0.6723   16.0078 H         1 CPS6        0.0000 
     87 H         -27.9070    0.8228   15.6432 H         1 CPS6        0.0000 
     88 H         -27.2281   -0.6345   15.6854 H         1 CPS6        0.0000 
     89 H         -27.6977    7.5657   13.0055 H         1 CPS6        0.0000 
     90 H         -28.2973    6.6159   14.1564 H         1 CPS6        0.0000 
     91 H         -28.2841    8.2116   14.3565 H         1 CPS6        0.0000 
     92 H         -26.7006   14.2349   14.3490 H         1 CPS6        0.0000 
     93 H         -27.6361   15.5429   14.3313 H         1 CPS6        0.0000 
     94 H         -28.0802   14.2257   13.5226 H         1 CPS6        0.0000 
     95 H         -24.8165   15.6461   13.5986 H         1 CPS6        0.0000 
     96 H         -24.9615   16.5428   12.2716 H         1 CPS6        0.0000 
     97 H         -25.8040   16.9154   13.5898 H         1 CPS6        0.0000 
     98 H         -27.2211   -1.6554    9.6829 H         1 CPS6        0.0000 
     99 H         -23.1012    2.7139   12.6718 H         1 CPS6        0.0000 
    100 H         -25.8603    4.9201   11.9969 H         1 CPS6        0.0000 
@<TRIPOS>BOND
     1    2    1 1    
     2   12    1 1    
     3   43    1 1    
     4   44    1 1    
     5   11    2 1    
     6   15    2 1    
     7   19    2 1    
     8    4    3 1    
     9   19    3 1    
    10   45    3 1    
    11   46    3 1    
    12    5    4 1    
    13   38    4 1    
    14   47    4 1    
    15    6    5 1    
    16    9    5 1    
    17   10    5 1    
    18    7    6 1    
    19   18    6 1    
    20   48    6 1    
    21    8    7 1    
    22   49    7 1    
    23   50    7 1    
    24    9    8 1    
    25   51    8 1    
    26   52    8 1    
    27   20    9 1    
    28   53    9 1    
    29   83   10 1    
    30   84   10 1    
    31   85   10 1    
    32   86   11 1    
    33   87   11 1    
    34   88   11 1    
    35   13   12 1    
    36   54   12 1    
    37   55   12 1    
    38   14   13 1    
    39   36   13 1    
    40   56   13 1    
    41   15   14 1    
    42   57   14 1    
    43   58   14 1    
    44   16   15 1    
    45   59   15 1    
    46   17   16 1    
    47   60   16 1    
    48   61   16 1    
    49   18   17 1    
    50   37   17 1    
    51   62   17 1    
    52   19   18 1    
    53   63   18 1    
    54   64   19 1    
    55   21   20 1    
    56   22   20 1    
    57   65   20 1    
    58   89   21 1    
    59   90   21 1    
    60   91   21 1    
    61   23   22 1    
    62   66   22 1    
    63   67   22 1    
    64   24   23 1    
    65   68   23 1    
    66   69   23 1    
    67   33   24 am   
    68   35   24 2    
    69   26   25 1    
    70   33   25 1    
    71   70   25 1    
    72   71   25 1    
    73   27   26 1    
    74   72   26 1    
    75   73   26 1    
    76   34   27 1    
    77   74   27 1    
    78   75   27 1    
    79   34   28 1    
    80   92   28 1    
    81   93   28 1    
    82   94   28 1    
    83   34   29 1    
    84   95   29 1    
    85   96   29 1    
    86   97   29 1    
    87   31   30 1    
    88   34   30 1    
    89   76   30 1    
    90   77   30 1    
    91   32   31 1    
    92   78   31 1    
    93   79   31 1    
    94   42   32 1    
    95   80   32 1    
    96   81   32 1    
    97   82   33 1    
    98   98   36 1    
    99   99   37 1    
   100  100   38 1    
   101   42   39 ar   
   102   42   40 ar   
   103   42   41 ar   
@<TRIPOS>SUBSTRUCTURE
     1 CPS6        1 GROUP   
@<TRIPOS>SET

