#    Name: 1udb_UFG_1_INTS_M
#    Modification time : Tue Mar 25 06:27:45 2014

@<TRIPOS>MOLECULE
1udb_UFG_1_INTS_M
   76     0    12     0     0
SMALL
NO_CHARGES


@<TRIPOS>ATOM
      1 O          16.3295   18.6820   40.8555 O.2       1 ALC1        0.0000 
      2 O          16.7630   17.3800   40.5550 O.2       9 ALL1        0.0000 
      3 O          15.8960   19.9840   41.1560 O.2       5 ALP1        0.0000 
      4 CA         18.7075   14.4665   41.3155 C.3       4 GLC5        0.0000 
      5 CA         18.2500   15.6040   39.8840 C.3      12 GLL5        0.0000 
      6 CA         19.1650   13.3290   42.7470 C.3       8 GLP5        0.0000 
      7 CA         17.8845   16.9710   38.7480 C.3       4 GLC5        0.0000 
      8 CA         17.5190   18.3380   37.6120 C.3       8 GLP5        0.0000 
      9 CA         17.4420   13.8445   41.1815 C.3       4 GLC5        0.0000 
     10 CA         17.1900   14.8460   39.6940 C.3      12 GLL5        0.0000 
     11 CA         17.6940   12.8430   42.6690 C.3       8 GLP5        0.0000 
     12 CA         16.6775   16.4540   38.5555 C.3       4 GLC5        0.0000 
     13 CA         16.1650   18.0620   37.4170 C.3       8 GLP5        0.0000 
     14 N          13.8355   18.2015   39.9550 N.am      2 SEC2        0.0000 
     15 N          14.5290   17.0610   40.5010 N.am     10 SEL2        0.0000 
     16 N          13.1420   19.3420   39.4090 N.am      6 SEP2        0.0000 
     17 CA         16.2220   13.6035   41.1740 C.3       4 GLC5        0.0000 
     18 CA         14.7500   14.3640   39.6790 C.3      12 GLL5        0.0000 
     19 CA         13.2645   14.3665   40.9165 C.3       4 GLC5        0.0000 
     20 CA         11.7790   14.3690   42.1540 C.3       8 GLP5        0.0000 
     21 O          13.8280   14.8930   36.1975 O.2       1 ALC1        0.0000 
     22 O          13.7700   14.7980   37.5040 O.2       9 ALL1        0.0000 
     23 O          13.8860   14.9880   34.8910 O.2       5 ALP1        0.0000 
     24 CA         15.0245   12.2430   41.7735 C.3       4 GLC5        0.0000 
     25 CA         14.5110   11.9940   39.6670 C.3      12 GLL5        0.0000 
     26 CA         15.5380   12.4920   43.8800 C.3       8 GLP5        0.0000 
     27 CA         13.1450   13.1815   40.9105 C.3       4 GLC5        0.0000 
     28 CA         16.7070   11.9780   41.1095 C.3       4 GLC5        0.0000 
     29 CA         15.7200   11.1130   39.5500 C.3      12 GLL5        0.0000 
     30 CA         15.1860    9.8550   41.2625 C.3       4 GLC5        0.0000 
     31 CA         14.6520    8.5970   42.9750 C.3       8 GLP5        0.0000 
     32 N          16.7320   12.6690   37.2640 N.am      2 SEC2        0.0000 
     33 N          16.6060   11.8130   38.6580 N.am     10 SEL2        0.0000 
     34 N          16.8580   13.5250   35.8700 N.am      6 SEP2        0.0000 
     35 NZ         18.6580   13.5575   36.7435 N.4       3 LYC4        0.0000 
     36 NZ         18.7960   12.0650   37.4360 N.4      11 LYL4        0.0000 
     37 NZ         17.3940   14.6790   35.4840 N.4       7 LYP4        0.0000 
     38 N          20.1915   11.1730   37.7520 N.am      2 SEC2        0.0000 
     39 N          18.7960   12.0650   37.4360 N.am     10 SEL2        0.0000 
     40 N          21.5870   10.2810   38.0680 N.am      6 SEP2        0.0000 
     41 N          18.6580   13.5575   36.7435 N.am      2 SEC2        0.0000 
     42 N          18.5200   15.0500   36.0510 N.am      6 SEP2        0.0000 
     43 N          17.8270   12.7950   36.6530 N.am      2 SEC2        0.0000 
     44 N          20.1710   10.5705   38.8695 N.am      2 SEC2        0.0000 
     45 N          18.7550   10.8600   39.6710 N.am     10 SEL2        0.0000 
     46 N          19.2955   11.8090   40.6410 N.am      2 SEC2        0.0000 
     47 N          19.8360   12.7580   41.6110 N.am      6 SEP2        0.0000 
     48 NZ         14.3490    8.8250   36.7725 N.4       3 LYC4        0.0000 
     49 NZ         15.7100    8.8140   36.6660 N.4      11 LYL4        0.0000 
     50 NZ         12.0130    9.5620   36.3410 N.4       7 LYP4        0.0000 
     51 N          16.1835    8.0880   37.9045 N.am      2 SEC2        0.0000 
     52 N          15.7100    8.8140   36.6660 N.am     10 SEL2        0.0000 
     53 N          16.6570    7.3620   39.1430 N.am      6 SEP2        0.0000 
     54 N          14.3490    8.8250   36.7725 N.am      2 SEC2        0.0000 
     55 N          12.9880    8.8360   36.8790 N.am      6 SEP2        0.0000 
     56 CA         18.3970    5.5230   31.0730 C.3       4 GLC5        0.0000 
     57 CA         19.1020    6.9820   32.4250 C.3      12 GLL5        0.0000 
     58 CA         17.6920    4.0640   29.7210 C.3       8 GLP5        0.0000 
     59 O          18.4890    4.4250   36.9290 O.2       1 ALC1        0.0000 
     60 O          18.5670    5.7240   36.0210 O.2       9 ALL1        0.0000 
     61 O          18.4110    3.1260   37.8370 O.2       5 ALP1        0.0000 
     62 O          19.3270    4.1090   34.1860 O.2       1 ALC1        0.0000 
     63 O          20.0380    5.0020   33.4920 O.2       9 ALL1        0.0000 
     64 O          18.6160    3.2160   34.8800 O.2       5 ALP1        0.0000 
     65 N          17.0545    6.3970   29.7780 N.am      2 SEC2        0.0000 
     66 N          16.6720    7.7250   30.7730 N.am     10 SEL2        0.0000 
     67 N          17.4370    5.0690   28.7830 N.am      6 SEP2        0.0000 
     68 CA         20.9850    8.6600   31.6110 C.3       4 GLC5        0.0000 
     69 CA         20.3130    7.4400   31.8300 C.3      12 GLL5        0.0000 
     70 CA         21.6570    9.8800   31.3920 C.3       8 GLP5        0.0000 
     71 CA         13.8686   10.0295   39.2975 C.3       4 GLC5        0.0000 
     72 CA         13.9340   12.5040   38.3650 C.3      12 GLL5        0.0000 
     73 CA         12.7660    8.3780   39.3120 C.3       8 GLP5        0.0000 
     74 CA         19.8811    9.0093   31.6319 C.3       4 GLC5        0.0000 
     75 CA         21.2174    6.3144   31.7064 C.3       4 GLC5        0.0000 
     76 CA         22.6530    5.6000   30.9550 C.3       8 GLP5        0.0000 
@<TRIPOS>BOND
@<TRIPOS>SUBSTRUCTURE
     1 ALC1        1 GROUP        1 X    ALC  0     ROOT ALC X 1
     2 SEC2       14 GROUP        1 X    SEC  0     **** SEC X 2
     3 LYC4       35 GROUP        1 X    LYC  0     **** LYC X 4
     4 GLC5        4 GROUP        1 X    GLC  0     **** GLC X 6
     5 ALP1        3 GROUP        1 Y    ALP  0     ROOT ALP Y 8
     6 SEP2       16 GROUP        1 Y    SEP  0     **** SEP Y 9
     7 LYP4       37 GROUP        1 Y    LYP  0     **** LYP Y 11
     8 GLP5        6 GROUP        1 Y    GLP  0     **** GLP Y 13
     9 ALL1        2 GROUP        1 Z    ALL  0     ROOT ALL Z 15
    10 SEL2       15 GROUP        1 Z    SEL  0     **** SEL Z 16
    11 LYL4       36 GROUP        1 Z    LYL  0     **** LYL Z 18
    12 GLL5        5 GROUP        1 Z    GLL  0     **** GLL Z 20
@<TRIPOS>SET

