#    Name: 1udb_UFG_1_ligand
#    Modification time : Tue Mar 25 06:27:45 2014

@<TRIPOS>MOLECULE
1udb_UFG_1_ligand
   57    59     1     0     0
SMALL
NO_CHARGES


@<TRIPOS>ATOM
      1 N1         15.8830   15.3150   39.8920 N.am      1 UFG341      0.0000 
      2 C2         15.6400   16.6150   40.3370 C.2       1 UFG341      0.0000 
      3 N3         16.7630   17.3800   40.5550 N.am      1 UFG341      0.0000 
      4 C4         18.0840   16.9530   40.3290 C.2       1 UFG341      0.0000 
      5 C5         18.2500   15.6040   39.8840 C.2       1 UFG341      0.0000 
      6 C6         17.1900   14.8460   39.6940 C.2       1 UFG341      0.0000 
      7 O2         14.5290   17.0610   40.5010 O.2       1 UFG341      0.0000 
      8 O4         18.9700   17.7450   40.5270 O.2       1 UFG341      0.0000 
      9 C1D        14.7500   14.3640   39.6790 C.3       1 UFG341      0.0000 
     10 C2D        14.6120   13.8910   38.2430 C.3       1 UFG341      0.0000 
     11 O2D        13.7700   14.7980   37.5040 O.3       1 UFG341      0.0000 
     12 C3D        13.9340   12.5040   38.3650 C.3       1 UFG341      0.0000 
     13 C4D        14.5110   11.9940   39.6670 C.3       1 UFG341      0.0000 
     14 O4'        14.9440   13.1690   40.4000 O.3       1 UFG341      0.0000 
     15 O3D        12.5080   12.6090   38.4450 O.3       1 UFG341      0.0000 
     16 C5D        15.7200   11.1130   39.5500 C.3       1 UFG341      0.0000 
     17 O5D        16.6060   11.8130   38.6580 O.3       1 UFG341      0.0000 
     18 PA         18.0700   11.2140   38.4060 P.3       1 UFG341      0.0000 
     19 O1A        18.7960   12.0650   37.4360 O.co2     1 UFG341      0.0000 
     20 O2A        18.7550   10.8600   39.6710 O.co2     1 UFG341      0.0000 
     21 O3A        17.8980    9.7870   37.6290 O.3       1 UFG341      0.0000 
     22 PB         17.0620    9.3970   36.3800 P.3       1 UFG341      0.0000 
     23 O1B        15.7100    8.8140   36.6660 O.co2     1 UFG341      0.0000 
     24 O2B        17.0190   10.5470   35.4230 O.co2     1 UFG341      0.0000 
     25 O3B        17.9200    8.2460   35.6380 O.3       1 UFG341      0.0000 
     26 C1'        17.2810    7.3750   34.7400 C.3       1 UFG341      0.0000 
     27 C2'        18.1880    6.1550   34.7070 C.3       1 UFG341      0.0000 
     28 C3'        19.3990    6.2530   33.7460 C.3       1 UFG341      0.0000 
     29 C4'        19.1020    6.9820   32.4250 C.3       1 UFG341      0.0000 
     30 C5'        18.1570    8.1900   32.5740 C.3       1 UFG341      0.0000 
     31 C6'        17.5810    8.6910   31.2440 C.3       1 UFG341      0.0000 
     32 O2'        18.5670    5.7240   36.0210 O.3       1 UFG341      0.0000 
     33 O3'        20.0380    5.0020   33.4920 O.3       1 UFG341      0.0000 
     34 O5'        17.0230    7.8910   33.4150 O.3       1 UFG341      0.0000 
     35 O6'        16.6720    7.7250   30.7730 O.3       1 UFG341      0.0000 
     36 F4'        20.3130    7.4400   31.8300 F         1 UFG341      0.0000 
     37 H          16.6353   18.3694   40.9216 H         1 UFG341      0.0000 
     38 H          19.2160   15.2745   39.7271 H         1 UFG341      0.0000 
     39 H          17.2894   13.8420   39.3807 H         1 UFG341      0.0000 
     40 H          13.8155   14.8240   39.9611 H         1 UFG341      0.0000 
     41 H          15.5661   13.7598   37.8263 H         1 UFG341      0.0000 
     42 H          14.2876   11.9002   37.5783 H         1 UFG341      0.0000 
     43 H          13.7460   11.4957   40.2301 H         1 UFG341      0.0000 
     44 H          15.4221   10.1589   39.1447 H         1 UFG341      0.0000 
     45 H          16.1593   10.9871   40.5269 H         1 UFG341      0.0000 
     46 H          16.3377    7.0111   35.1964 H         1 UFG341      0.0000 
     47 H          17.5400    5.3150   34.2608 H         1 UFG341      0.0000 
     48 H          20.1513    6.9212   34.2812 H         1 UFG341      0.0000 
     49 H          18.6092    6.2689   31.7531 H         1 UFG341      0.0000 
     50 H          18.7222    9.0178   33.0103 H         1 UFG341      0.0000 
     51 H          18.4187    8.8453   30.5621 H         1 UFG341      0.0000 
     52 H          17.1062    9.6546   31.4353 H         1 UFG341      0.0000 
     53 H          14.0231   14.6634   36.5460 H         1 UFG341      0.0000 
     54 H          12.3070   13.5662   38.2368 H         1 UFG341      0.0000 
     55 H          17.9406    4.9754   36.2384 H         1 UFG341      0.0000 
     56 H          19.5001    4.3290   33.9996 H         1 UFG341      0.0000 
     57 H          16.1142    7.4855   31.5677 H         1 UFG341      0.0000 
@<TRIPOS>BOND
     1    2    1 1    
     2    6    1 1    
     3    9    1 1    
     4    3    2 1    
     5    7    2 2    
     6    4    3 1    
     7   37    3 1    
     8    5    4 1    
     9    8    4 2    
    10    6    5 2    
    11   38    5 1    
    12   39    6 1    
    13   10    9 1    
    14   14    9 1    
    15   40    9 1    
    16   11   10 1    
    17   12   10 1    
    18   41   10 1    
    19   53   11 1    
    20   13   12 1    
    21   15   12 1    
    22   42   12 1    
    23   14   13 1    
    24   16   13 1    
    25   43   13 1    
    26   54   15 1    
    27   17   16 1    
    28   44   16 1    
    29   45   16 1    
    30   18   17 1    
    31   19   18 ar   
    32   20   18 ar   
    33   21   18 1    
    34   22   21 1    
    35   23   22 ar   
    36   24   22 ar   
    37   25   22 1    
    38   26   25 1    
    39   27   26 1    
    40   34   26 1    
    41   46   26 1    
    42   28   27 1    
    43   32   27 1    
    44   47   27 1    
    45   29   28 1    
    46   33   28 1    
    47   48   28 1    
    48   30   29 1    
    49   36   29 1    
    50   49   29 1    
    51   31   30 1    
    52   34   30 1    
    53   50   30 1    
    54   35   31 1    
    55   51   31 1    
    56   52   31 1    
    57   55   32 1    
    58   56   33 1    
    59   57   35 1    
@<TRIPOS>SUBSTRUCTURE
     1 UFG341      1 GROUP   
@<TRIPOS>SET

