#    Name: 4k9n_TZD_3_INTS_M
#    Modification time : Tue Mar 25 07:30:25 2014

@<TRIPOS>MOLECULE
4k9n_TZD_3_INTS_M
   81     0    12     0     0
SMALL
NO_CHARGES


@<TRIPOS>ATOM
      1 CA        -36.0240  183.1180  208.0915 C.3       4 GLC5        0.0000 
      2 CA        -37.6110  184.0270  209.3330 C.3      12 GLL5        0.0000 
      3 CA        -34.4370  182.2090  206.8500 C.3       8 GLP5        0.0000 
      4 CA        -38.8830  181.7005  208.8605 C.3       4 GLC5        0.0000 
      5 CA        -39.0650  183.6550  209.4550 C.3      12 GLL5        0.0000 
      6 CA        -38.7010  179.7460  208.2660 C.3       8 GLP5        0.0000 
      7 CA        -39.3585  183.2990  207.4110 C.3       4 GLC5        0.0000 
      8 CA        -39.6520  182.9430  205.3670 C.3       8 GLP5        0.0000 
      9 CA        -39.1940  185.3875  209.9400 C.3       4 GLC5        0.0000 
     10 CA        -39.3230  187.1200  210.4250 C.3       8 GLP5        0.0000 
     11 N         -37.2815  182.6700  211.2635 N.am      2 SEC2        0.0000 
     12 N         -36.6770  183.2170  209.8820 N.am     10 SEL2        0.0000 
     13 N         -37.8860  182.1230  212.6450 N.am      6 SEP2        0.0000 
     14 CA        -35.6990  183.9305  211.4870 C.3       4 GLC5        0.0000 
     15 CA        -35.3690  183.5260  209.7890 C.3      12 GLL5        0.0000 
     16 CA        -36.0290  184.3350  213.1850 C.3       8 GLP5        0.0000 
     17 O         -34.7225  181.6115  211.0545 O.2       1 ALC1        0.0000 
     18 O         -34.4280  182.7190  210.3340 O.2       9 ALL1        0.0000 
     19 O         -35.0170  180.5040  211.7750 O.2       5 ALP1        0.0000 
     20 CA        -35.1930  185.2355  211.0420 C.3       4 GLC5        0.0000 
     21 CA        -34.9870  184.7690  209.0800 C.3      12 GLL5        0.0000 
     22 CA        -35.3990  185.7020  213.0040 C.3       8 GLP5        0.0000 
     23 CA        -35.4875  184.7930  206.7815 C.3       4 GLC5        0.0000 
     24 CA        -36.0000  185.5460  208.5380 C.3      12 GLL5        0.0000 
     25 CA        -34.9750  184.0400  205.0250 C.3       8 GLP5        0.0000 
     26 CA        -32.5585  185.5305  207.5150 C.3       4 GLC5        0.0000 
     27 CA        -33.5420  185.1780  208.9220 C.3      12 GLL5        0.0000 
     28 CA        -31.5750  185.8830  206.1080 C.3       8 GLP5        0.0000 
     29 CA        -33.9895  183.6935  207.8860 C.3       4 GLC5        0.0000 
     30 CA        -31.5410  184.3035  214.2115 C.3       4 GLC5        0.0000 
     31 CA        -31.4740  185.2920  212.4050 C.3      12 GLL5        0.0000 
     32 CA        -31.6080  183.3150  216.0180 C.3       8 GLP5        0.0000 
     33 CA        -30.1740  186.0735  210.8450 C.3       4 GLC5        0.0000 
     34 CA        -28.8740  186.8550  209.2850 C.3       8 GLP5        0.0000 
     35 CA        -33.4030  189.5725  211.2350 C.3       4 GLC5        0.0000 
     36 CA        -33.5700  187.9760  210.0790 C.3      12 GLL5        0.0000 
     37 CA        -33.2360  191.1690  212.3910 C.3       8 GLP5        0.0000 
     38 CA        -30.1105  186.9985  213.0660 C.3       4 GLC5        0.0000 
     39 CA        -31.8210  187.9640  212.9540 C.3      12 GLL5        0.0000 
     40 CA        -28.4000  186.0330  213.1780 C.3       8 GLP5        0.0000 
     41 N         -35.2080  188.8240  216.5055 N.am      2 SEC2        0.0000 
     42 N         -33.9460  188.4420  216.8900 N.am     10 SEL2        0.0000 
     43 N         -36.4700  189.2060  216.1210 N.am      6 SEP2        0.0000 
     44 N         -34.7290  187.4540  216.6050 N.am      2 SEC2        0.0000 
     45 N         -35.5120  186.4660  216.3200 N.am      6 SEP2        0.0000 
     46 Zn        -31.8395  191.3185  217.3445 Zn        3 ZIC7        0.0000 
     47 Zn        -32.4770  190.5870  216.9890 Zn       11 ZIL7        0.0000 
     48 Zn        -31.2020  192.0500  217.7000 Zn        7 ZIP7        0.0000 
     49 N         -33.9175  191.1635  216.8990 N.am      2 SEC2        0.0000 
     50 N         -32.4770  190.5870  216.9890 N.am     10 SEL2        0.0000 
     51 N         -35.3580  191.7400  216.8090 N.am      6 SEP2        0.0000 
     52 Zn        -30.6190  191.1785  217.4345 Zn        3 ZIC7        0.0000 
     53 Zn        -30.0360  190.3070  217.1690 Zn       11 ZIL7        0.0000 
     54 N         -29.3270  190.7385  215.9785 N.am      2 SEC2        0.0000 
     55 N         -30.0360  190.3070  217.1690 N.am     10 SEL2        0.0000 
     56 N         -28.6180  191.1700  214.7880 N.am      6 SEP2        0.0000 
     57 N         -29.9450  186.8330  215.8785 N.am      2 SEC2        0.0000 
     58 N         -29.3350  188.1970  215.9480 N.am     10 SEL2        0.0000 
     59 N         -30.5550  185.4690  215.8090 N.am      6 SEP2        0.0000 
     60 N         -28.2060  188.3805  215.2160 N.am      2 SEC2        0.0000 
     61 N         -27.0770  188.5640  214.4840 N.am      6 SEP2        0.0000 
     62 N         -28.6810  186.9180  218.3420 N.am      2 SEC2        0.0000 
     63 N         -29.3490  188.2480  218.4760 N.am     10 SEL2        0.0000 
     64 N         -28.0130  185.5880  218.2080 N.am      6 SEP2        0.0000 
     65 N         -28.1065  188.2425  218.7675 N.am      2 SEC2        0.0000 
     66 N         -26.8640  188.2370  219.0590 N.am      6 SEP2        0.0000 
     67 CA        -37.9460  184.1420  211.3760 C.3       4 GLC5        0.0000 
     68 CA        -37.5540  184.4430  213.3580 C.3       8 GLP5        0.0000 
     69 CA        -34.8075  183.1782  208.1422 C.3       4 GLC5        0.0000 
     70 CA        -33.6003  185.8845  212.6010 C.3       4 GLC5        0.0000 
     71 CA        -30.1007  186.0500  212.6880 C.3       4 GLC5        0.0000 
     72 CA        -32.1290  186.8420  211.9910 C.3      12 GLL5        0.0000 
     73 CA        -30.6485  187.8220  211.0978 C.3       4 GLC5        0.0000 
     74 CA        -29.3220  188.2410  209.7230 C.3       8 GLP5        0.0000 
     75 CA        -34.3137  186.5422  211.6977 C.3       4 GLC5        0.0000 
     76 CA        -32.8870  186.7890  210.7040 C.3      12 GLL5        0.0000 
     77 CA        -31.8403  188.0662  209.6173 C.3       4 GLC5        0.0000 
     78 CA        -30.4520  188.7500  208.8430 C.3       8 GLP5        0.0000 
     79 CA        -33.7975  186.7987  213.3087 C.3       4 GLC5        0.0000 
     80 CA        -32.7545  189.3920  212.8819 C.3       4 GLC5        0.0000 
     81 CA        -32.5710  187.8270  214.2730 C.3      12 GLL5        0.0000 
@<TRIPOS>BOND
@<TRIPOS>SUBSTRUCTURE
     1 ALC1       17 GROUP        1 X    ALC  0     ROOT ALC X 1
     2 SEC2       11 GROUP        1 X    SEC  0     **** SEC X 2
     3 ZIC7       46 GROUP        1 X    ZIC  0     **** ZIC X 5
     4 GLC5        1 GROUP        1 X    GLC  0     **** GLC X 6
     5 ALP1       19 GROUP        1 Y    ALP  0     ROOT ALP Y 8
     6 SEP2       13 GROUP        1 Y    SEP  0     **** SEP Y 9
     7 ZIP7       48 GROUP        1 Y    ZIP  0     **** ZIP Y 12
     8 GLP5        3 GROUP        1 Y    GLP  0     **** GLP Y 13
     9 ALL1       18 GROUP        1 Z    ALL  0     ROOT ALL Z 15
    10 SEL2       12 GROUP        1 Z    SEL  0     **** SEL Z 16
    11 ZIL7       47 GROUP        1 Z    ZIL  0     **** ZIL Z 19
    12 GLL5        2 GROUP        1 Z    GLL  0     **** GLL Z 20
@<TRIPOS>SET

