#    Name: 4k9n_TZD_3_ligand
#    Modification time : Tue Mar 25 07:30:25 2014

@<TRIPOS>MOLECULE
4k9n_TZD_3_ligand
   42    43     1     0     0
SMALL
NO_CHARGES


@<TRIPOS>ATOM
      1 N1'       -37.2730  185.1620  208.6780 N.ar      1 TZD602      0.0000 
      2 C2'       -37.6110  184.0270  209.3330 C.ar      1 TZD602      0.0000 
      3 C2A       -39.0650  183.6550  209.4550 C.3       1 TZD602      0.0000 
      4 N3'       -36.6770  183.2170  209.8820 N.ar      1 TZD602      0.0000 
      5 C4'       -35.3690  183.5260  209.7890 C.ar      1 TZD602      0.0000 
      6 N4'       -34.4280  182.7190  210.3340 N.pl3     1 TZD602      0.0000 
      7 C5'       -34.9870  184.7690  209.0800 C.ar      1 TZD602      0.0000 
      8 C6'       -36.0000  185.5460  208.5380 C.ar      1 TZD602      0.0000 
      9 C35       -33.5420  185.1780  208.9220 C.3       1 TZD602      0.0000 
     10 N3        -32.8920  185.5420  210.1810 N.am      1 TZD602      0.0000 
     11 C2        -32.1980  184.6870  210.9490 C.2       1 TZD602      0.0000 
     12 OC2       -32.0800  183.4510  210.6230 O.2       1 TZD602      0.0000 
     13 S1        -31.4740  185.2920  212.4050 S.3       1 TZD602      0.0000 
     14 C5        -32.1290  186.8420  211.9910 C.2       1 TZD602      0.0000 
     15 C4        -32.8870  186.7890  210.7040 C.2       1 TZD602      0.0000 
     16 C4A       -33.5700  187.9760  210.0790 C.3       1 TZD602      0.0000 
     17 C5A       -31.8210  187.9640  212.9540 C.3       1 TZD602      0.0000 
     18 C5B       -32.5710  187.8270  214.2730 C.3       1 TZD602      0.0000 
     19 O5G       -32.3880  189.0430  214.9950 O.3       1 TZD602      0.0000 
     20 P1        -32.6530  189.1480  216.5790 P.3       1 TZD602      0.0000 
     21 O11       -31.4470  188.2840  217.2050 O.3       1 TZD602      0.0000 
     22 O12       -33.9460  188.4420  216.8900 O.co2     1 TZD602      0.0000 
     23 O13       -32.4770  190.5870  216.9890 O.co2     1 TZD602      0.0000 
     24 P2        -29.9230  188.8040  217.1960 P.3       1 TZD602      0.0000 
     25 O21       -30.0360  190.3070  217.1690 O.co2     1 TZD602      0.0000 
     26 O22       -29.3350  188.1970  215.9480 O.co2     1 TZD602      0.0000 
     27 O23       -29.3490  188.2480  218.4760 O.co2     1 TZD602      0.0000 
     28 H         -33.4769  182.9924  210.1901 H         1 TZD602      0.0000 
     29 H         -34.7675  181.9211  210.8321 H         1 TZD602      0.0000 
     30 H         -35.7486  186.4136  208.0325 H         1 TZD602      0.0000 
     31 H         -33.4960  186.0272  208.2079 H         1 TZD602      0.0000 
     32 H         -32.9944  184.3431  208.4358 H         1 TZD602      0.0000 
     33 H         -32.0864  188.9251  212.4920 H         1 TZD602      0.0000 
     34 H         -30.7415  187.9835  213.1589 H         1 TZD602      0.0000 
     35 H         -32.1628  186.9715  214.8054 H         1 TZD602      0.0000 
     36 H         -33.6180  187.6406  214.0474 H         1 TZD602      0.0000 
     37 H         -39.1885  182.7994  209.9576 H         1 TZD602      0.0000 
     38 H         -39.5887  184.3568  209.9379 H         1 TZD602      0.0000 
     39 H         -39.4937  183.5335  208.5597 H         1 TZD602      0.0000 
     40 H         -33.4470  188.8050  210.6246 H         1 TZD602      0.0000 
     41 H         -33.2136  188.1709  209.1652 H         1 TZD602      0.0000 
     42 H         -34.5549  187.8306  209.9846 H         1 TZD602      0.0000 
@<TRIPOS>BOND
     1    2    1 ar   
     2    8    1 ar   
     3    3    2 1    
     4    4    2 ar   
     5   37    3 1    
     6   38    3 1    
     7   39    3 1    
     8    5    4 ar   
     9    6    5 1    
    10    7    5 ar   
    11   28    6 1    
    12   29    6 1    
    13    8    7 ar   
    14    9    7 1    
    15   30    8 1    
    16   10    9 1    
    17   31    9 1    
    18   32    9 1    
    19   11   10 am   
    20   15   10 1    
    21   12   11 2    
    22   13   11 1    
    23   14   13 1    
    24   15   14 2    
    25   17   14 1    
    26   16   15 1    
    27   40   16 1    
    28   41   16 1    
    29   42   16 1    
    30   18   17 1    
    31   33   17 1    
    32   34   17 1    
    33   19   18 1    
    34   35   18 1    
    35   36   18 1    
    36   20   19 1    
    37   21   20 1    
    38   22   20 ar   
    39   23   20 ar   
    40   24   21 1    
    41   25   24 ar   
    42   26   24 ar   
    43   27   24 ar   
@<TRIPOS>SUBSTRUCTURE
     1 TZD602      1 GROUP   
@<TRIPOS>SET

