#    Name: 3a06_NDP_5_INTS_M
#    Modification time : Tue Mar 25 11:26:07 2014

@<TRIPOS>MOLECULE
3a06_NDP_5_INTS_M
   85     0     9     0     0
SMALL
NO_CHARGES


@<TRIPOS>ATOM
      1 N          37.0105   29.0460  -26.1810 N.am      2 SEC2        0.0000 
      2 N          38.3150   28.4150  -25.9990 N.am      8 SEL2        0.0000 
      3 N          35.7060   29.6770  -26.3630 N.am      5 SEP2        0.0000 
      4 CA         41.9385   31.2690  -24.5470 C.3       3 GLC5        0.0000 
      5 CA         40.6180   31.6440  -25.6470 C.3       9 GLL5        0.0000 
      6 CA         43.2590   30.8940  -23.4470 C.3       6 GLP5        0.0000 
      7 CA         40.9595   34.2110  -24.7970 C.3       3 GLC5        0.0000 
      8 CA         40.4240   33.0110  -26.3680 C.3       9 GLL5        0.0000 
      9 CA         41.4950   35.4110  -23.2260 C.3       6 GLP5        0.0000 
     10 N          42.2015   33.4910  -24.6730 N.am      2 SEC2        0.0000 
     11 N          41.6690   33.6860  -26.1480 N.am      8 SEL2        0.0000 
     12 N          42.7340   33.2960  -23.1980 N.am      5 SEP2        0.0000 
     13 CA         38.5435   32.1430  -27.8260 C.3       3 GLC5        0.0000 
     14 CA         40.2100   32.9970  -27.8990 C.3       9 GLL5        0.0000 
     15 CA         36.8770   31.2890  -27.7530 C.3       6 GLP5        0.0000 
     16 O          39.0230   34.2080  -29.7090 O.2       1 ALC1        0.0000 
     17 O          39.4580   34.1650  -28.2610 O.2       7 ALL1        0.0000 
     18 O          38.5880   34.2510  -31.1570 O.2       4 ALP1        0.0000 
     19 N          42.2230   35.1560  -30.5175 N.am      2 SEC2        0.0000 
     20 N          41.7100   33.7810  -29.7150 N.am      8 SEL2        0.0000 
     21 N          42.7360   36.5310  -31.3200 N.am      5 SEP2        0.0000 
     22 CA         40.5175   35.4000  -26.9465 C.3       3 GLC5        0.0000 
     23 CA         42.2250   34.1170  -27.4260 C.3       9 GLL5        0.0000 
     24 CA         38.8100   36.6830  -26.4670 C.3       6 GLP5        0.0000 
     25 CA         41.8600   34.7640  -25.3260 C.3       3 GLC5        0.0000 
     26 CA         47.5205   36.2335  -24.8610 C.3       3 GLC5        0.0000 
     27 CA         46.8480   35.2000  -26.6290 C.3       9 GLL5        0.0000 
     28 CA         48.1930   37.2670  -23.0930 C.3       6 GLP5        0.0000 
     29 CA         45.7595   38.3580  -27.7445 C.3       3 GLC5        0.0000 
     30 CA         45.4030   37.0170  -26.4460 C.3       9 GLL5        0.0000 
     31 CA         46.1160   39.6990  -29.0430 C.3       6 GLP5        0.0000 
     32 CA         43.7330   37.3550  -25.2975 C.3       3 GLC5        0.0000 
     33 CA         42.0630   37.6930  -24.1490 C.3       6 GLP5        0.0000 
     34 CA         46.7980   37.1420  -24.7695 C.3       3 GLC5        0.0000 
     35 CA         44.5725   35.0650  -28.7555 C.3       3 GLC5        0.0000 
     36 CA         44.5300   34.9390  -26.9880 C.3       9 GLL5        0.0000 
     37 CA         44.6150   35.1910  -30.5230 C.3       6 GLP5        0.0000 
     38 CA         43.5490   35.7335  -25.1585 C.3       3 GLC5        0.0000 
     39 CA         42.5680   36.5280  -23.3290 C.3       6 GLP5        0.0000 
     40 N          35.7265   30.5660  -23.8005 N.am      2 SEC2        0.0000 
     41 N          37.1490   30.4670  -23.6480 N.am      8 SEL2        0.0000 
     42 N          34.3040   30.6650  -23.9530 N.am      5 SEP2        0.0000 
     43 N          41.7865   31.7495  -17.0740 N.am      2 SEC2        0.0000 
     44 N          41.6570   30.9970  -18.5180 N.am      8 SEL2        0.0000 
     45 N          41.9160   32.5020  -15.6300 N.am      5 SEP2        0.0000 
     46 CA         40.0745   27.3835  -19.1215 C.3       3 GLC5        0.0000 
     47 CA         39.9820   29.2980  -18.9850 C.3       9 GLL5        0.0000 
     48 CA         40.1670   25.4690  -19.2580 C.3       6 GLP5        0.0000 
     49 CA         35.9145   29.7980  -19.9660 C.3       3 GLC5        0.0000 
     50 CA         37.0270   28.5710  -18.9520 C.3       9 GLL5        0.0000 
     51 CA         34.8020   31.0250  -20.9800 C.3       6 GLP5        0.0000 
     52 CA         38.5970   27.0200  -19.1050 C.3       3 GLC5        0.0000 
     53 CA         34.9865   29.5820  -14.8265 C.3       3 GLC5        0.0000 
     54 CA         35.9670   28.6950  -16.3450 C.3       9 GLL5        0.0000 
     55 CA         34.0060   30.4690  -13.3080 C.3       6 GLP5        0.0000 
     56 CA         38.4885   28.6220  -15.2555 C.3       3 GLC5        0.0000 
     57 CA         37.1220   29.4120  -16.6840 C.3       9 GLL5        0.0000 
     58 CA         39.8550   27.8320  -13.8270 C.3       6 GLP5        0.0000 
     59 N          39.5545   33.0865  -31.1205 N.am      2 SEC2        0.0000 
     60 N          40.5210   31.9220  -31.0840 N.am      8 SEL2        0.0000 
     61 N          38.5880   34.2510  -31.1570 N.am      5 SEP2        0.0000 
     62 N          42.2015   35.2395  -31.7710 N.am      2 SEC2        0.0000 
     63 N          41.6670   33.9480  -32.2220 N.am      8 SEL2        0.0000 
     64 N          42.7480   34.3940  -32.8400 N.am      2 SEC2        0.0000 
     65 N          43.8290   34.8400  -33.4580 N.am      5 SEP2        0.0000 
     66 N          41.7230   33.7560  -33.6175 N.am      2 SEC2        0.0000 
     67 N          41.7790   33.5640  -35.0130 N.am      5 SEP2        0.0000 
     68 CA         38.6990   31.8083  -26.8802 C.3       3 GLC5        0.0000 
     69 CA         39.5635   34.8435  -26.8002 C.3       3 GLC5        0.0000 
     70 CA         43.2760   34.4085  -29.2257 C.3       3 GLC5        0.0000 
     71 CA         46.2085   34.9155  -28.6195 C.3       3 GLC5        0.0000 
     72 CA         45.7840   34.3740  -26.9310 C.3       9 GLL5        0.0000 
     73 CA         46.1010   35.0440  -30.4590 C.3       6 GLP5        0.0000 
     74 CA         40.6142   32.5222  -18.4815 C.3       3 GLC5        0.0000 
     75 CA         39.8510   31.4470  -20.0860 C.3       9 GLL5        0.0000 
     76 CA         40.8700   34.1150  -17.1350 C.3       6 GLP5        0.0000 
     77 CA         41.7910   31.5057  -21.3694 C.3       3 GLC5        0.0000 
     78 CA         40.8660   30.4120  -19.5700 C.3       9 GLL5        0.0000 
     79 CA         43.3130   32.1300  -22.5380 C.3       6 GLP5        0.0000 
     80 CA         34.5890   29.0947  -19.1822 C.3       3 GLC5        0.0000 
     81 CA         35.8840   27.8450  -18.6510 C.3       9 GLL5        0.0000 
     82 CA         33.6070   30.3270  -20.4200 C.3       6 GLP5        0.0000 
     83 CA         33.7108   28.8638  -16.8788 C.3       3 GLC5        0.0000 
     84 CA         35.2580   27.8800  -17.2380 C.3       9 GLL5        0.0000 
     85 CA         31.8090   29.4400  -16.9660 C.3       6 GLP5        0.0000 
@<TRIPOS>BOND
@<TRIPOS>SUBSTRUCTURE
     1 ALC1       16 GROUP        1 X    ALC  0     ROOT ALC X 1
     2 SEC2        1 GROUP        1 X    SEC  0     **** SEC X 2
     3 GLC5        4 GROUP        1 X    GLC  0     **** GLC X 6
     4 ALP1       18 GROUP        1 Y    ALP  0     ROOT ALP Y 8
     5 SEP2        3 GROUP        1 Y    SEP  0     **** SEP Y 9
     6 GLP5        6 GROUP        1 Y    GLP  0     **** GLP Y 13
     7 ALL1       17 GROUP        1 Z    ALL  0     ROOT ALL Z 15
     8 SEL2        2 GROUP        1 Z    SEL  0     **** SEL Z 16
     9 GLL5        5 GROUP        1 Z    GLL  0     **** GLL Z 20
@<TRIPOS>SET

