#    Name: 3a06_NDP_5_ligand
#    Modification time : Tue Mar 25 11:26:08 2014

@<TRIPOS>MOLECULE
3a06_NDP_5_ligand
   74    78     1     0     0
SMALL
NO_CHARGES


@<TRIPOS>ATOM
      1 PA         39.6960   29.1970  -25.5350 P.3       1 NDP3002     0.0000 
      2 O1A        40.9450   28.4790  -25.9030 O.co2     1 NDP3002     0.0000 
      3 O2A        38.3150   28.4150  -25.9990 O.co2     1 NDP3002     0.0000 
      4 O5B        39.7560   30.6400  -26.1800 O.3       1 NDP3002     0.0000 
      5 C5B        40.6180   31.6440  -25.6470 C.3       1 NDP3002     0.0000 
      6 C4B        40.4240   33.0110  -26.3680 C.3       1 NDP3002     0.0000 
      7 O4B        41.6690   33.6860  -26.1480 O.3       1 NDP3002     0.0000 
      8 C3B        40.2100   32.9970  -27.8990 C.3       1 NDP3002     0.0000 
      9 O3B        39.4580   34.1650  -28.2610 O.3       1 NDP3002     0.0000 
     10 C2B        41.6490   33.1350  -28.4310 C.3       1 NDP3002     0.0000 
     11 O2B        41.7100   33.7810  -29.7150 O.3       1 NDP3002     0.0000 
     12 C1B        42.2250   34.1170  -27.4260 C.3       1 NDP3002     0.0000 
     13 N9A        43.6940   33.9590  -27.2950 N.pl3     1 NDP3002     0.0000 
     14 C8A        44.3940   32.8190  -27.4310 C.2       1 NDP3002     0.0000 
     15 N7A        45.6840   33.0780  -27.2110 N.2       1 NDP3002     0.0000 
     16 C5A        45.7840   34.3740  -26.9310 C.ar      1 NDP3002     0.0000 
     17 C6A        46.8480   35.2000  -26.6290 C.ar      1 NDP3002     0.0000 
     18 N6A        48.0710   34.6900  -26.5680 N.pl3     1 NDP3002     0.0000 
     19 N1A        46.6270   36.5000  -26.3900 N.ar      1 NDP3002     0.0000 
     20 C2A        45.4030   37.0170  -26.4460 C.ar      1 NDP3002     0.0000 
     21 N3A        44.3590   36.2580  -26.7440 N.ar      1 NDP3002     0.0000 
     22 C4A        44.5300   34.9390  -26.9880 C.ar      1 NDP3002     0.0000 
     23 O3         39.6000   29.3990  -23.9240 O.3       1 NDP3002     0.0000 
     24 PN         38.2100   29.4060  -23.0500 P.3       1 NDP3002     0.0000 
     25 O1N        37.6760   28.0540  -22.7630 O.co2     1 NDP3002     0.0000 
     26 O2N        37.1490   30.4670  -23.6480 O.co2     1 NDP3002     0.0000 
     27 O5D        38.6310   30.1290  -21.6760 O.3       1 NDP3002     0.0000 
     28 C5D        39.4930   31.2550  -21.5770 C.3       1 NDP3002     0.0000 
     29 C4D        39.8510   31.4470  -20.0860 C.3       1 NDP3002     0.0000 
     30 O4D        38.6070   31.1870  -19.3600 O.3       1 NDP3002     0.0000 
     31 C3D        40.8660   30.4120  -19.5700 C.3       1 NDP3002     0.0000 
     32 O3D        41.6570   30.9970  -18.5180 O.3       1 NDP3002     0.0000 
     33 C2D        39.9820   29.2980  -18.9850 C.3       1 NDP3002     0.0000 
     34 O2D        40.6550   28.5630  -17.9530 O.3       1 NDP3002     0.0000 
     35 C1D        38.8730   30.1320  -18.3490 C.3       1 NDP3002     0.0000 
     36 N1N        37.6550   29.3560  -17.9890 N.pl3     1 NDP3002     0.0000 
     37 C2N        37.0270   28.5710  -18.9520 C.2       1 NDP3002     0.0000 
     38 C3N        35.8840   27.8450  -18.6510 C.2       1 NDP3002     0.0000 
     39 C7N        35.2640   27.0140  -19.7820 C.2       1 NDP3002     0.0000 
     40 O7N        34.2520   26.3340  -19.6060 O.2       1 NDP3002     0.0000 
     41 N7N        35.9170   27.0920  -20.9400 N.am      1 NDP3002     0.0000 
     42 C4N        35.2580   27.8800  -17.2380 C.3       1 NDP3002     0.0000 
     43 C5N        35.9670   28.6950  -16.3450 C.2       1 NDP3002     0.0000 
     44 C6N        37.1220   29.4120  -16.6840 C.2       1 NDP3002     0.0000 
     45 P2B        41.6610   32.8570  -31.0890 P.3       1 NDP3002     0.0000 
     46 O1X        40.5210   31.9220  -31.0840 O.co2     1 NDP3002     0.0000 
     47 O2X        41.6670   33.9480  -32.2220 O.co2     1 NDP3002     0.0000 
     48 O3X        43.0200   32.1540  -31.2190 O.co2     1 NDP3002     0.0000 
     49 H          41.6811   31.3755  -25.7535 H         1 NDP3002     0.0000 
     50 H          40.4346   31.8201  -24.5751 H         1 NDP3002     0.0000 
     51 H          39.6363   33.5464  -25.8922 H         1 NDP3002     0.0000 
     52 H          39.8121   32.0999  -28.1847 H         1 NDP3002     0.0000 
     53 H          42.1448   32.2398  -28.3535 H         1 NDP3002     0.0000 
     54 H          41.9460   35.0856  -27.6520 H         1 NDP3002     0.0000 
     55 H          44.0162   31.9515  -27.6533 H         1 NDP3002     0.0000 
     56 H          48.1433   33.7023  -26.7064 H         1 NDP3002     0.0000 
     57 H          48.8101   35.3394  -26.3891 H         1 NDP3002     0.0000 
     58 H          45.2642   38.0441  -26.2504 H         1 NDP3002     0.0000 
     59 H          39.0184   32.1721  -21.9182 H         1 NDP3002     0.0000 
     60 H          40.4248   31.1131  -22.1195 H         1 NDP3002     0.0000 
     61 H          40.1893   32.4178  -19.9150 H         1 NDP3002     0.0000 
     62 H          41.4129   30.0367  -20.3674 H         1 NDP3002     0.0000 
     63 H          39.5818   28.7352  -19.7533 H         1 NDP3002     0.0000 
     64 H          39.2990   30.6111  -17.4707 H         1 NDP3002     0.0000 
     65 H          37.4218   28.5297  -19.9094 H         1 NDP3002     0.0000 
     66 H          35.5405   26.5545  -21.6946 H         1 NDP3002     0.0000 
     67 H          36.7251   27.6810  -20.9507 H         1 NDP3002     0.0000 
     68 H          35.2004   26.8254  -16.8911 H         1 NDP3002     0.0000 
     69 H          34.2050   28.2122  -17.3665 H         1 NDP3002     0.0000 
     70 H          35.6089   28.7733  -15.3570 H         1 NDP3002     0.0000 
     71 H          37.5922   29.9900  -15.9725 H         1 NDP3002     0.0000 
     72 H          39.2745   34.0618  -29.2386 H         1 NDP3002     0.0000 
     73 H          42.2511   31.6571  -18.9776 H         1 NDP3002     0.0000 
     74 H          41.3850   29.1693  -17.6376 H         1 NDP3002     0.0000 
@<TRIPOS>BOND
     1    2    1 ar   
     2    3    1 ar   
     3    4    1 1    
     4   23    1 1    
     5    5    4 1    
     6    6    5 1    
     7   49    5 1    
     8   50    5 1    
     9    7    6 1    
    10    8    6 1    
    11   51    6 1    
    12   12    7 1    
    13    9    8 1    
    14   10    8 1    
    15   52    8 1    
    16   72    9 1    
    17   11   10 1    
    18   12   10 1    
    19   53   10 1    
    20   45   11 1    
    21   13   12 1    
    22   54   12 1    
    23   14   13 1    
    24   22   13 1    
    25   15   14 2    
    26   55   14 1    
    27   16   15 1    
    28   17   16 ar   
    29   22   16 ar   
    30   18   17 1    
    31   19   17 ar   
    32   56   18 1    
    33   57   18 1    
    34   20   19 ar   
    35   21   20 ar   
    36   58   20 1    
    37   22   21 ar   
    38   24   23 1    
    39   25   24 ar   
    40   26   24 ar   
    41   27   24 1    
    42   28   27 1    
    43   29   28 1    
    44   59   28 1    
    45   60   28 1    
    46   30   29 1    
    47   31   29 1    
    48   61   29 1    
    49   35   30 1    
    50   32   31 1    
    51   33   31 1    
    52   62   31 1    
    53   73   32 1    
    54   34   33 1    
    55   35   33 1    
    56   63   33 1    
    57   74   34 1    
    58   36   35 1    
    59   64   35 1    
    60   37   36 1    
    61   44   36 1    
    62   38   37 2    
    63   65   37 1    
    64   39   38 1    
    65   42   38 1    
    66   40   39 2    
    67   41   39 am   
    68   66   41 1    
    69   67   41 1    
    70   43   42 1    
    71   68   42 1    
    72   69   42 1    
    73   44   43 2    
    74   70   43 1    
    75   71   44 1    
    76   46   45 ar   
    77   47   45 ar   
    78   48   45 ar   
@<TRIPOS>SUBSTRUCTURE
     1 NDP3002     1 GROUP   
@<TRIPOS>SET

