#    Name: 1dgj_MCN_1_INTS_M
#    Modification time : Mon Mar 24 21:55:44 2014

@<TRIPOS>MOLECULE
1dgj_MCN_1_INTS_M
  113     0     9     0     0
SMALL
NO_CHARGES


@<TRIPOS>ATOM
      1 N           9.2005   45.6760   69.0250 N.am      2 SEC2        0.0000 
      2 N           7.9230   46.1090   69.7170 N.am      8 SEL2        0.0000 
      3 N          10.4780   45.2430   68.3330 N.am      5 SEP2        0.0000 
      4 CA          3.5340   45.4495   70.2285 C.3       3 GLC5        0.0000 
      5 CA          5.5100   45.9550   70.0670 C.3       9 GLL5        0.0000 
      6 CA          1.5580   44.9440   70.3900 C.3       6 GLP5        0.0000 
      7 N          10.3500   47.8750   69.4975 N.am      2 SEC2        0.0000 
      8 N           8.9500   48.1700   69.8630 N.am      8 SEL2        0.0000 
      9 N          11.7500   47.5800   69.1320 N.am      5 SEP2        0.0000 
     10 O           7.6010   43.0670   69.0505 O.2       1 ALC1        0.0000 
     11 O           6.7980   44.0250   69.5780 O.2       7 ALL1        0.0000 
     12 O           8.4040   42.1090   68.5230 O.2       4 ALP1        0.0000 
     13 O           5.2630   43.9595   69.3510 O.2       1 ALC1        0.0000 
     14 O           3.7280   43.8940   69.1240 O.2       4 ALP1        0.0000 
     15 CA          7.6690   48.0115   71.7020 C.3       3 GLC5        0.0000 
     16 CA          6.6040   49.5100   70.4280 C.3       9 GLL5        0.0000 
     17 CA          8.7340   46.5130   72.9760 C.3       6 GLP5        0.0000 
     18 CA          5.6545   48.4405   72.0285 C.3       3 GLC5        0.0000 
     19 CA          4.7050   47.3710   73.6290 C.3       6 GLP5        0.0000 
     20 CA          4.6310   48.9180   68.1680 C.3       3 GLC5        0.0000 
     21 CA          5.7850   50.2580   69.3420 C.3       9 GLL5        0.0000 
     22 CA          3.4770   47.5780   66.9940 C.3       6 GLP5        0.0000 
     23 O           6.4465   49.6180   67.4415 O.2       1 ALC1        0.0000 
     24 O           6.6160   50.6160   68.2420 O.2       7 ALL1        0.0000 
     25 O           6.2770   48.6200   66.6410 O.2       4 ALP1        0.0000 
     26 CA          5.4680   50.9160   73.6360 C.3       3 GLC5        0.0000 
     27 CA          5.0350   50.9500   71.4840 C.3       9 GLL5        0.0000 
     28 CA          5.9010   50.8820   75.7880 C.3       6 GLP5        0.0000 
     29 CA          2.2955   49.8250   73.2840 C.3       3 GLC5        0.0000 
     30 CA          3.5940   50.6370   71.7390 C.3       9 GLL5        0.0000 
     31 CA          0.9970   49.0130   74.8290 C.3       6 GLP5        0.0000 
     32 N           1.7815   47.0820   72.0800 N.am      2 SEC2        0.0000 
     33 N           1.3420   48.3270   71.6010 N.am      8 SEL2        0.0000 
     34 N           2.2210   45.8370   72.5590 N.am      5 SEP2        0.0000 
     35 N           1.4870   48.1125   72.8750 N.am      2 SEC2        0.0000 
     36 N           1.6320   47.8980   74.1490 N.am      5 SEP2        0.0000 
     37 N           1.4530   48.8885   67.6260 N.am      2 SEC2        0.0000 
     38 N           1.2530   48.7540   69.0460 N.am      8 SEL2        0.0000 
     39 N           1.6530   49.0230   66.2060 N.am      5 SEP2        0.0000 
     40 N           1.9455   53.0445   68.0895 N.am      2 SEC2        0.0000 
     41 N           1.4330   52.4470   69.3170 N.am      8 SEL2        0.0000 
     42 N           2.4580   53.6420   66.8620 N.am      5 SEP2        0.0000 
     43 N           1.9045   53.9490   69.7495 N.am      2 SEC2        0.0000 
     44 N           2.3760   55.4510   70.1820 N.am      5 SEP2        0.0000 
     45 N          -1.1465   50.8455   68.1220 N.am      2 SEC2        0.0000 
     46 N          -1.0690   51.7700   69.4720 N.am      8 SEL2        0.0000 
     47 N          -1.2240   49.9210   66.7720 N.am      5 SEP2        0.0000 
     48 N          -0.9575   52.2040   68.1885 N.am      2 SEC2        0.0000 
     49 N          -0.8460   52.6380   66.9050 N.am      5 SEP2        0.0000 
     50 CA         -0.8740   54.9025   72.3110 C.3       3 GLC5        0.0000 
     51 CA         -0.9960   52.9750   72.2040 C.3       9 GLL5        0.0000 
     52 CA         -0.7520   56.8300   72.4180 C.3       6 GLP5        0.0000 
     53 CA         -1.4390   54.3550   70.6225 C.3       3 GLC5        0.0000 
     54 CA         -1.8820   55.7350   69.0410 C.3       6 GLP5        0.0000 
     55 CA          0.1130   50.7295   74.2210 C.3       3 GLC5        0.0000 
     56 CA         -0.7710   52.4460   73.6130 C.3       9 GLL5        0.0000 
     57 CA         -4.3715   52.4450   72.2480 C.3       3 GLC5        0.0000 
     58 CA         -3.3890   52.0920   73.5690 C.3       9 GLL5        0.0000 
     59 CA         -5.3540   52.7980   70.9270 C.3       6 GLP5        0.0000 
     60 CA         -2.8680   50.2460   72.3930 C.3       3 GLC5        0.0000 
     61 CA         -2.3470   48.4000   71.2170 C.3       6 GLP5        0.0000 
     62 CA         -3.0915   55.3040   77.5100 C.3       3 GLC5        0.0000 
     63 CA         -3.4290   53.7410   76.3710 C.3       9 GLL5        0.0000 
     64 CA         -2.7540   56.8670   78.6490 C.3       6 GLP5        0.0000 
     65 CA         -4.7245   55.2385   76.5765 C.3       3 GLC5        0.0000 
     66 CA         -6.0200   56.7360   76.7820 C.3       6 GLP5        0.0000 
     67 CA         -4.0670   52.7450   77.7000 C.3       3 GLC5        0.0000 
     68 CA         -4.7050   51.7490   79.0290 C.3       6 GLP5        0.0000 
     69 CA         -1.7800   55.3150   77.4555 C.3       3 GLC5        0.0000 
     70 CA         -0.8060   53.7630   76.2620 C.3       9 GLL5        0.0000 
     71 CA          2.2070   53.8355   74.5545 C.3       3 GLC5        0.0000 
     72 CA          0.3920   53.0790   75.6290 C.3       9 GLL5        0.0000 
     73 CA          4.0220   54.5920   73.4800 C.3       6 GLP5        0.0000 
     74 CA          0.6945   51.0460   75.2290 C.3       3 GLC5        0.0000 
     75 CA          2.9150   54.6380   74.9800 C.3       3 GLC5        0.0000 
     76 CA          1.8080   54.6840   76.4800 C.3       9 GLL5        0.0000 
     77 N           4.1775   54.0840   76.5970 N.am      2 SEC2        0.0000 
     78 N           3.0820   55.0370   76.8180 N.am      8 SEL2        0.0000 
     79 N           5.2730   53.1310   76.3760 N.am      5 SEP2        0.0000 
     80 CA          4.2080   57.7480   78.5695 C.3       3 GLC5        0.0000 
     81 CA          3.4080   56.3470   77.2320 C.3       9 GLL5        0.0000 
     82 CA          5.0080   59.1490   79.9070 C.3       6 GLP5        0.0000 
     83 CA          4.2960   55.9545   75.5105 C.3       3 GLC5        0.0000 
     84 CA          5.1840   55.5620   73.7890 C.3       6 GLP5        0.0000 
     85 O           5.7920   56.1160   77.8030 O.2       1 ALC1        0.0000 
     86 O           4.6540   56.7490   77.5690 O.2       7 ALL1        0.0000 
     87 O           6.9300   55.4830   78.0370 O.2       4 ALP1        0.0000 
     88 N          -0.4480   59.1910   77.2720 N.am      2 SEC2        0.0000 
     89 N           0.1790   57.8790   77.0410 N.am      8 SEL2        0.0000 
     90 N          -1.0750   60.5030   77.5030 N.am      5 SEP2        0.0000 
     91 N          -1.1020   58.0140   77.5515 N.am      2 SEC2        0.0000 
     92 N          -2.3830   58.1490   78.0620 N.am      5 SEP2        0.0000 
     93 CA          5.1182   46.7015   68.3993 C.3       3 GLC5        0.0000 
     94 CA          5.5170   47.3110   70.2660 C.3       9 GLL5        0.0000 
     95 CA          4.7230   46.7700   66.6320 C.3       6 GLP5        0.0000 
     96 CA          7.1238   46.5730   71.5713 C.3       3 GLC5        0.0000 
     97 CA          5.1093   47.0020   71.8978 C.3       3 GLC5        0.0000 
     98 CA          4.7458   51.3178   67.9332 C.3       3 GLC5        0.0000 
     99 CA          3.9680   51.7690   66.1570 C.3       6 GLP5        0.0000 
    100 CA          4.5098   49.0823   72.6202 C.3       3 GLC5        0.0000 
    101 CA          3.9931   52.6674   71.6319 C.3       3 GLC5        0.0000 
    102 CA          3.6150   54.4100   72.0040 C.3       6 GLP5        0.0000 
    103 CA         -1.8170   52.4305   77.5868 C.3       3 GLC5        0.0000 
    104 CA         -2.0460   53.3710   75.4810 C.3       9 GLL5        0.0000 
    105 CA         -2.2080   51.2940   79.3020 C.3       6 GLP5        0.0000 
    106 CA         -2.9117   51.0524   75.4205 C.3       3 GLC5        0.0000 
    107 CA         -3.4460   49.2170   76.1260 C.3       6 GLP5        0.0000 
    108 CA         -0.9210   56.5815   77.6943 C.3       3 GLC5        0.0000 
    109 CA          0.7530   55.6210   76.5180 C.3       9 GLL5        0.0000 
    110 CA          0.8684   57.1439   75.4535 C.3       3 GLC5        0.0000 
    111 CA          0.5610   58.2260   74.1770 C.3       6 GLP5        0.0000 
    112 CA          7.1108   50.9691   71.4059 C.3       3 GLC5        0.0000 
    113 CA          8.5500   51.3900   72.4790 C.3       6 GLP5        0.0000 
@<TRIPOS>BOND
@<TRIPOS>SUBSTRUCTURE
     1 ALC1       10 GROUP        1 X    ALC  0     ROOT ALC X 1
     2 SEC2        1 GROUP        1 X    SEC  0     **** SEC X 2
     3 GLC5        4 GROUP        1 X    GLC  0     **** GLC X 6
     4 ALP1       12 GROUP        1 Y    ALP  0     ROOT ALP Y 8
     5 SEP2        3 GROUP        1 Y    SEP  0     **** SEP Y 9
     6 GLP5        6 GROUP        1 Y    GLP  0     **** GLP Y 13
     7 ALL1       11 GROUP        1 Z    ALL  0     ROOT ALL Z 15
     8 SEL2        2 GROUP        1 Z    SEL  0     **** SEL Z 16
     9 GLL5        5 GROUP        1 Z    GLL  0     **** GLL Z 20
@<TRIPOS>SET

