#    Name: 1dgj_MCN_1_ligand
#    Modification time : Mon Mar 24 21:55:45 2014

@<TRIPOS>MOLECULE
1dgj_MCN_1_ligand
   62    66     1     0     0
SMALL
NO_CHARGES


@<TRIPOS>ATOM
      1 N1          6.6450   48.0580   70.2020 N.am      1 MCN914      0.0000 
      2 C2          7.9070   47.4790   69.9220 C.2       1 MCN914      0.0000 
      3 N3          7.9230   46.1090   69.7170 N.2       1 MCN914      0.0000 
      4 C4          6.8270   45.3670   69.7750 C.2       1 MCN914      0.0000 
      5 C5          5.5100   45.9550   70.0670 C.2       1 MCN914      0.0000 
      6 C6          5.5170   47.3110   70.2660 C.2       1 MCN914      0.0000 
      7 O2          8.9500   48.1700   69.8630 O.2       1 MCN914      0.0000 
      8 N4          6.7980   44.0250   69.5780 N.pl3     1 MCN914      0.0000 
      9 C1'         6.6040   49.5100   70.4280 C.3       1 MCN914      0.0000 
     10 C2D         5.7850   50.2580   69.3420 C.3       1 MCN914      0.0000 
     11 O2'         6.6160   50.6160   68.2420 O.3       1 MCN914      0.0000 
     12 C3'         5.2620   51.4750   70.0770 C.3       1 MCN914      0.0000 
     13 C4D         5.0350   50.9500   71.4840 C.3       1 MCN914      0.0000 
     14 O4D         5.8620   49.7530   71.6350 O.3       1 MCN914      0.0000 
     15 O3'         6.3010   52.4660   70.1740 O.3       1 MCN914      0.0000 
     16 C5'         3.5940   50.6370   71.7390 C.3       1 MCN914      0.0000 
     17 O5'         3.0470   49.8310   70.5140 O.3       1 MCN914      0.0000 
     18 PA          1.5600   49.3200   70.4900 P.3       1 MCN914      0.0000 
     19 O1A         1.3420   48.3270   71.6010 O.co2     1 MCN914      0.0000 
     20 O2A         1.2530   48.7540   69.0460 O.co2     1 MCN914      0.0000 
     21 O3A         0.6250   50.5960   70.8580 O.3       1 MCN914      0.0000 
     22 PB          0.3070   51.9720   70.0900 P.3       1 MCN914      0.0000 
     23 O1B         1.4330   52.4470   69.3170 O.co2     1 MCN914      0.0000 
     24 O2B        -1.0690   51.7700   69.4720 O.co2     1 MCN914      0.0000 
     25 O3B         0.2360   52.9420   71.4040 O.3       1 MCN914      0.0000 
     26 C10        -0.9960   52.9750   72.2040 C.3       1 MCN914      0.0000 
     27 C9'        -0.7710   52.4460   73.6130 C.3       1 MCN914      0.0000 
     28 C8'        -2.0290   52.7170   74.3290 C.2       1 MCN914      0.0000 
     29 S8'        -3.3890   52.0920   73.5690 S.3       1 MCN914      0.0000 
     30 C7'        -2.0460   53.3710   75.4810 C.2       1 MCN914      0.0000 
     31 S7'        -3.4290   53.7410   76.3710 S.3       1 MCN914      0.0000 
     32 C6'        -0.8060   53.7630   76.2620 C.ar      1 MCN914      0.0000 
     33 C7          0.3920   53.0790   75.6290 C.ar      1 MCN914      0.0000 
     34 O9'         0.3920   53.0970   74.2110 O.3       1 MCN914      0.0000 
     35 N5'        -0.5760   55.2230   76.1630 N.ar      1 MCN914      0.0000 
     36 C4A         0.7530   55.6210   76.5180 C.ar      1 MCN914      0.0000 
     37 N8'         1.6820   53.4150   76.0760 N.ar      1 MCN914      0.0000 
     38 C4B         1.8080   54.6840   76.4800 C.ar      1 MCN914      0.0000 
     39 N1'         3.0820   55.0370   76.8180 N.ar      1 MCN914      0.0000 
     40 C2'         3.4080   56.3470   77.2320 C.ar      1 MCN914      0.0000 
     41 N2'         4.6540   56.7490   77.5690 N.pl3     1 MCN914      0.0000 
     42 N3'         2.3470   57.3160   77.2820 N.ar      1 MCN914      0.0000 
     43 C4'         1.0710   56.9710   76.9610 C.ar      1 MCN914      0.0000 
     44 O4'         0.1790   57.8790   77.0410 O.3       1 MCN914      0.0000 
     45 H           4.7164   45.3771   70.1054 H         1 MCN914      0.0000 
     46 H           4.5977   47.7888   70.4785 H         1 MCN914      0.0000 
     47 H           7.6662   43.5987   69.3241 H         1 MCN914      0.0000 
     48 H           5.9110   43.5808   69.7041 H         1 MCN914      0.0000 
     49 H           7.5617   49.9393   70.4794 H         1 MCN914      0.0000 
     50 H           4.9649   49.6373   69.0825 H         1 MCN914      0.0000 
     51 H           4.3821   51.8026   69.6746 H         1 MCN914      0.0000 
     52 H           5.3710   51.7081   72.1803 H         1 MCN914      0.0000 
     53 H           3.0153   51.5409   71.8301 H         1 MCN914      0.0000 
     54 H           3.4842   50.0247   72.6184 H         1 MCN914      0.0000 
     55 H          -1.7804   52.3680   71.7272 H         1 MCN914      0.0000 
     56 H          -1.3793   54.0040   72.2773 H         1 MCN914      0.0000 
     57 H          -0.6254   51.3812   73.5317 H         1 MCN914      0.0000 
     58 H           5.3714   56.0549   77.5098 H         1 MCN914      0.0000 
     59 H           4.7477   57.7049   77.8476 H         1 MCN914      0.0000 
     60 H           6.7625   49.7635   67.7403 H         1 MCN914      0.0000 
     61 H           7.0142   52.1555   69.5455 H         1 MCN914      0.0000 
     62 H           0.5940   58.6869   76.6226 H         1 MCN914      0.0000 
@<TRIPOS>BOND
     1    2    1 am   
     2    6    1 1    
     3    9    1 1    
     4    3    2 1    
     5    7    2 2    
     6    4    3 2    
     7    5    4 1    
     8    8    4 1    
     9    6    5 2    
    10   45    5 1    
    11   46    6 1    
    12   47    8 1    
    13   48    8 1    
    14   10    9 1    
    15   14    9 1    
    16   49    9 1    
    17   11   10 1    
    18   12   10 1    
    19   50   10 1    
    20   60   11 1    
    21   13   12 1    
    22   15   12 1    
    23   51   12 1    
    24   14   13 1    
    25   16   13 1    
    26   52   13 1    
    27   61   15 1    
    28   17   16 1    
    29   53   16 1    
    30   54   16 1    
    31   18   17 1    
    32   19   18 ar   
    33   20   18 ar   
    34   21   18 1    
    35   22   21 1    
    36   23   22 ar   
    37   24   22 ar   
    38   25   22 1    
    39   26   25 1    
    40   27   26 1    
    41   55   26 1    
    42   56   26 1    
    43   28   27 1    
    44   34   27 1    
    45   57   27 1    
    46   29   28 1    
    47   30   28 2    
    48   31   30 1    
    49   32   30 1    
    50   33   32 ar   
    51   35   32 ar   
    52   34   33 1    
    53   37   33 ar   
    54   36   35 ar   
    55   38   36 ar   
    56   43   36 ar   
    57   38   37 ar   
    58   39   38 ar   
    59   40   39 ar   
    60   41   40 1    
    61   42   40 ar   
    62   58   41 1    
    63   59   41 1    
    64   43   42 ar   
    65   44   43 1    
    66   62   44 1    
@<TRIPOS>SUBSTRUCTURE
     1 MCN914      1 GROUP   
@<TRIPOS>SET

