#    Name: 3ps2_ZH4_1_INTS_M
#    Modification time : Tue Mar 25 08:25:45 2014

@<TRIPOS>MOLECULE
3ps2_ZH4_1_INTS_M
   79     0    12     0     0
SMALL
NO_CHARGES


@<TRIPOS>ATOM
      1 CA         34.7245   -7.9595   -8.9150 C.3       4 GLC5        0.0000 
      2 CA         32.6020   -7.9210   -8.7740 C.3      12 GLL5        0.0000 
      3 CA         36.8470   -7.9980   -9.0560 C.3       8 GLP5        0.0000 
      4 CA         30.4115   -4.9980  -13.1330 C.3       4 GLC5        0.0000 
      5 CA         30.4610   -6.1290  -14.4810 C.3      12 GLL5        0.0000 
      6 CA         30.3620   -3.8670  -11.7850 C.3       8 GLP5        0.0000 
      7 CA         27.8660   -8.9365   -4.1780 C.3       4 GLC5        0.0000 
      8 CA         29.6370   -9.8200   -4.5550 C.3      12 GLL5        0.0000 
      9 CA         26.0950   -8.0530   -3.8010 C.3       8 GLP5        0.0000 
     10 Zn         30.2450  -13.9950   -5.6660 Zn        3 ZIC7        0.0000 
     11 Zn         30.4830  -13.0110   -5.8550 Zn       11 ZIL7        0.0000 
     12 Zn         30.0070  -14.9790   -5.4770 Zn        7 ZIP7        0.0000 
     13 N          29.8520  -12.3140   -6.8055 N.am      2 SEC2        0.0000 
     14 N          30.4830  -13.0110   -5.8550 N.am     10 SEL2        0.0000 
     15 N          29.2210  -11.6170   -7.7560 N.am      6 SEP2        0.0000 
     16 N          32.6490  -13.5510   -3.2765 N.am      2 SEC2        0.0000 
     17 N          32.2410  -13.3920   -4.4680 N.am     10 SEL2        0.0000 
     18 N          33.0570  -13.7100   -2.0850 N.am      6 SEP2        0.0000 
     19 Zn         30.9950  -14.8225   -4.9915 Zn        3 ZIC7        0.0000 
     20 Zn         31.9830  -14.6660   -4.5060 Zn       11 ZIL7        0.0000 
     21 CA         33.6580  -11.8940   -5.4345 C.3       4 GLC5        0.0000 
     22 CA         31.6190  -11.0740   -5.2120 C.3      12 GLL5        0.0000 
     23 CA         35.6970  -12.7140   -5.6570 C.3       8 GLP5        0.0000 
     24 O          30.3470  -11.0565   -7.1190 O.2       1 ALC1        0.0000 
     25 O          31.4730  -10.4960   -6.4820 O.2       9 ALL1        0.0000 
     26 O          29.2210  -11.6170   -7.7560 O.2       5 ALP1        0.0000 
     27 N          34.7310  -10.4390   -6.2725 N.am      2 SEC2        0.0000 
     28 N          33.6000   -9.5800   -6.5820 N.am     10 SEL2        0.0000 
     29 N          35.8620  -11.2980   -5.9630 N.am      6 SEP2        0.0000 
     30 CA         31.9940   -5.4260  -10.8600 C.3       4 GLC5        0.0000 
     31 CA         32.2330   -7.3800  -10.0090 C.3      12 GLL5        0.0000 
     32 CA         31.7550   -3.4720  -11.7110 C.3       8 GLP5        0.0000 
     33 CA         33.7265   -6.9030  -11.5325 C.3       4 GLC5        0.0000 
     34 CA         35.2200   -6.4260  -13.0560 C.3       8 GLP5        0.0000 
     35 CA         27.1510   -6.2485  -17.6210 C.3       4 GLC5        0.0000 
     36 CA         28.4060   -4.6390  -17.0800 C.3      12 GLL5        0.0000 
     37 CA         25.8960   -7.8580  -18.1620 C.3       8 GLP5        0.0000 
     38 O          32.7140   -2.4500  -18.5075 O.2       1 ALC1        0.0000 
     39 O          31.4340   -2.5970  -19.2350 O.2       9 ALL1        0.0000 
     40 O          33.9940   -2.3030  -17.7800 O.2       5 ALP1        0.0000 
     41 CA         32.8235   -8.9217  -12.6357 C.3       4 GLC5        0.0000 
     42 CA         31.5150   -8.1360  -10.9420 C.3      12 GLL5        0.0000 
     43 CA         34.3120  -10.0490  -13.6900 C.3       8 GLP5        0.0000 
     44 CA         30.6817   -5.5130  -12.2580 C.3       4 GLC5        0.0000 
     45 CA         31.1550   -7.4530  -12.2210 C.3      12 GLL5        0.0000 
     46 CA         33.1107   -6.7925  -12.8935 C.3       4 GLC5        0.0000 
     47 CA         30.8480   -6.8650  -13.2410 C.3      12 GLL5        0.0000 
     48 CA         29.9905   -6.7040  -16.7385 C.3       4 GLC5        0.0000 
     49 CA         29.6800   -7.5860  -18.4970 C.3       8 GLP5        0.0000 
     50 CA         29.3297   -7.9650  -13.2755 C.3       4 GLC5        0.0000 
     51 CA         28.0050   -9.4330  -12.6900 C.3       8 GLP5        0.0000 
     52 CA         28.7927   -5.7240  -13.5770 C.3       4 GLC5        0.0000 
     53 CA         26.9310   -4.9510  -13.2930 C.3       8 GLP5        0.0000 
     54 CA         31.5880   -6.1390  -16.7970 C.3       4 GLC5        0.0000 
     55 CA         30.7470   -4.0660  -17.3970 C.3      12 GLL5        0.0000 
     56 CA         32.9290   -7.8780  -16.5520 C.3       8 GLP5        0.0000 
     57 CA         29.9635   -5.9930  -17.7695 C.3       4 GLC5        0.0000 
     58 CA         28.6665   -1.8460  -17.7142 C.3       4 GLC5        0.0000 
     59 CA         30.4180   -3.3080  -18.5260 C.3      12 GLL5        0.0000 
     60 CA         27.5830   -0.4300  -16.7000 C.3       8 GLP5        0.0000 
     61 CA         29.7150   -5.4240  -18.6127 C.3       4 GLC5        0.0000 
     62 CA         29.0820   -3.2160  -18.9310 C.3      12 GLL5        0.0000 
     63 CA         30.1030  -10.9125  -10.0693 C.3       4 GLC5        0.0000 
     64 CA         31.5160   -9.9990   -9.4170 C.3      12 GLL5        0.0000 
     65 CA         28.8760  -12.0980  -10.1010 C.3       8 GLP5        0.0000 
     66 CA         29.6223   -9.0289  -11.9049 C.3       4 GLC5        0.0000 
     67 CA         31.1440   -9.4550  -10.6580 C.3      12 GLL5        0.0000 
     68 CA         33.4183  -10.1840  -10.3571 C.3       4 GLC5        0.0000 
     69 CA         35.0510  -10.8850  -11.4520 C.3       8 GLP5        0.0000 
     70 CA         33.0998  -11.3790   -8.5070 C.3       4 GLC5        0.0000 
     71 CA         34.3210  -13.1390   -8.0620 C.3       8 GLP5        0.0000 
     72 CA         31.3150   -4.0288  -15.1322 C.3       4 GLC5        0.0000 
     73 CA         30.1410   -5.5150  -15.4790 C.3      12 GLL5        0.0000 
     74 CA         32.4360   -3.1000  -14.0040 C.3       8 GLP5        0.0000 
     75 CA         31.6634   -6.9420  -15.6110 C.3       4 GLC5        0.0000 
     76 CA         27.9130   -2.3447  -17.1725 C.3       4 GLC5        0.0000 
     77 CA         28.9615   -5.9228  -18.0710 C.3       4 GLC5        0.0000 
     78 CA         28.0800   -3.8800  -18.2100 C.3      12 GLL5        0.0000 
     79 CA         28.0530   -4.9164  -14.9372 C.3       4 GLC5        0.0000 
@<TRIPOS>BOND
@<TRIPOS>SUBSTRUCTURE
     1 ALC1       24 GROUP        1 X    ALC  0     ROOT ALC X 1
     2 SEC2       13 GROUP        1 X    SEC  0     **** SEC X 2
     3 ZIC7       10 GROUP        1 X    ZIC  0     **** ZIC X 5
     4 GLC5        1 GROUP        1 X    GLC  0     **** GLC X 6
     5 ALP1       26 GROUP        1 Y    ALP  0     ROOT ALP Y 8
     6 SEP2       15 GROUP        1 Y    SEP  0     **** SEP Y 9
     7 ZIP7       12 GROUP        1 Y    ZIP  0     **** ZIP Y 12
     8 GLP5        3 GROUP        1 Y    GLP  0     **** GLP Y 13
     9 ALL1       25 GROUP        1 Z    ALL  0     ROOT ALL Z 15
    10 SEL2       14 GROUP        1 Z    SEL  0     **** SEL Z 16
    11 ZIL7       11 GROUP        1 Z    ZIL  0     **** ZIL Z 19
    12 GLL5        2 GROUP        1 Z    GLL  0     **** GLL Z 20
@<TRIPOS>SET

