#    Name: 3ps2_ZH4_1_ligand
#    Modification time : Tue Mar 25 08:25:46 2014

@<TRIPOS>MOLECULE
3ps2_ZH4_1_ligand
   45    46     1     0     0
SMALL
NO_CHARGES


@<TRIPOS>ATOM
      1 C10        32.6020   -7.9210   -8.7740 C.ar      1 ZH4401      0.0000 
      2 C13        31.1550   -7.4530  -12.2210 C.1       1 ZH4401      0.0000 
      3 C15        30.4610   -6.1290  -14.4810 C.1       1 ZH4401      0.0000 
      4 C17        29.7470   -4.7340  -16.6870 C.ar      1 ZH4401      0.0000 
      5 C20        29.0820   -3.2160  -18.9310 C.ar      1 ZH4401      0.0000 
      6 C21        30.4180   -3.3080  -18.5260 C.ar      1 ZH4401      0.0000 
      7 C22        30.7470   -4.0660  -17.3970 C.ar      1 ZH4401      0.0000 
      8 C24        31.1440   -9.4550  -10.6580 C.ar      1 ZH4401      0.0000 
      9 C26        30.9550  -10.3230   -4.1830 C.3       1 ZH4401      0.0000 
     10 C28        29.6370   -9.8200   -4.5550 C.3       1 ZH4401      0.0000 
     11 O01        30.4830  -13.0110   -5.8550 O.2       1 ZH4401      0.0000 
     12 C02        31.3660  -12.5160   -5.1740 C.2       1 ZH4401      0.0000 
     13 N03        32.2410  -13.3920   -4.4680 N.2       1 ZH4401      0.0000 
     14 O04        31.9830  -14.6660   -4.5060 O.2       1 ZH4401      0.0000 
     15 C05        31.6190  -11.0740   -5.2120 C.3       1 ZH4401      0.0000 
     16 N06        31.4730  -10.4960   -6.4820 N.am      1 ZH4401      0.0000 
     17 C07        32.5480   -9.8260   -7.1490 C.2       1 ZH4401      0.0000 
     18 O08        33.6000   -9.5800   -6.5820 O.2       1 ZH4401      0.0000 
     19 C09        32.2410   -9.2390   -8.4870 C.ar      1 ZH4401      0.0000 
     20 C11        32.2330   -7.3800  -10.0090 C.ar      1 ZH4401      0.0000 
     21 C12        31.5150   -8.1360  -10.9420 C.ar      1 ZH4401      0.0000 
     22 C14        30.8480   -6.8650  -13.2410 C.1       1 ZH4401      0.0000 
     23 C16        30.1410   -5.5150  -15.4790 C.1       1 ZH4401      0.0000 
     24 C18        28.4060   -4.6390  -17.0800 C.ar      1 ZH4401      0.0000 
     25 C19        28.0800   -3.8800  -18.2100 C.ar      1 ZH4401      0.0000 
     26 N23        31.4340   -2.5970  -19.2350 N.pl3     1 ZH4401      0.0000 
     27 C25        31.5160   -9.9990   -9.4170 C.ar      1 ZH4401      0.0000 
     28 O27        31.0050  -10.8700   -2.9560 O.3       1 ZH4401      0.0000 
     29 H          33.1220   -7.3662   -8.0998 H         1 ZH4401      0.0000 
     30 H          28.8338   -2.6613  -19.7579 H         1 ZH4401      0.0000 
     31 H          31.7246   -4.1305  -17.0912 H         1 ZH4401      0.0000 
     32 H          30.6210  -10.0054  -11.3276 H         1 ZH4401      0.0000 
     33 H          31.6032   -9.3216   -4.1130 H         1 ZH4401      0.0000 
     34 H          32.7612  -10.9765   -4.9565 H         1 ZH4401      0.0000 
     35 H          30.5572  -10.5497   -6.9654 H         1 ZH4401      0.0000 
     36 H          32.4942   -6.4070  -10.2369 H         1 ZH4401      0.0000 
     37 H          27.6781   -5.1159  -16.5504 H         1 ZH4401      0.0000 
     38 H          27.1009   -3.8087  -18.5134 H         1 ZH4401      0.0000 
     39 H          31.1299   -2.0695  -20.0283 H         1 ZH4401      0.0000 
     40 H          32.3640   -2.6864  -18.8785 H         1 ZH4401      0.0000 
     41 H          31.2527  -10.9678   -9.1882 H         1 ZH4401      0.0000 
     42 H          29.6819   -9.2103   -5.3463 H         1 ZH4401      0.0000 
     43 H          29.0096  -10.5618   -4.7918 H         1 ZH4401      0.0000 
     44 H          29.2129   -9.3038   -3.8109 H         1 ZH4401      0.0000 
     45 H          31.9447  -11.1972   -2.8567 H         1 ZH4401      0.0000 
@<TRIPOS>BOND
     1   19    1 ar   
     2   20    1 ar   
     3   29    1 1    
     4   21    2 1    
     5   22    2 3    
     6   22    3 1    
     7   23    3 3    
     8    7    4 ar   
     9   23    4 1    
    10   24    4 ar   
    11    6    5 ar   
    12   25    5 ar   
    13   30    5 1    
    14    7    6 ar   
    15   26    6 1    
    16   31    7 1    
    17   21    8 ar   
    18   27    8 ar   
    19   32    8 1    
    20   10    9 1    
    21   15    9 1    
    22   28    9 1    
    23   33    9 1    
    24   42   10 1    
    25   43   10 1    
    26   44   10 1    
    27   12   11 2    
    28   13   12 1    
    29   15   12 1    
    30   14   13 2    
    31   16   15 1    
    32   34   15 1    
    33   17   16 am   
    34   35   16 1    
    35   18   17 2    
    36   19   17 1    
    37   27   19 ar   
    38   21   20 ar   
    39   36   20 1    
    40   25   24 ar   
    41   37   24 1    
    42   38   25 1    
    43   39   26 1    
    44   40   26 1    
    45   41   27 1    
    46   45   28 1    
@<TRIPOS>SUBSTRUCTURE
     1 ZH4401      1 GROUP   
@<TRIPOS>SET

