#    Name: 1pl2_ABY_1_INTS_M
#    Modification time : Mon Mar 24 21:53:13 2014

@<TRIPOS>MOLECULE
1pl2_ABY_1_INTS_M
   70     0    15     0     0
SMALL
NO_CHARGES


@<TRIPOS>ATOM
      1 CA         87.2930   24.7550   15.2055 C.3       5 GLC5        0.0000 
      2 CA         88.1430   25.7570   16.7160 C.3      15 GLL5        0.0000 
      3 CA         86.4430   23.7530   13.6950 C.3      10 GLP5        0.0000 
      4 CA         88.0650   25.7830   18.5475 C.3       5 GLC5        0.0000 
      5 CA         87.9870   25.8090   20.3790 C.3      10 GLP5        0.0000 
      6 CA         89.7695   26.1130   16.4155 C.3       5 GLC5        0.0000 
      7 CA         91.3960   26.4690   16.1150 C.3      10 GLP5        0.0000 
      8 CA         84.4125   32.0790   15.3710 C.3       5 GLC5        0.0000 
      9 CA         83.4770   30.1250   15.3760 C.3      15 GLL5        0.0000 
     10 CA         85.3480   34.0330   15.3660 C.3      10 GLP5        0.0000 
     11 CA         81.8605   28.6540   13.3130 C.3       5 GLC5        0.0000 
     12 CA         82.8140   30.2110   13.7660 C.3      15 GLL5        0.0000 
     13 CA         80.9070   27.0970   12.8600 C.3      10 GLP5        0.0000 
     14 CA         81.8860   33.2740   12.2005 C.3       5 GLC5        0.0000 
     15 CA         82.0090   31.8150   13.8340 C.3      15 GLL5        0.0000 
     16 CA         81.7630   34.7330   10.5670 C.3      10 GLP5        0.0000 
     17 CA         82.7340   33.4070   13.7135 C.3       5 GLC5        0.0000 
     18 CA         83.4590   34.9990   13.5930 C.3      10 GLP5        0.0000 
     19 CA         82.0260   33.4905   14.8320 C.3       5 GLC5        0.0000 
     20 CA         80.7560   31.7940   14.6990 C.3      15 GLL5        0.0000 
     21 CA         83.2960   35.1870   14.9650 C.3      10 GLP5        0.0000 
     22 O          79.8260   31.5155   12.6350 O.2       1 ALC1        0.0000 
     23 O          79.7500   31.0280   13.9930 O.2      11 ALL1        0.0000 
     24 O          79.9020   32.0030   11.2770 O.2       6 ALP1        0.0000 
     25 CA         77.4310   31.5530   13.3410 C.3       5 GLC5        0.0000 
     26 CA         78.0260   29.5000   13.4940 C.3      15 GLL5        0.0000 
     27 CA         76.8360   33.6060   13.1880 C.3      10 GLP5        0.0000 
     28 OD1        74.0755   26.2530   14.2275 O.co2     3 ASC3        0.0000 
     29 OD1        75.3410   26.7630   13.3660 O.co2    13 ASL3        0.0000 
     30 OD1        72.8100   25.7430   15.0890 O.co2     8 ASP3        0.0000 
     31 OD1        74.2210   27.2950   14.0345 O.co2     3 ASC3        0.0000 
     32 OD1        73.1010   27.8270   14.7030 O.co2     8 ASP3        0.0000 
     33 O          74.4345   27.0440   12.2575 O.2       1 ALC1        0.0000 
     34 O          75.3410   26.7630   13.3660 O.2      11 ALL1        0.0000 
     35 O          73.5280   27.3250   11.1490 O.2       6 ALP1        0.0000 
     36 O          74.0755   26.2530   14.2275 O.2       1 ALC1        0.0000 
     37 O          72.8100   25.7430   15.0890 O.2       6 ALP1        0.0000 
     38 O          74.2210   27.2950   14.0345 O.2       1 ALC1        0.0000 
     39 O          73.1010   27.8270   14.7030 O.2       6 ALP1        0.0000 
     40 N          79.4685   34.1910   12.5530 N.am      2 SEC2        0.0000 
     41 N          79.9810   33.9740   14.0160 N.am     12 SEL2        0.0000 
     42 N          78.9560   34.4080   11.0900 N.am      7 SEP2        0.0000 
     43 CA         78.0845   34.2220   15.6745 C.3       5 GLC5        0.0000 
     44 CA         79.8660   34.8720   16.7640 C.3      15 GLL5        0.0000 
     45 CA         76.3030   33.5720   14.5850 C.3      10 GLP5        0.0000 
     46 CA         81.5810   35.0295   15.8645 C.3       5 GLC5        0.0000 
     47 NZ         76.4900   34.0760   17.7580 N.4       4 LYC4        0.0000 
     48 NZ         77.9920   33.7390   17.7040 N.4      14 LYL4        0.0000 
     49 NZ         74.5270   35.6580   17.8760 N.4       9 LYP4        0.0000 
     50 N          76.9980   32.7065   16.8875 N.am      2 SEC2        0.0000 
     51 N          77.9920   33.7390   17.7040 N.am     12 SEL2        0.0000 
     52 N          76.0040   31.6740   16.0710 N.am      7 SEP2        0.0000 
     53 N          76.4900   34.0760   17.7580 N.am      2 SEC2        0.0000 
     54 N          74.9880   34.4130   17.8120 N.am      7 SEP2        0.0000 
     55 NZ         76.7695   36.2975   18.0180 N.4       4 LYC4        0.0000 
     56 NZ         78.1580   35.9300   18.0110 N.4      14 LYL4        0.0000 
     57 N          76.7695   36.2975   18.0180 N.am      2 SEC2        0.0000 
     58 N          78.1580   35.9300   18.0110 N.am     12 SEL2        0.0000 
     59 N          75.3810   36.6650   18.0250 N.am      7 SEP2        0.0000 
     60 CA         86.3925   25.5857   14.7828 C.3       5 GLC5        0.0000 
     61 CA         85.7030   27.1570   16.0060 C.3      15 GLL5        0.0000 
     62 CA         89.2203   28.1172   15.2145 C.3       5 GLC5        0.0000 
     63 CA         86.9810   27.6800   15.7350 C.3      15 GLL5        0.0000 
     64 CA         91.3960   27.8860   14.8950 C.3      10 GLP5        0.0000 
     65 CA         87.7950   30.8447   15.8535 C.3       5 GLC5        0.0000 
     66 CA         87.1080   29.0170   15.3330 C.3      15 GLL5        0.0000 
     67 CA         89.0470   32.2680   16.4400 C.3      10 GLP5        0.0000 
     68 CA         83.1502   31.1255   11.9825 C.3       5 GLC5        0.0000 
     69 CA         83.8890   31.2380   10.1650 C.3      10 GLP5        0.0000 
     70 CA         79.2690   28.0065   13.3115 C.3       5 GLC5        0.0000 
@<TRIPOS>BOND
@<TRIPOS>SUBSTRUCTURE
     1 ALC1       22 GROUP        1 X    ALC  0     ROOT ALC X 1
     2 SEC2       40 GROUP        1 X    SEC  0     **** SEC X 2
     3 ASC3       28 GROUP        1 X    ASC  0     **** ASC X 3
     4 LYC4       47 GROUP        1 X    LYC  0     **** LYC X 4
     5 GLC5        1 GROUP        1 X    GLC  0     **** GLC X 6
     6 ALP1       24 GROUP        1 Y    ALP  0     ROOT ALP Y 8
     7 SEP2       42 GROUP        1 Y    SEP  0     **** SEP Y 9
     8 ASP3       30 GROUP        1 Y    ASP  0     **** ASP Y 10
     9 LYP4       49 GROUP        1 Y    LYP  0     **** LYP Y 11
    10 GLP5        3 GROUP        1 Y    GLP  0     **** GLP Y 13
    11 ALL1       23 GROUP        1 Z    ALL  0     ROOT ALL Z 15
    12 SEL2       41 GROUP        1 Z    SEL  0     **** SEL Z 16
    13 ASL3       29 GROUP        1 Z    ASL  0     **** ASL Z 17
    14 LYL4       48 GROUP        1 Z    LYL  0     **** LYL Z 18
    15 GLL5        2 GROUP        1 Z    GLL  0     **** GLL Z 20
@<TRIPOS>SET

