#    Name: 1pl2_ABY_1_ligand
#    Modification time : Mon Mar 24 21:53:13 2014

@<TRIPOS>MOLECULE
1pl2_ABY_1_ligand
   51    51     1     0     0
SMALL
NO_CHARGES


@<TRIPOS>ATOM
      1 C7'        88.1430   25.7570   16.7160 C.3       1 ABY654      0.0000 
      2 O4'        88.1190   26.9100   15.8760 O.3       1 ABY654      0.0000 
      3 C4'        86.9810   27.6800   15.7350 C.ar      1 ABY654      0.0000 
      4 C5'        85.7030   27.1570   16.0060 C.ar      1 ABY654      0.0000 
      5 C6'        84.5800   27.9640   15.8790 C.ar      1 ABY654      0.0000 
      6 C1'        84.7160   29.2830   15.4710 C.ar      1 ABY654      0.0000 
      7 C2'        85.9780   29.8260   15.2010 C.ar      1 ABY654      0.0000 
      8 C3'        87.1080   29.0170   15.3330 C.ar      1 ABY654      0.0000 
      9 C'         83.4770   30.1250   15.3760 C.3       1 ABY654      0.0000 
     10 SG2        82.8140   30.2110   13.7660 S.3       1 ABY654      0.0000 
     11 CB2        82.0090   31.8150   13.8340 C.3       1 ABY654      0.0000 
     12 CA2        80.7560   31.7940   14.6990 C.3       1 ABY654      0.0000 
     13 N2         79.7500   31.0280   13.9930 N.am      1 ABY654      0.0000 
     14 CD1        79.0140   30.0730   14.4990 C.2       1 ABY654      0.0000 
     15 OE1        79.0910   29.6820   15.6570 O.2       1 ABY654      0.0000 
     16 CG1        78.0260   29.5000   13.4940 C.3       1 ABY654      0.0000 
     17 CB1        77.2360   28.3320   14.0320 C.3       1 ABY654      0.0000 
     18 CA1        75.9130   28.1540   13.2720 C.3       1 ABY654      0.0000 
     19 N1         75.3410   26.7630   13.3660 N.4       1 ABY654      0.0000 
     20 C2         80.2560   33.2100   14.9620 C.2       1 ABY654      0.0000 
     21 O2         79.9810   33.9740   14.0160 O.2       1 ABY654      0.0000 
     22 N3         80.2160   33.5470   16.2520 N.am      1 ABY654      0.0000 
     23 CA3        79.8660   34.8720   16.7640 C.3       1 ABY654      0.0000 
     24 C3         78.5760   34.8410   17.5450 C.2       1 ABY654      0.0000 
     25 O31        77.9920   33.7390   17.7040 O.co2     1 ABY654      0.0000 
     26 O32        78.1580   35.9300   18.0110 O.co2     1 ABY654      0.0000 
     27 H          85.6095   26.1774   16.2972 H         1 ABY654      0.0000 
     28 H          83.6470   27.5830   16.0877 H         1 ABY654      0.0000 
     29 H          86.0685   30.7995   14.9119 H         1 ABY654      0.0000 
     30 H          88.0409   29.4019   15.1346 H         1 ABY654      0.0000 
     31 H          83.6503   31.1645   15.6345 H         1 ABY654      0.0000 
     32 H          82.6547   29.7371   15.9683 H         1 ABY654      0.0000 
     33 H          81.8101   32.0229   12.8008 H         1 ABY654      0.0000 
     34 H          82.7822   32.4506   14.2193 H         1 ABY654      0.0000 
     35 H          80.9987   31.3279   15.6356 H         1 ABY654      0.0000 
     36 H          79.6387   31.3117   12.9601 H         1 ABY654      0.0000 
     37 H          78.5773   29.1836   12.5935 H         1 ABY654      0.0000 
     38 H          77.3317   30.2976   13.1829 H         1 ABY654      0.0000 
     39 H          77.0139   28.4915   15.0894 H         1 ABY654      0.0000 
     40 H          77.8210   27.4147   13.9366 H         1 ABY654      0.0000 
     41 H          76.0819   28.4131   12.2133 H         1 ABY654      0.0000 
     42 H          75.1836   28.8807   13.6674 H         1 ABY654      0.0000 
     43 H          80.4479   32.8338   17.0057 H         1 ABY654      0.0000 
     44 H          79.7573   35.5881   15.9344 H         1 ABY654      0.0000 
     45 H          80.6644   35.2538   17.4194 H         1 ABY654      0.0000 
     46 H          89.0386   25.3122   16.7107 H         1 ABY654      0.0000 
     47 H          87.9351   25.9859   17.6670 H         1 ABY654      0.0000 
     48 H          87.4741   25.0725   16.4263 H         1 ABY654      0.0000 
     49 H          76.0579   26.0723   13.4618 H         1 ABY654      0.0000 
     50 H          74.7319   26.6644   14.1529 H         1 ABY654      0.0000 
     51 H          74.8104   26.5239   12.5528 H         1 ABY654      0.0000 
@<TRIPOS>BOND
     1    2    1 1    
     2   46    1 1    
     3   47    1 1    
     4   48    1 1    
     5    3    2 1    
     6    4    3 ar   
     7    8    3 ar   
     8    5    4 ar   
     9   27    4 1    
    10    6    5 ar   
    11   28    5 1    
    12    7    6 ar   
    13    9    6 1    
    14    8    7 ar   
    15   29    7 1    
    16   30    8 1    
    17   10    9 1    
    18   31    9 1    
    19   32    9 1    
    20   11   10 1    
    21   12   11 1    
    22   33   11 1    
    23   34   11 1    
    24   13   12 1    
    25   20   12 1    
    26   35   12 1    
    27   14   13 am   
    28   36   13 1    
    29   15   14 2    
    30   16   14 1    
    31   17   16 1    
    32   37   16 1    
    33   38   16 1    
    34   18   17 1    
    35   39   17 1    
    36   40   17 1    
    37   19   18 1    
    38   41   18 1    
    39   42   18 1    
    40   49   19 1    
    41   50   19 1    
    42   51   19 1    
    43   21   20 2    
    44   22   20 am   
    45   23   22 1    
    46   43   22 1    
    47   24   23 1    
    48   44   23 1    
    49   45   23 1    
    50   25   24 ar   
    51   26   24 ar   
@<TRIPOS>SUBSTRUCTURE
     1 ABY654      1 GROUP   
@<TRIPOS>SET

