#    Name: 3ac5_KZM_1_INTS_M
#    Modification time : Tue Mar 25 11:41:15 2014

@<TRIPOS>MOLECULE
3ac5_KZM_1_INTS_M
   42     0     9     0     0
SMALL
NO_CHARGES


@<TRIPOS>ATOM
      1 N          25.4560   39.6120   11.4870 N.am      2 SEC2        0.0000 
      2 N          25.6210   38.9640   10.3440 N.am      8 SEL2        0.0000 
      3 N          25.2910   40.2600   12.6300 N.am      5 SEP2        0.0000 
      4 O          22.6125   39.6545   10.5790 O.2       1 ALC1        0.0000 
      5 O          23.4440   38.4900   10.0640 O.2       7 ALL1        0.0000 
      6 O          21.7810   40.8190   11.0940 O.2       4 ALP1        0.0000 
      7 CA         27.6320   37.6680    7.7635 C.3       3 GLC5        0.0000 
      8 CA         26.5120   36.6840    8.8110 C.3       9 GLL5        0.0000 
      9 CA         28.7520   38.6520    6.7160 C.3       6 GLP5        0.0000 
     10 CA         24.5330   38.9890    8.0880 C.3       3 GLC5        0.0000 
     11 CA         25.1140   37.1340    8.9700 C.3       9 GLL5        0.0000 
     12 CA         23.9520   40.8440    7.2060 C.3       6 GLP5        0.0000 
     13 CA         31.7305   37.1850   13.7045 C.3       3 GLC5        0.0000 
     14 CA         32.8620   37.5290   11.9750 C.3       9 GLL5        0.0000 
     15 CA         30.5990   36.8410   15.4340 C.3       6 GLP5        0.0000 
     16 CA         29.6880   37.1045    7.8250 C.3       3 GLC5        0.0000 
     17 CA         30.6240   35.5570    8.9340 C.3       9 GLL5        0.0000 
     18 CA         29.0740   33.0170    3.2605 C.3       3 GLC5        0.0000 
     19 CA         28.6770   31.7000    5.0240 C.3       9 GLL5        0.0000 
     20 CA         29.4710   34.3340    1.4970 C.3       6 GLP5        0.0000 
     21 CA         30.8165   35.9895    5.9860 C.3       3 GLC5        0.0000 
     22 CA         31.9200   34.6670    7.0910 C.3       9 GLL5        0.0000 
     23 CA         29.7130   37.3120    4.8810 C.3       6 GLP5        0.0000 
     24 CA         18.6515   34.7705    3.7460 C.3       3 GLC5        0.0000 
     25 CA         18.3610   34.7280    5.8340 C.3       9 GLL5        0.0000 
     26 CA         18.9420   34.8130    1.6580 C.3       6 GLP5        0.0000 
     27 CA         24.5015   36.1100   10.1338 C.3       3 GLC5        0.0000 
     28 CA         23.1900   35.3110   11.3770 C.3       6 GLP5        0.0000 
     29 CA         29.0499   37.8696    8.2541 C.3       3 GLC5        0.0000 
     30 CA         28.7980   36.9810    9.5850 C.3       9 GLL5        0.0000 
     31 CA         27.8308   31.1792    9.4277 C.3       3 GLC5        0.0000 
     32 CA         27.3320   32.3160    7.6710 C.3       9 GLL5        0.0000 
     33 CA         27.8660   30.6400   11.3020 C.3       6 GLP5        0.0000 
     34 CA         19.8912   35.7308    4.1020 C.3       3 GLC5        0.0000 
     35 CA         18.8380   36.0350    5.8820 C.3       9 GLL5        0.0000 
     36 CA         20.2990   35.2950    2.0980 C.3       6 GLP5        0.0000 
     37 CA         18.9903   37.9738    6.6765 C.3       3 GLC5        0.0000 
     38 CA         18.4970   39.7810    7.2470 C.3       6 GLP5        0.0000 
     39 CA         18.4699   32.8164    7.1440 C.3       3 GLC5        0.0000 
     40 CA         17.8470   31.3620    8.1440 C.3       6 GLP5        0.0000 
     41 CA         29.5221   35.8865   11.0933 C.3       3 GLC5        0.0000 
     42 CA         28.9030   35.1230   12.5390 C.3       6 GLP5        0.0000 
@<TRIPOS>BOND
@<TRIPOS>SUBSTRUCTURE
     1 ALC1        4 GROUP        1 X    ALC  0     ROOT ALC X 1
     2 SEC2        1 GROUP        1 X    SEC  0     **** SEC X 2
     3 GLC5        7 GROUP        1 X    GLC  0     **** GLC X 6
     4 ALP1        6 GROUP        1 Y    ALP  0     ROOT ALP Y 8
     5 SEP2        3 GROUP        1 Y    SEP  0     **** SEP Y 9
     6 GLP5        9 GROUP        1 Y    GLP  0     **** GLP Y 13
     7 ALL1        5 GROUP        1 Z    ALL  0     ROOT ALL Z 15
     8 SEL2        2 GROUP        1 Z    SEL  0     **** SEL Z 16
     9 GLL5        8 GROUP        1 Z    GLL  0     **** GLL Z 20
@<TRIPOS>SET

