#    Name: 3ac5_KZM_1_ligand
#    Modification time : Tue Mar 25 11:41:16 2014

@<TRIPOS>MOLECULE
3ac5_KZM_1_ligand
   69    73     1     0     0
SMALL
NO_CHARGES


@<TRIPOS>ATOM
      1 O1         25.6210   38.9640   10.3440 O.2       1 KZM513      0.0000 
      2 O2         31.8320   38.1670   11.2130 O.3       1 KZM513      0.0000 
      3 O3         31.0940   34.4740    8.2360 O.3       1 KZM513      0.0000 
      4 N4         26.7650   35.6330    7.9940 N.2       1 KZM513      0.0000 
      5 N5         26.0040   33.9630    6.4940 N.pl3     1 KZM513      0.0000 
      6 N6         23.4440   38.4900   10.0640 N.am      1 KZM513      0.0000 
      7 C7         24.0920   36.4090    8.2040 C.2       1 KZM513      0.0000 
      8 N8         27.5030   37.3530    9.5400 N.pl3     1 KZM513      0.0000 
      9 C9         31.4880   36.3230    9.7160 C.ar      1 KZM513      0.0000 
     10 C10        27.3570   32.4580    5.1580 C.3       1 KZM513      0.0000 
     11 C11        29.2730   35.8880    8.8700 C.ar      1 KZM513      0.0000 
     12 C12        26.5120   36.6840    8.8110 C.2       1 KZM513      0.0000 
     13 C13        24.7400   38.2730    9.8560 C.2       1 KZM513      0.0000 
     14 N14        24.4820   35.4130    7.4420 N.pl3     1 KZM513      0.0000 
     15 C15        29.6600   37.7400   10.3570 C.ar      1 KZM513      0.0000 
     16 C16        25.1140   37.1340    8.9700 C.2       1 KZM513      0.0000 
     17 C17        28.7980   36.9810    9.5850 C.ar      1 KZM513      0.0000 
     18 C18        31.0030   37.4140   10.4280 C.ar      1 KZM513      0.0000 
     19 C19        27.2620   33.2440    6.4660 C.3       1 KZM513      0.0000 
     20 C20        32.8620   37.5290   11.9750 C.3       1 KZM513      0.0000 
     21 C21        25.7570   35.0090    7.3210 C.2       1 KZM513      0.0000 
     22 C22        30.6240   35.5570    8.9340 C.ar      1 KZM513      0.0000 
     23 C23        27.3320   32.3160    7.6710 C.3       1 KZM513      0.0000 
     24 C24        28.6770   31.7000    5.0240 C.3       1 KZM513      0.0000 
     25 C25        29.3150   31.4180    6.3820 C.3       1 KZM513      0.0000 
     26 C26        31.9200   34.6670    7.0910 C.3       1 KZM513      0.0000 
     27 C27        28.2590   31.1210    7.4360 C.3       1 KZM513      0.0000 
     28 N28        25.9890   31.8460    7.9690 N.4       1 KZM513      0.0000 
     29 N29        22.7460   36.4920    8.0620 N.2       1 KZM513      0.0000 
     30 N30        23.4250   34.8080    6.7820 N.2       1 KZM513      0.0000 
     31 C31        22.3400   35.5130    7.2030 C.2       1 KZM513      0.0000 
     32 C32        20.9430   35.2500    6.7430 C.ar      1 KZM513      0.0000 
     33 C33        20.4690   33.9450    6.6790 C.ar      1 KZM513      0.0000 
     34 C34        20.1290   36.2980    6.3300 C.ar      1 KZM513      0.0000 
     35 C35        19.1800   33.6820    6.2290 C.ar      1 KZM513      0.0000 
     36 C36        18.8380   36.0350    5.8820 C.ar      1 KZM513      0.0000 
     37 C37        18.3610   34.7280    5.8340 C.ar      1 KZM513      0.0000 
     38 O66        18.0370   37.0600    5.4790 O.3       1 KZM513      0.0000 
     39 H          25.2686   33.6270    5.8236 H         1 KZM513      0.0000 
     40 H          23.2150   39.2939   10.6129 H         1 KZM513      0.0000 
     41 H          22.8157   37.8296    9.6527 H         1 KZM513      0.0000 
     42 H          27.1915   38.2109   10.0888 H         1 KZM513      0.0000 
     43 H          32.4860   36.0786    9.7648 H         1 KZM513      0.0000 
     44 H          27.2547   33.1516    4.3155 H         1 KZM513      0.0000 
     45 H          26.5269   31.7439    5.1085 H         1 KZM513      0.0000 
     46 H          28.6326   35.3272    8.2977 H         1 KZM513      0.0000 
     47 H          29.2997   38.5526   10.8820 H         1 KZM513      0.0000 
     48 H          28.0892   33.9317    6.5115 H         1 KZM513      0.0000 
     49 H          27.7145   32.8833    8.5138 H         1 KZM513      0.0000 
     50 H          29.3695   32.2909    4.4175 H         1 KZM513      0.0000 
     51 H          28.4952   30.7523    4.5088 H         1 KZM513      0.0000 
     52 H          29.8994   32.2866    6.6902 H         1 KZM513      0.0000 
     53 H          29.9863   30.5623    6.2913 H         1 KZM513      0.0000 
     54 H          27.6596   30.2632    7.1167 H         1 KZM513      0.0000 
     55 H          28.7506   30.8614    8.3784 H         1 KZM513      0.0000 
     56 H          21.0792   33.1639    6.9681 H         1 KZM513      0.0000 
     57 H          20.4781   37.2631    6.3550 H         1 KZM513      0.0000 
     58 H          18.8372   32.7138    6.1901 H         1 KZM513      0.0000 
     59 H          17.4053   34.5425    5.5067 H         1 KZM513      0.0000 
     60 H          33.5039   37.0333   11.3899 H         1 KZM513      0.0000 
     61 H          33.3964   38.1891   12.5029 H         1 KZM513      0.0000 
     62 H          32.4876   36.8680   12.6253 H         1 KZM513      0.0000 
     63 H          32.7594   35.1611    7.3176 H         1 KZM513      0.0000 
     64 H          32.1936   33.7976    6.6796 H         1 KZM513      0.0000 
     65 H          31.4528   35.1933    6.3805 H         1 KZM513      0.0000 
     66 H          25.9774   31.2297    8.7565 H         1 KZM513      0.0000 
     67 H          25.3691   32.6020    8.1792 H         1 KZM513      0.0000 
     68 H          25.5912   31.3461    7.1997 H         1 KZM513      0.0000 
     69 H          18.6335   37.6565    4.9421 H         1 KZM513      0.0000 
@<TRIPOS>BOND
     1   13    1 2    
     2   18    2 1    
     3   20    2 1    
     4   22    3 1    
     5   26    3 1    
     6   12    4 1    
     7   21    4 2    
     8   19    5 1    
     9   21    5 1    
    10   39    5 1    
    11   13    6 am   
    12   40    6 1    
    13   41    6 1    
    14   14    7 1    
    15   16    7 1    
    16   29    7 2    
    17   12    8 1    
    18   17    8 1    
    19   42    8 1    
    20   18    9 ar   
    21   22    9 ar   
    22   43    9 1    
    23   19   10 1    
    24   24   10 1    
    25   44   10 1    
    26   45   10 1    
    27   17   11 ar   
    28   22   11 ar   
    29   46   11 1    
    30   16   12 2    
    31   16   13 1    
    32   21   14 1    
    33   30   14 1    
    34   17   15 ar   
    35   18   15 ar   
    36   47   15 1    
    37   23   19 1    
    38   48   19 1    
    39   60   20 1    
    40   61   20 1    
    41   62   20 1    
    42   27   23 1    
    43   28   23 1    
    44   49   23 1    
    45   25   24 1    
    46   50   24 1    
    47   51   24 1    
    48   27   25 1    
    49   52   25 1    
    50   53   25 1    
    51   63   26 1    
    52   64   26 1    
    53   65   26 1    
    54   54   27 1    
    55   55   27 1    
    56   66   28 1    
    57   67   28 1    
    58   68   28 1    
    59   31   29 1    
    60   31   30 2    
    61   32   31 1    
    62   33   32 ar   
    63   34   32 ar   
    64   35   33 ar   
    65   56   33 1    
    66   36   34 ar   
    67   57   34 1    
    68   37   35 ar   
    69   58   35 1    
    70   37   36 ar   
    71   38   36 1    
    72   59   37 1    
    73   69   38 1    
@<TRIPOS>SUBSTRUCTURE
     1 KZM513      1 GROUP   
@<TRIPOS>SET

