#    Name: 1itz_TPP_1_INTS_M
#    Modification time : Tue Mar 25 07:19:16 2014

@<TRIPOS>MOLECULE
1itz_TPP_1_INTS_M
   85     0    12     0     0
SMALL
NO_CHARGES


@<TRIPOS>ATOM
      1 CA        -10.6105   73.4930   43.2635 C.3       4 GLC5        0.0000 
      2 CA        -11.7210   73.7860   41.3640 C.3      12 GLL5        0.0000 
      3 CA         -9.5000   73.2000   45.1630 C.3       8 GLP5        0.0000 
      4 CA        -10.7185   75.3185   41.6250 C.3       4 GLC5        0.0000 
      5 CA         -9.7160   76.8510   41.8860 C.3       8 GLP5        0.0000 
      6 CA        -10.2345   73.0325   40.9905 C.3       4 GLC5        0.0000 
      7 CA         -8.7480   72.2790   40.6170 C.3       8 GLP5        0.0000 
      8 N         -11.9870   73.0625   44.0320 N.am      2 SEC2        0.0000 
      9 N         -12.6250   74.3860   43.5980 N.am     10 SEL2        0.0000 
     10 N         -11.3490   71.7390   44.4660 N.am      6 SEP2        0.0000 
     11 O         -12.4085   74.1260   46.3865 O.2       1 ALC1        0.0000 
     12 O         -13.4120   74.9330   45.7020 O.2       9 ALL1        0.0000 
     13 O         -11.4050   73.3190   47.0710 O.2       5 ALP1        0.0000 
     14 O         -13.8885   75.2775   47.3180 O.2       1 ALC1        0.0000 
     15 O         -14.3650   75.6220   48.9340 O.2       5 ALP1        0.0000 
     16 CA        -15.9945   77.4025   42.1095 C.3       4 GLC5        0.0000 
     17 CA        -14.7500   75.6790   42.3410 C.3      12 GLL5        0.0000 
     18 CA        -17.2390   79.1260   41.8780 C.3       8 GLP5        0.0000 
     19 CA        -15.5525   73.9275   41.3870 C.3       4 GLC5        0.0000 
     20 CA        -16.3550   72.1760   40.4330 C.3       8 GLP5        0.0000 
     21 CA        -15.6785   74.1730   44.4165 C.3       4 GLC5        0.0000 
     22 CA        -15.7810   76.3750   44.5870 C.3      12 GLL5        0.0000 
     23 CA        -15.5760   71.9710   44.2460 C.3       8 GLP5        0.0000 
     24 CA        -16.5100   77.7505   43.2325 C.3       4 GLC5        0.0000 
     25 CA        -15.5825   78.4930   45.0240 C.3       4 GLC5        0.0000 
     26 CA        -15.3840   80.6110   45.4610 C.3       8 GLP5        0.0000 
     27 CA        -13.7670   77.0040   44.0955 C.3       4 GLC5        0.0000 
     28 CA        -11.7530   77.6330   43.6040 C.3       8 GLP5        0.0000 
     29 CA        -17.1265   73.1130   49.1030 C.3       4 GLC5        0.0000 
     30 CA        -17.4840   73.8630   47.2570 C.3      12 GLL5        0.0000 
     31 CA        -16.7690   72.3630   50.9490 C.3       8 GLP5        0.0000 
     32 CA        -16.9565   73.5265   43.7920 C.3       4 GLC5        0.0000 
     33 CA        -18.3370   75.0820   43.3380 C.3      12 GLL5        0.0000 
     34 CA        -19.2465   75.9450   44.8270 C.3       4 GLC5        0.0000 
     35 CA        -20.1560   76.8080   46.3160 C.3       8 GLP5        0.0000 
     36 CA        -19.6825   74.9890   41.9420 C.3       4 GLC5        0.0000 
     37 CA        -21.0280   74.8960   40.5460 C.3       8 GLP5        0.0000 
     38 CA        -18.5605   73.5470   42.1170 C.3       4 GLC5        0.0000 
     39 CA        -18.7840   72.0120   40.8960 C.3       8 GLP5        0.0000 
     40 CA        -20.5030   74.5410   45.9775 C.3       4 GLC5        0.0000 
     41 CA        -19.5710   73.1010   45.6610 C.3      12 GLL5        0.0000 
     42 CA        -21.4350   75.9810   46.2940 C.3       8 GLP5        0.0000 
     43 CA        -18.6040   70.2760   44.2300 C.3       4 GLC5        0.0000 
     44 CA        -19.2880   71.6310   45.4520 C.3      12 GLL5        0.0000 
     45 CA        -17.9200   68.9210   43.0080 C.3       8 GLP5        0.0000 
     46 N         -18.7820   68.5790   45.0490 N.am      2 SEC2        0.0000 
     47 N         -18.6940   69.1170   46.4370 N.am     10 SEL2        0.0000 
     48 N         -18.8700   68.0410   43.6610 N.am      6 SEP2        0.0000 
     49 Zn        -22.0465   68.1790   46.5170 Zn        3 ZIC7        0.0000 
     50 Zn        -21.0470   68.6070   46.0320 Zn       11 ZIL7        0.0000 
     51 Zn        -23.0460   67.7510   47.0020 Zn        7 ZIP7        0.0000 
     52 N         -20.5250   67.2985   45.6045 N.am      2 SEC2        0.0000 
     53 N         -21.0470   68.6070   46.0320 N.am     10 SEL2        0.0000 
     54 N         -20.0030   65.9900   45.1770 N.am      6 SEP2        0.0000 
     55 N         -19.9585   68.3240   44.8465 N.am      2 SEC2        0.0000 
     56 N         -19.3450   70.2405   49.3245 N.am      2 SEC2        0.0000 
     57 N         -20.3640   69.5790   48.2210 N.am     10 SEL2        0.0000 
     58 N         -18.3260   70.9020   50.4280 N.am      6 SEP2        0.0000 
     59 Zn        -22.7470   68.2185   48.0255 Zn        3 ZIC7        0.0000 
     60 Zn        -22.4480   68.6860   49.0490 Zn       11 ZIL7        0.0000 
     61 N         -23.2655   67.7655   49.6365 N.am      2 SEC2        0.0000 
     62 N         -22.4480   68.6860   49.0490 N.am     10 SEL2        0.0000 
     63 N         -24.0830   66.8450   50.2240 N.am      6 SEP2        0.0000 
     64 N         -22.0365   67.4570   48.4520 N.am      2 SEC2        0.0000 
     65 N         -21.6250   66.2280   47.8550 N.am      6 SEP2        0.0000 
     66 N         -19.6120   70.4690   50.4705 N.am      2 SEC2        0.0000 
     67 N         -20.8980   70.0360   50.5130 N.am     10 SEL2        0.0000 
     68 N         -21.9190   72.3135   49.3555 N.am      2 SEC2        0.0000 
     69 N         -22.3160   71.1310   48.8070 N.am     10 SEL2        0.0000 
     70 N         -21.5220   73.4960   49.9040 N.am      6 SEP2        0.0000 
     71 CA        -12.8570   72.3983   42.8185 C.3       4 GLC5        0.0000 
     72 CA        -12.7590   74.4410   42.2580 C.3      12 GLL5        0.0000 
     73 CA        -13.4740   70.6830   43.8260 C.3       8 GLP5        0.0000 
     74 CA        -15.0143   73.7428   43.7184 C.3       4 GLC5        0.0000 
     75 CA        -13.5890   75.0040   44.3330 C.3      12 GLL5        0.0000 
     76 CA        -16.2318   73.2083   45.6005 C.3       4 GLC5        0.0000 
     77 CA        -16.2910   75.0280   46.6530 C.3      12 GLL5        0.0000 
     78 CA        -18.5218   75.6268   46.6355 C.3       4 GLC5        0.0000 
     79 CA        -16.8262   73.1735   44.7468 C.3       4 GLC5        0.0000 
     80 CA        -18.3430   73.9580   45.7200 C.3      12 GLL5        0.0000 
     81 CA        -19.1162   75.5920   45.7818 C.3       4 GLC5        0.0000 
     82 CA        -17.8100   74.7940   44.7750 C.3      12 GLL5        0.0000 
     83 CA        -18.5732   76.8045   43.8088 C.3       4 GLC5        0.0000 
     84 CA        -19.0730   78.6710   43.5610 C.3       8 GLP5        0.0000 
     85 CA        -17.5028   72.1685   44.9013 C.3       4 GLC5        0.0000 
@<TRIPOS>BOND
@<TRIPOS>SUBSTRUCTURE
     1 ALC1       11 GROUP        1 X    ALC  0     ROOT ALC X 1
     2 SEC2        8 GROUP        1 X    SEC  0     **** SEC X 2
     3 ZIC7       49 GROUP        1 X    ZIC  0     **** ZIC X 5
     4 GLC5        1 GROUP        1 X    GLC  0     **** GLC X 6
     5 ALP1       13 GROUP        1 Y    ALP  0     ROOT ALP Y 8
     6 SEP2       10 GROUP        1 Y    SEP  0     **** SEP Y 9
     7 ZIP7       51 GROUP        1 Y    ZIP  0     **** ZIP Y 12
     8 GLP5        3 GROUP        1 Y    GLP  0     **** GLP Y 13
     9 ALL1       12 GROUP        1 Z    ALL  0     ROOT ALL Z 15
    10 SEL2        9 GROUP        1 Z    SEL  0     **** SEL Z 16
    11 ZIL7       50 GROUP        1 Z    ZIL  0     **** ZIL Z 19
    12 GLL5        2 GROUP        1 Z    GLL  0     **** GLL Z 20
@<TRIPOS>SET

