#    Name: 1itz_TPP_1_ligand
#    Modification time : Tue Mar 25 07:19:16 2014

@<TRIPOS>MOLECULE
1itz_TPP_1_ligand
   42    43     1     0     0
SMALL
NO_CHARGES


@<TRIPOS>ATOM
      1 N1'       -13.7830   75.0620   41.6350 N.ar      1 TPP1002     0.0000 
      2 C2'       -12.7590   74.4410   42.2580 C.ar      1 TPP1002     0.0000 
      3 CM2       -11.7210   73.7860   41.3640 C.3       1 TPP1002     0.0000 
      4 N3'       -12.6250   74.3860   43.5980 N.ar      1 TPP1002     0.0000 
      5 C4'       -13.5890   75.0040   44.3330 C.ar      1 TPP1002     0.0000 
      6 N4'       -13.4120   74.9330   45.7020 N.pl3     1 TPP1002     0.0000 
      7 C5'       -14.7210   75.6960   43.7480 C.ar      1 TPP1002     0.0000 
      8 C6'       -14.7500   75.6790   42.3410 C.ar      1 TPP1002     0.0000 
      9 C7'       -15.7810   76.3750   44.5870 C.3       1 TPP1002     0.0000 
     10 N3        -16.5980   75.4180   45.3440 N.pl3     1 TPP1002     0.0000 
     11 C2        -16.2910   75.0280   46.6530 C.2       1 TPP1002     0.0000 
     12 S1        -17.4840   73.8630   47.2570 S.3       1 TPP1002     0.0000 
     13 C5        -18.3430   73.9580   45.7200 C.2       1 TPP1002     0.0000 
     14 C4        -17.8100   74.7940   44.7750 C.2       1 TPP1002     0.0000 
     15 CM4       -18.3370   75.0820   43.3380 C.3       1 TPP1002     0.0000 
     16 C6        -19.5710   73.1010   45.6610 C.3       1 TPP1002     0.0000 
     17 C7        -19.2880   71.6310   45.4520 C.3       1 TPP1002     0.0000 
     18 O7        -20.3600   70.9420   46.1210 O.3       1 TPP1002     0.0000 
     19 PA        -20.1320   69.5520   46.6980 P.3       1 TPP1002     0.0000 
     20 O1A       -18.6940   69.1170   46.4370 O.co2     1 TPP1002     0.0000 
     21 O2A       -21.0470   68.6070   46.0320 O.co2     1 TPP1002     0.0000 
     22 O3A       -20.3640   69.5790   48.2210 O.3       1 TPP1002     0.0000 
     23 PB        -21.5760   69.9140   49.1760 P.3       1 TPP1002     0.0000 
     24 O1B       -22.4480   68.6860   49.0490 O.co2     1 TPP1002     0.0000 
     25 O2B       -20.8980   70.0360   50.5130 O.co2     1 TPP1002     0.0000 
     26 O3B       -22.3160   71.1310   48.8070 O.co2     1 TPP1002     0.0000 
     27 H         -13.7641   75.7046   46.2318 H         1 TPP1002     0.0000 
     28 H         -12.9472   74.1162   46.0438 H         1 TPP1002     0.0000 
     29 H         -15.5408   76.1573   41.8642 H         1 TPP1002     0.0000 
     30 H         -16.4207   76.9799   43.9202 H         1 TPP1002     0.0000 
     31 H         -15.2834   77.0809   45.2754 H         1 TPP1002     0.0000 
     32 H         -15.6432   75.2216   47.2569 H         1 TPP1002     0.0000 
     33 H         -20.2281   73.4580   44.8435 H         1 TPP1002     0.0000 
     34 H         -20.1489   73.2237   46.5982 H         1 TPP1002     0.0000 
     35 H         -18.3302   71.3972   45.8881 H         1 TPP1002     0.0000 
     36 H         -19.2818   71.4265   44.3935 H         1 TPP1002     0.0000 
     37 H         -11.2798   74.4493   40.7595 H         1 TPP1002     0.0000 
     38 H         -10.9967   73.3470   41.8957 H         1 TPP1002     0.0000 
     39 H         -12.1248   73.0811   40.7808 H         1 TPP1002     0.0000 
     40 H         -17.6646   74.8365   42.6397 H         1 TPP1002     0.0000 
     41 H         -19.1697   74.5659   43.1374 H         1 TPP1002     0.0000 
     42 H         -18.5537   76.0497   43.2089 H         1 TPP1002     0.0000 
@<TRIPOS>BOND
     1    2    1 ar   
     2    8    1 ar   
     3    3    2 1    
     4    4    2 ar   
     5   37    3 1    
     6   38    3 1    
     7   39    3 1    
     8    5    4 ar   
     9    6    5 1    
    10    7    5 ar   
    11   27    6 1    
    12   28    6 1    
    13    8    7 ar   
    14    9    7 1    
    15   29    8 1    
    16   10    9 1    
    17   30    9 1    
    18   31    9 1    
    19   11   10 2    
    20   14   10 1    
    21   12   11 1    
    22   32   11 1    
    23   13   12 1    
    24   14   13 2    
    25   16   13 1    
    26   15   14 1    
    27   40   15 1    
    28   41   15 1    
    29   42   15 1    
    30   17   16 1    
    31   33   16 1    
    32   34   16 1    
    33   18   17 1    
    34   35   17 1    
    35   36   17 1    
    36   19   18 1    
    37   20   19 ar   
    38   21   19 ar   
    39   22   19 1    
    40   23   22 1    
    41   24   23 ar   
    42   25   23 ar   
    43   26   23 ar   
@<TRIPOS>SUBSTRUCTURE
     1 TPP1002     1 GROUP   
@<TRIPOS>SET

