#    Name: 2bts_U32_1_INTS_M
#    Modification time : Mon Mar 24 21:41:23 2014

@<TRIPOS>MOLECULE
2bts_U32_1_INTS_M
   64     0     9     0     0
SMALL
NO_CHARGES


@<TRIPOS>ATOM
      1 N           8.0715   12.3535   30.6445 N.am      2 SEC2        0.0000 
      2 N           6.5100   11.9080   30.1620 N.am      8 SEL2        0.0000 
      3 N           9.6330   12.7990   31.1270 N.am      5 SEP2        0.0000 
      4 N           7.3250    9.2870   27.3605 N.am      2 SEC2        0.0000 
      5 N           7.3070   10.6340   28.1420 N.am      8 SEL2        0.0000 
      6 N           7.3430    7.9400   26.5790 N.am      5 SEP2        0.0000 
      7 CA          1.0405    2.9495   31.0110 C.3       3 GLC5        0.0000 
      8 CA          0.3210    4.1030   29.4100 C.3       9 GLL5        0.0000 
      9 CA          1.7600    1.7960   32.6120 C.3       6 GLP5        0.0000 
     10 CA         -2.6555    7.3645   29.2870 C.3       3 GLC5        0.0000 
     11 CA         -2.6180    5.7970   28.1370 C.3       9 GLL5        0.0000 
     12 CA         -2.6930    8.9320   30.4370 C.3       6 GLP5        0.0000 
     13 CA         -1.0235    2.2215   26.7265 C.3       3 GLC5        0.0000 
     14 CA         -1.5320    4.2670   26.4850 C.3       9 GLL5        0.0000 
     15 CA         -0.5150    0.1760   26.9680 C.3       6 GLP5        0.0000 
     16 CA         -3.0290    3.0600   27.5080 C.3       3 GLC5        0.0000 
     17 CA         -4.5260    1.8530   28.5310 C.3       6 GLP5        0.0000 
     18 CA         -0.6780    3.8275   24.8535 C.3       3 GLC5        0.0000 
     19 CA          0.1760    3.3880   23.2220 C.3       6 GLP5        0.0000 
     20 CA         -2.6830    4.7710   24.7100 C.3       3 GLC5        0.0000 
     21 CA         -3.8340    5.2750   22.9350 C.3       6 GLP5        0.0000 
     22 CA          0.5785    7.7010   30.6055 C.3       3 GLC5        0.0000 
     23 CA          0.3970    6.5600   28.6870 C.3       9 GLL5        0.0000 
     24 CA          0.7600    8.8420   32.5240 C.3       6 GLP5        0.0000 
     25 CA         -1.1480    7.7460   29.5620 C.3       3 GLC5        0.0000 
     26 CA         -0.7535    5.6995   30.3630 C.3       3 GLC5        0.0000 
     27 CA         -1.9040    4.8390   32.0390 C.3       6 GLP5        0.0000 
     28 CA          1.3680    5.2380   27.6825 C.3       3 GLC5        0.0000 
     29 CA          2.3390    3.9160   26.6780 C.3       6 GLP5        0.0000 
     30 N           2.5345    3.3980   30.6085 N.am      2 SEC2        0.0000 
     31 N           1.3730    4.4750   30.0180 N.am      8 SEL2        0.0000 
     32 N           3.6960    2.3210   31.1990 N.am      5 SEP2        0.0000 
     33 O           5.1115   11.5630   26.5750 O.2       1 ALC1        0.0000 
     34 O           5.2210   12.1840   27.9270 O.2       7 ALL1        0.0000 
     35 O           5.0020   10.9420   25.2230 O.2       4 ALP1        0.0000 
     36 CA          4.8360    9.1115   26.6610 C.3       3 GLC5        0.0000 
     37 CA          3.9780    9.5890   28.5170 C.3       9 GLL5        0.0000 
     38 CA          5.6940    8.6340   24.8050 C.3       6 GLP5        0.0000 
     39 O           3.9000    5.6265   30.8440 O.2       1 ALC1        0.0000 
     40 O           2.8450    6.5290   30.3300 O.2       7 ALL1        0.0000 
     41 O           4.9550    4.7240   31.3580 O.2       4 ALP1        0.0000 
     42 CA          6.1690    6.5250   31.2675 C.3       3 GLC5        0.0000 
     43 CA          4.7120    7.9690   30.6220 C.3       9 GLL5        0.0000 
     44 CA          7.6260    5.0810   31.9130 C.3       6 GLP5        0.0000 
     45 CA          2.1510    8.2405   31.2135 C.3       3 GLC5        0.0000 
     46 CA          3.5420    7.6390   29.9030 C.3       9 GLL5        0.0000 
     47 CA          3.3200    7.1155   27.1465 C.3       3 GLC5        0.0000 
     48 CA          3.1910    8.4640   28.8330 C.3       9 GLL5        0.0000 
     49 CA          3.4490    5.7670   25.4600 C.3       6 GLP5        0.0000 
     50 CA         -0.9480    4.7023   30.5373 C.3       3 GLC5        0.0000 
     51 CA         -0.3050    5.0280   28.6610 C.3       9 GLL5        0.0000 
     52 CA          1.1735    4.2408   27.8567 C.3       3 GLC5        0.0000 
     53 CA         -2.0092    5.0362   30.0405 C.3       3 GLC5        0.0000 
     54 CA         -1.6110    4.6700   27.9470 C.3       9 GLL5        0.0000 
     55 CA         -3.6842    4.1397   28.2715 C.3       3 GLC5        0.0000 
     56 CA         -5.2540    3.0460   28.5010 C.3       6 GLP5        0.0000 
     57 CA          0.3837    4.1922   26.9470 C.3       3 GLC5        0.0000 
     58 CA          3.2870    9.7763   30.5390 C.3       3 GLC5        0.0000 
     59 CA          5.4840    9.0940   30.3140 C.3       9 GLL5        0.0000 
     60 CA          1.4760   11.0210   30.6100 C.3       6 GLP5        0.0000 
     61 CA          6.6519    7.9179   29.4494 C.3       3 GLC5        0.0000 
     62 CA          5.1310    9.9070   29.2370 C.3       9 GLL5        0.0000 
     63 CA          8.2940    7.1010   28.7000 C.3       6 GLP5        0.0000 
     64 CA          2.6744   10.0635   29.7325 C.3       3 GLC5        0.0000 
@<TRIPOS>BOND
@<TRIPOS>SUBSTRUCTURE
     1 ALC1       33 GROUP        1 X    ALC  0     ROOT ALC X 1
     2 SEC2        1 GROUP        1 X    SEC  0     **** SEC X 2
     3 GLC5        7 GROUP        1 X    GLC  0     **** GLC X 6
     4 ALP1       35 GROUP        1 Y    ALP  0     ROOT ALP Y 8
     5 SEP2        3 GROUP        1 Y    SEP  0     **** SEP Y 9
     6 GLP5        9 GROUP        1 Y    GLP  0     **** GLP Y 13
     7 ALL1       34 GROUP        1 Z    ALL  0     ROOT ALL Z 15
     8 SEL2        2 GROUP        1 Z    SEL  0     **** SEL Z 16
     9 GLL5        8 GROUP        1 Z    GLL  0     **** GLL Z 20
@<TRIPOS>SET

