#    Name: 2bts_U32_1_ligand
#    Modification time : Mon Mar 24 21:41:23 2014

@<TRIPOS>MOLECULE
2bts_U32_1_ligand
   34    35     1     0     0
SMALL
NO_CHARGES


@<TRIPOS>ATOM
      1 O1          6.5100   11.9080   30.1620 O.2       1 U321299     0.0000 
      2 O2          7.3070   10.6340   28.1420 O.2       1 U321299     0.0000 
      3 C2          0.3210    4.1030   29.4100 C.2       1 U321299     0.0000 
      4 C3         -0.3050    5.0280   28.6610 C.2       1 U321299     0.0000 
      5 C4         -1.6110    4.6700   27.9470 C.3       1 U321299     0.0000 
      6 C5         -2.6180    5.7970   28.1370 C.3       1 U321299     0.0000 
      7 C6         -1.5320    4.2670   26.4850 C.3       1 U321299     0.0000 
      8 S7          0.3970    6.5600   28.6870 S.3       1 U321299     0.0000 
      9 C8          1.6150    5.8850   29.8150 C.2       1 U321299     0.0000 
     10 N9          1.3730    4.4750   30.0180 N.2       1 U321299     0.0000 
     11 N11         5.2210   12.1840   27.9270 N.pl3     1 U321299     0.0000 
     12 C13         3.9780    9.5890   28.5170 C.ar      1 U321299     0.0000 
     13 C14         5.1310    9.9070   29.2370 C.ar      1 U321299     0.0000 
     14 N90         2.8450    6.5290   30.3300 N.pl3     1 U321299     0.0000 
     15 C16         5.4840    9.0940   30.3140 C.ar      1 U321299     0.0000 
     16 C17         4.7120    7.9690   30.6220 C.ar      1 U321299     0.0000 
     17 C18         3.5420    7.6390   29.9030 C.ar      1 U321299     0.0000 
     18 C19         3.1910    8.4640   28.8330 C.ar      1 U321299     0.0000 
     19 S16         6.0360   11.2020   28.8570 S.o2      1 U321299     0.0000 
     20 H          -0.0648    3.1437   29.4650 H         1 U321299     0.0000 
     21 H          -2.0509    3.7937   28.5083 H         1 U321299     0.0000 
     22 H           4.6837   12.8869   28.3930 H         1 U321299     0.0000 
     23 H           5.3041   12.0284   26.9427 H         1 U321299     0.0000 
     24 H           3.6880   10.1946   27.7262 H         1 U321299     0.0000 
     25 H           3.2481    6.0034   31.2095 H         1 U321299     0.0000 
     26 H           6.3088    9.3194   30.8808 H         1 U321299     0.0000 
     27 H           5.0043    7.3517   31.4050 H         1 U321299     0.0000 
     28 H           2.3582    8.2552   28.2714 H         1 U321299     0.0000 
     29 H          -2.8217    5.9540   29.1034 H         1 U321299     0.0000 
     30 H          -2.2822    6.6619   27.7640 H         1 U321299     0.0000 
     31 H          -3.4866    5.5994   27.6826 H         1 U321299     0.0000 
     32 H          -1.1431    4.9945   25.9197 H         1 U321299     0.0000 
     33 H          -0.9610    3.4566   26.3535 H         1 U321299     0.0000 
     34 H          -2.4339    4.0542   26.1092 H         1 U321299     0.0000 
@<TRIPOS>BOND
     1   19    1 2    
     2   19    2 2    
     3    4    3 2    
     4   10    3 1    
     5   20    3 1    
     6    5    4 1    
     7    8    4 1    
     8    6    5 1    
     9    7    5 1    
    10   21    5 1    
    11   29    6 1    
    12   30    6 1    
    13   31    6 1    
    14   32    7 1    
    15   33    7 1    
    16   34    7 1    
    17    9    8 1    
    18   10    9 2    
    19   14    9 1    
    20   19   11 1    
    21   22   11 1    
    22   23   11 1    
    23   13   12 ar   
    24   18   12 ar   
    25   24   12 1    
    26   15   13 ar   
    27   19   13 1    
    28   17   14 1    
    29   25   14 1    
    30   16   15 ar   
    31   26   15 1    
    32   17   16 ar   
    33   27   16 1    
    34   18   17 ar   
    35   28   18 1    
@<TRIPOS>SUBSTRUCTURE
     1 U321299     1 GROUP   
@<TRIPOS>SET

