#    Name: 2xhm_K26_1_INTS_M
#    Modification time : Tue Mar 25 06:00:59 2014

@<TRIPOS>MOLECULE
2xhm_K26_1_INTS_M
   72     0    12     0     0
SMALL
NO_CHARGES


@<TRIPOS>ATOM
      1 CA        -12.8205   24.2735   -7.4860 C.3       4 GLC5        0.0000 
      2 CA        -11.0040   24.9470   -8.5220 C.3      12 GLL5        0.0000 
      3 CA        -14.6370   23.6000   -6.4500 C.3       8 GLP5        0.0000 
      4 CA        -11.9350   27.6210  -11.1195 C.3       4 GLC5        0.0000 
      5 CA        -11.0960   26.0330  -10.6770 C.3      12 GLL5        0.0000 
      6 CA        -12.7740   29.2090  -11.5620 C.3       8 GLP5        0.0000 
      7 CA        -11.5385   27.3875   -9.6120 C.3       4 GLC5        0.0000 
      8 CA        -11.6920   25.2210   -9.7020 C.3      12 GLL5        0.0000 
      9 CA        -11.3850   29.5540   -9.5220 C.3       8 GLP5        0.0000 
     10 CA        -11.9140   21.6505   -9.5880 C.3       4 GLC5        0.0000 
     11 CA        -13.0000   23.2310  -10.6170 C.3      12 GLL5        0.0000 
     12 CA        -10.8280   20.0700   -8.5590 C.3       8 GLP5        0.0000 
     13 Zn        -14.8245   21.4645  -12.5160 Zn        3 ZIC7        0.0000 
     14 Zn        -14.4550   21.0380  -11.3730 Zn       11 ZIL7        0.0000 
     15 Zn        -15.1940   21.8910  -13.6590 Zn        7 ZIP7        0.0000 
     16 N         -14.9375   19.8945  -10.6430 N.am      2 SEC2        0.0000 
     17 N         -14.4550   21.0380  -11.3730 N.am     10 SEL2        0.0000 
     18 N         -15.4200   18.7510   -9.9130 N.am      6 SEP2        0.0000 
     19 N         -15.6525   23.2910   -8.4560 N.am      2 SEC2        0.0000 
     20 N         -15.5330   22.7390   -9.7260 N.am     10 SEL2        0.0000 
     21 N         -15.7720   23.8430   -7.1860 N.am      6 SEP2        0.0000 
     22 Zn        -15.2235   22.5910  -12.9590 Zn        3 ZIC7        0.0000 
     23 Zn        -15.2530   23.2910  -12.2590 Zn       11 ZIL7        0.0000 
     24 N         -15.5480   24.5155  -12.1920 N.am      2 SEC2        0.0000 
     25 N         -15.2530   23.2910  -12.2590 N.am     10 SEL2        0.0000 
     26 N         -15.8430   25.7400  -12.1250 N.am      6 SEP2        0.0000 
     27 O         -12.7325   24.4200  -12.6955 O.2       1 ALC1        0.0000 
     28 O         -12.1320   23.3720  -11.7980 O.2       9 ALL1        0.0000 
     29 O         -13.3330   25.4680  -13.5930 O.2       5 ALP1        0.0000 
     30 N         -10.1010   20.6295  -10.7985 N.am      2 SEC2        0.0000 
     31 N         -10.4870   21.9870  -11.0500 N.am     10 SEL2        0.0000 
     32 N          -9.7150   19.2720  -10.5470 N.am      6 SEP2        0.0000 
     33 O          -8.1770   21.6205  -12.4780 O.2       1 ALC1        0.0000 
     34 O          -8.6880   22.9530  -12.8100 O.2       9 ALL1        0.0000 
     35 O          -7.6660   20.2880  -12.1460 O.2       5 ALP1        0.0000 
     36 CA         -5.9960   22.3345   -8.8860 C.3       4 GLC5        0.0000 
     37 CA         -6.5950   23.7790  -10.0150 C.3      12 GLL5        0.0000 
     38 CA         -5.3970   20.8900   -7.7570 C.3       8 GLP5        0.0000 
     39 CA         -3.7780   22.5310   -9.9465 C.3       4 GLC5        0.0000 
     40 CA         -4.3020   23.8400  -11.0530 C.3      12 GLL5        0.0000 
     41 CA         -3.2540   21.2220   -8.8400 C.3       8 GLP5        0.0000 
     42 CA         -2.1455   25.0405   -8.6105 C.3       4 GLC5        0.0000 
     43 CA         -3.5270   24.9350  -10.3210 C.3      12 GLL5        0.0000 
     44 CA         -0.7640   25.1460   -6.9000 C.3       8 GLP5        0.0000 
     45 CA         -3.2635   23.5825   -9.1210 C.3       4 GLC5        0.0000 
     46 CA         -3.0000   22.2300   -7.9210 C.3       8 GLP5        0.0000 
     47 CA         -3.7630   21.3280  -15.9995 C.3       4 GLC5        0.0000 
     48 CA         -4.1140   23.3230  -15.5980 C.3      12 GLL5        0.0000 
     49 CA         -3.4120   19.3330  -16.4010 C.3       8 GLP5        0.0000 
     50 CA         -2.3100   23.2080  -16.2825 C.3       4 GLC5        0.0000 
     51 CA         -0.5060   23.0930  -16.9670 C.3       8 GLP5        0.0000 
     52 N          -4.3060   20.4150  -13.9765 N.am      2 SEC2        0.0000 
     53 N          -4.7590   21.6950  -13.9580 N.am     10 SEL2        0.0000 
     54 N          -3.8530   19.1350  -13.9950 N.am      6 SEP2        0.0000 
     55 N          -7.5025   25.2035  -20.1755 N.am      2 SEC2        0.0000 
     56 N          -8.1460   24.5770  -18.9860 N.am     10 SEL2        0.0000 
     57 N          -6.8590   25.8300  -21.3650 N.am      6 SEP2        0.0000 
     58 CA        -10.1165   23.1668   -8.2095 C.3       4 GLC5        0.0000 
     59 CA         -9.8630   21.1200   -8.0050 C.3       8 GLP5        0.0000 
     60 CA        -10.4355   27.9917   -9.6973 C.3       4 GLC5        0.0000 
     61 CA         -9.1480   26.2920   -9.2760 C.3      12 GLL5        0.0000 
     62 CA        -13.8398   23.7602   -8.3600 C.3       4 GLC5        0.0000 
     63 CA        -13.0850   24.6100   -9.9230 C.3      12 GLL5        0.0000 
     64 CA        -11.2485   20.9952  -15.2290 C.3       4 GLC5        0.0000 
     65 CA        -10.4780   22.2550  -14.3280 C.3      12 GLL5        0.0000 
     66 CA        -12.3340   19.4280  -15.5000 C.3       8 GLP5        0.0000 
     67 CA        -10.7019   22.8627  -18.2378 C.3       4 GLC5        0.0000 
     68 CA        -10.0490   24.2330  -17.5760 C.3      12 GLL5        0.0000 
     69 CA        -11.2620   21.9770  -19.6810 C.3       8 GLP5        0.0000 
     70 CA         -9.1955   22.8640  -18.8828 C.3       4 GLC5        0.0000 
     71 CA         -8.7000   24.0220  -17.8650 C.3      12 GLL5        0.0000 
     72 CA        -10.0780   22.0980  -20.3280 C.3       8 GLP5        0.0000 
@<TRIPOS>BOND
@<TRIPOS>SUBSTRUCTURE
     1 ALC1       27 GROUP        1 X    ALC  0     ROOT ALC X 1
     2 SEC2       16 GROUP        1 X    SEC  0     **** SEC X 2
     3 ZIC7       13 GROUP        1 X    ZIC  0     **** ZIC X 5
     4 GLC5        1 GROUP        1 X    GLC  0     **** GLC X 6
     5 ALP1       29 GROUP        1 Y    ALP  0     ROOT ALP Y 8
     6 SEP2       18 GROUP        1 Y    SEP  0     **** SEP Y 9
     7 ZIP7       15 GROUP        1 Y    ZIP  0     **** ZIP Y 12
     8 GLP5        3 GROUP        1 Y    GLP  0     **** GLP Y 13
     9 ALL1       28 GROUP        1 Z    ALL  0     ROOT ALL Z 15
    10 SEL2       17 GROUP        1 Z    SEL  0     **** SEL Z 16
    11 ZIL7       14 GROUP        1 Z    ZIL  0     **** ZIL Z 19
    12 GLL5        2 GROUP        1 Z    GLL  0     **** GLL Z 20
@<TRIPOS>SET

