#    Name: 2xhm_K26_1_ligand
#    Modification time : Tue Mar 25 06:00:59 2014

@<TRIPOS>MOLECULE
2xhm_K26_1_ligand
   69    70     1     0     0
SMALL
NO_CHARGES


@<TRIPOS>ATOM
      1 CAR       -11.0040   24.9470   -8.5220 C.ar      1 K261615     0.0000 
      2 CAN        -9.7360   25.4800   -8.3060 C.ar      1 K261615     0.0000 
      3 CBD        -9.1480   26.2920   -9.2760 C.ar      1 K261615     0.0000 
      4 OAI        -7.9090   26.8070   -9.0490 O.3       1 K261615     0.0000 
      5 CAO        -9.8240   26.5670  -10.4690 C.ar      1 K261615     0.0000 
      6 CAS       -11.0960   26.0330  -10.6770 C.ar      1 K261615     0.0000 
      7 CBF       -11.6920   25.2210   -9.7020 C.ar      1 K261615     0.0000 
      8 CAV       -13.0850   24.6100   -9.9230 C.3       1 K261615     0.0000 
      9 CBI       -13.0000   23.2310  -10.6170 C.3       1 K261615     0.0000 
     10 PBK       -14.6580   22.5830  -11.0940 P.3       1 K261615     0.0000 
     11 OAJ       -14.4550   21.0380  -11.3730 O.co2     1 K261615     0.0000 
     12 OAK       -15.5330   22.7390   -9.7260 O.co2     1 K261615     0.0000 
     13 OAG       -15.2530   23.2910  -12.2590 O.co2     1 K261615     0.0000 
     14 NAY       -12.1320   23.3720  -11.7980 N.am      1 K261615     0.0000 
     15 C         -10.9480   22.7610  -11.8900 C.2       1 K261615     0.0000 
     16 O         -10.4870   21.9870  -11.0500 O.2       1 K261615     0.0000 
     17 CA        -10.1210   23.1210  -13.1270 C.3       1 K261615     0.0000 
     18 N          -8.6880   22.9530  -12.8100 N.am      1 K261615     0.0000 
     19 CBB        -7.7930   23.9490  -12.8160 C.2       1 K261615     0.0000 
     20 OAF        -8.0450   25.1180  -13.1110 O.2       1 K261615     0.0000 
     21 CBJ        -6.3510   23.5140  -12.5010 C.3       1 K261615     0.0000 
     22 CBG        -5.7850   24.1950  -11.2490 C.3       1 K261615     0.0000 
     23 CAC        -6.5950   23.7790  -10.0150 C.3       1 K261615     0.0000 
     24 CAT        -4.3020   23.8400  -11.0530 C.3       1 K261615     0.0000 
     25 CAA        -3.5270   24.9350  -10.3210 C.3       1 K261615     0.0000 
     26 NAX        -5.5490   23.8050  -13.7060 N.am      1 K261615     0.0000 
     27 CAZ        -4.8520   22.8600  -14.3400 C.2       1 K261615     0.0000 
     28 CAB        -4.1140   23.3230  -15.5980 C.3       1 K261615     0.0000 
     29 OAD        -4.7590   21.6950  -13.9580 O.2       1 K261615     0.0000 
     30 CB        -10.4780   22.2550  -14.3280 C.3       1 K261615     0.0000 
     31 CG         -9.8480   22.8700  -15.5880 C.ar      1 K261615     0.0000 
     32 CD1       -10.6210   23.6580  -16.4380 C.ar      1 K261615     0.0000 
     33 CE1       -10.0490   24.2330  -17.5760 C.ar      1 K261615     0.0000 
     34 CZ         -8.7000   24.0220  -17.8650 C.ar      1 K261615     0.0000 
     35 OH         -8.1460   24.5770  -18.9860 O.3       1 K261615     0.0000 
     36 CE2        -7.9260   23.2380  -17.0100 C.ar      1 K261615     0.0000 
     37 CD2        -8.4960   22.6660  -15.8700 C.ar      1 K261615     0.0000 
     38 H         -11.4364   24.3464   -7.8052 H         1 K261615     0.0000 
     39 H          -9.2333   25.2764   -7.4342 H         1 K261615     0.0000 
     40 H          -9.3878   27.1554  -11.1828 H         1 K261615     0.0000 
     41 H         -11.6017   26.2344  -11.5494 H         1 K261615     0.0000 
     42 H         -13.6773   25.2813  -10.5437 H         1 K261615     0.0000 
     43 H         -13.5816   24.4906   -8.9608 H         1 K261615     0.0000 
     44 H         -12.6478   22.4900   -9.9379 H         1 K261615     0.0000 
     45 H         -12.5055   23.9811  -12.5562 H         1 K261615     0.0000 
     46 H         -10.3128   24.1560  -13.3756 H         1 K261615     0.0000 
     47 H          -8.4068   21.9651  -12.5709 H         1 K261615     0.0000 
     48 H          -6.3675   22.4375  -12.3393 H         1 K261615     0.0000 
     49 H          -5.8701   25.2647  -11.3689 H         1 K261615     0.0000 
     50 H          -3.8460   23.6701  -12.0344 H         1 K261615     0.0000 
     51 H          -4.2337   22.9072  -10.4827 H         1 K261615     0.0000 
     52 H          -5.5667   24.7957  -14.0233 H         1 K261615     0.0000 
     53 H         -11.5507   22.2229  -14.4479 H         1 K261615     0.0000 
     54 H         -10.0875   21.2581  -14.1872 H         1 K261615     0.0000 
     55 H         -11.6146   23.8180  -16.2292 H         1 K261615     0.0000 
     56 H         -10.6233   24.8120  -18.2006 H         1 K261615     0.0000 
     57 H          -6.9315   23.0796  -17.2185 H         1 K261615     0.0000 
     58 H          -7.9204   22.0958  -15.2400 H         1 K261615     0.0000 
     59 H          -6.5657   22.7904   -9.8675 H         1 K261615     0.0000 
     60 H          -6.2496   24.2101   -9.1814 H         1 K261615     0.0000 
     61 H          -7.5581   24.0343  -10.0996 H         1 K261615     0.0000 
     62 H          -2.5655   24.6899  -10.1969 H         1 K261615     0.0000 
     63 H          -3.5465   25.8011  -10.8205 H         1 K261615     0.0000 
     64 H          -3.9039   25.1124   -9.4119 H         1 K261615     0.0000 
     65 H          -3.4491   24.0419  -15.3951 H         1 K261615     0.0000 
     66 H          -3.6128   22.5740  -16.0314 H         1 K261615     0.0000 
     67 H          -4.7427   23.6902  -16.2835 H         1 K261615     0.0000 
     68 H          -7.7365   27.4166   -9.8227 H         1 K261615     0.0000 
     69 H          -7.1584   24.4832  -18.8601 H         1 K261615     0.0000 
@<TRIPOS>BOND
     1    2    1 ar   
     2    7    1 ar   
     3   38    1 1    
     4    3    2 ar   
     5   39    2 1    
     6    4    3 1    
     7    5    3 ar   
     8   68    4 1    
     9    6    5 ar   
    10   40    5 1    
    11    7    6 ar   
    12   41    6 1    
    13    8    7 1    
    14    9    8 1    
    15   42    8 1    
    16   43    8 1    
    17   10    9 1    
    18   14    9 1    
    19   44    9 1    
    20   11   10 ar   
    21   12   10 ar   
    22   13   10 ar   
    23   15   14 am   
    24   45   14 1    
    25   16   15 2    
    26   17   15 1    
    27   18   17 1    
    28   30   17 1    
    29   46   17 1    
    30   19   18 am   
    31   47   18 1    
    32   20   19 2    
    33   21   19 1    
    34   22   21 1    
    35   26   21 1    
    36   48   21 1    
    37   23   22 1    
    38   24   22 1    
    39   49   22 1    
    40   59   23 1    
    41   60   23 1    
    42   61   23 1    
    43   25   24 1    
    44   50   24 1    
    45   51   24 1    
    46   62   25 1    
    47   63   25 1    
    48   64   25 1    
    49   27   26 am   
    50   52   26 1    
    51   28   27 1    
    52   29   27 2    
    53   65   28 1    
    54   66   28 1    
    55   67   28 1    
    56   31   30 1    
    57   53   30 1    
    58   54   30 1    
    59   32   31 ar   
    60   37   31 ar   
    61   33   32 ar   
    62   55   32 1    
    63   34   33 ar   
    64   56   33 1    
    65   35   34 1    
    66   36   34 ar   
    67   69   35 1    
    68   37   36 ar   
    69   57   36 1    
    70   58   37 1    
@<TRIPOS>SUBSTRUCTURE
     1 K261615     1 GROUP   
@<TRIPOS>SET

