#    Name: 3w79_ORI_4_INTS_M
#    Modification time : Tue Mar 25 02:25:09 2014

@<TRIPOS>MOLECULE
3w79_ORI_4_INTS_M
   22     0     6     0     0
SMALL
NO_CHARGES


@<TRIPOS>ATOM
      1 CA          3.8365  -11.3650   26.2735 C.3       2 GLC5        0.0000 
      2 CA          4.1110  -13.4690   26.9260 C.3       6 GLL5        0.0000 
      3 CA          3.5620   -9.2610   25.6210 C.3       4 GLP5        0.0000 
      4 O           5.9420  -12.1280   25.4840 O.2       1 ALC1        0.0000 
      5 O           5.8740  -13.3480   25.3040 O.2       5 ALL1        0.0000 
      6 O           6.0100  -10.9080   25.6640 O.2       3 ALP1        0.0000 
      7 CA         -3.5543  -16.7630   28.4155 C.3       2 GLC5        0.0000 
      8 CA         -2.1370  -16.6000   30.2710 C.3       6 GLL5        0.0000 
      9 CA         -4.8550  -16.2810   26.8160 C.3       4 GLP5        0.0000 
     10 CA         -0.2416  -17.0077   30.9015 C.3       2 GLC5        0.0000 
     11 CA         -2.3700  -17.8900   29.7590 C.3       6 GLL5        0.0000 
     12 CA          1.2720  -17.5220   31.9890 C.3       4 GLP5        0.0000 
     13 CA         -3.0710  -17.0832   27.5345 C.3       2 GLC5        0.0000 
     14 CA         -1.7230  -18.3130   28.5830 C.3       6 GLL5        0.0000 
     15 CA          0.7975  -16.9937   29.5840 C.3       2 GLC5        0.0000 
     16 CA         -0.8510  -17.4580   27.9230 C.3       6 GLL5        0.0000 
     17 CA          2.3330  -17.1740   30.9890 C.3       4 GLP5        0.0000 
     18 CA          1.7290  -16.0712   23.7530 C.3       2 GLC5        0.0000 
     19 CA          3.1290  -15.8920   25.7290 C.3       6 GLL5        0.0000 
     20 CA          0.5590  -15.6640   22.0800 C.3       4 GLP5        0.0000 
     21 CA          2.2308  -16.4750   22.9135 C.3       2 GLC5        0.0000 
     22 CA          3.3330  -17.5970   24.0110 C.3       6 GLL5        0.0000 
@<TRIPOS>BOND
@<TRIPOS>SUBSTRUCTURE
     1 ALC1        4 GROUP        1 X    ALC  0     ROOT ALC X 1
     2 GLC5        1 GROUP        1 X    GLC  0     **** GLC X 6
     3 ALP1        6 GROUP        1 Y    ALP  0     ROOT ALP Y 8
     4 GLP5        3 GROUP        1 Y    GLP  0     **** GLP Y 13
     5 ALL1        5 GROUP        1 Z    ALL  0     ROOT ALL Z 15
     6 GLL5        2 GROUP        1 Z    GLL  0     **** GLL Z 20
@<TRIPOS>SET

