#    Name: 3w79_ORI_4_ligand
#    Modification time : Tue Mar 25 02:25:09 2014

@<TRIPOS>MOLECULE
3w79_ORI_4_ligand
   34    36     1     0     0
SMALL
NO_CHARGES


@<TRIPOS>ATOM
      1 OB4        -2.9980  -20.2960   30.2000 O.co2     1 ORI302      0.0000 
      2 SB         -3.3680  -18.8920   30.5200 S.o2      1 ORI302      0.0000 
      3 OB2        -3.2190  -18.7370   31.9900 O.co2     1 ORI302      0.0000 
      4 OB3        -4.7650  -18.5880   30.1130 O.co2     1 ORI302      0.0000 
      5 CB4        -2.3700  -17.8900   29.7590 C.ar      1 ORI302      0.0000 
      6 CB5        -2.1370  -16.6000   30.2710 C.ar      1 ORI302      0.0000 
      7 CB6        -1.2570  -15.7420   29.6130 C.ar      1 ORI302      0.0000 
      8 CB3        -1.7230  -18.3130   28.5830 C.ar      1 ORI302      0.0000 
      9 CB2        -0.8510  -17.4580   27.9230 C.ar      1 ORI302      0.0000 
     10 CB1        -0.6250  -16.1690   28.4350 C.ar      1 ORI302      0.0000 
     11 N2          0.2830  -15.3140   27.7860 N.2       1 ORI302      0.0000 
     12 N1          1.3740  -15.8350   27.5170 N.2       1 ORI302      0.0000 
     13 C1          2.4760  -15.2450   26.9070 C.ar      1 ORI302      0.0000 
     14 C2          2.9880  -14.0800   27.4650 C.ar      1 ORI302      0.0000 
     15 C3          4.1110  -13.4690   26.9260 C.ar      1 ORI302      0.0000 
     16 C4          4.7860  -13.9900   25.8140 C.ar      1 ORI302      0.0000 
     17 OA1         5.8740  -13.3480   25.3040 O.3       1 ORI302      0.0000 
     18 C5          4.3200  -15.2350   25.1630 C.ar      1 ORI302      0.0000 
     19 C10         3.1290  -15.8920   25.7290 C.ar      1 ORI302      0.0000 
     20 C6          4.9600  -15.7900   24.0510 C.ar      1 ORI302      0.0000 
     21 C7          4.4720  -16.9750   23.4830 C.ar      1 ORI302      0.0000 
     22 C8          3.3330  -17.5970   24.0110 C.ar      1 ORI302      0.0000 
     23 C9          2.6690  -17.0650   25.1230 C.ar      1 ORI302      0.0000 
     24 H          -2.6150  -16.2982   31.1242 H         1 ORI302      0.0000 
     25 H          -1.0705  -14.8072   29.9828 H         1 ORI302      0.0000 
     26 H          -1.9017  -19.2562   28.2198 H         1 ORI302      0.0000 
     27 H          -0.3727  -17.7568   27.0696 H         1 ORI302      0.0000 
     28 H           2.5260  -13.6642   28.2917 H         1 ORI302      0.0000 
     29 H           4.4701  -12.5906   27.3596 H         1 ORI302      0.0000 
     30 H           5.7846  -15.3327   23.6504 H         1 ORI302      0.0000 
     31 H           4.9524  -17.3895   22.6751 H         1 ORI302      0.0000 
     32 H           2.9778  -18.4618   23.5727 H         1 ORI302      0.0000 
     33 H           1.8370  -17.5412   25.4960 H         1 ORI302      0.0000 
     34 H           6.0459  -12.5903   25.9337 H         1 ORI302      0.0000 
@<TRIPOS>BOND
     1    2    1 ar   
     2    3    2 ar   
     3    4    2 ar   
     4    5    2 1    
     5    6    5 ar   
     6    8    5 ar   
     7    7    6 ar   
     8   24    6 1    
     9   10    7 ar   
    10   25    7 1    
    11    9    8 ar   
    12   26    8 1    
    13   10    9 ar   
    14   27    9 1    
    15   11   10 1    
    16   12   11 2    
    17   13   12 1    
    18   14   13 ar   
    19   19   13 ar   
    20   15   14 ar   
    21   28   14 1    
    22   16   15 ar   
    23   29   15 1    
    24   17   16 1    
    25   18   16 ar   
    26   34   17 1    
    27   19   18 ar   
    28   20   18 ar   
    29   23   19 ar   
    30   21   20 ar   
    31   30   20 1    
    32   22   21 ar   
    33   31   21 1    
    34   23   22 ar   
    35   32   22 1    
    36   33   23 1    
@<TRIPOS>SUBSTRUCTURE
     1 ORI302      1 GROUP   
@<TRIPOS>SET

