#    Name: 1gz6_NAI_3_INTS_M
#    Modification time : Tue Mar 25 04:16:32 2014

@<TRIPOS>MOLECULE
1gz6_NAI_3_INTS_M
   76     0     9     0     0
SMALL
NO_CHARGES


@<TRIPOS>ATOM
      1 CA         -1.3585   29.9075   89.0740 C.3       3 GLC5        0.0000 
      2 CA         -1.5300   31.7260   88.4140 C.3       9 GLL5        0.0000 
      3 CA         -1.1870   28.0890   89.7340 C.3       6 GLP5        0.0000 
      4 O          -4.1830   30.4215   89.1335 O.2       1 ALC1        0.0000 
      5 O          -3.9890   31.4360   88.1950 O.2       7 ALL1        0.0000 
      6 O          -4.3770   29.4070   90.0720 O.2       4 ALP1        0.0000 
      7 O          -4.3145   30.8980   90.4380 O.2       1 ALC1        0.0000 
      8 O          -4.2520   32.3890   90.8040 O.2       7 ALL1        0.0000 
      9 O          -5.2705   31.1200   90.9105 O.2       1 ALC1        0.0000 
     10 O          -6.2890   29.8510   91.0170 O.2       4 ALP1        0.0000 
     11 CA         -1.5475   29.8905   90.2210 C.3       3 GLC5        0.0000 
     12 CA         -1.9080   31.6920   90.7080 C.3       9 GLL5        0.0000 
     13 CA         -0.4465   30.2975   96.9810 C.3       3 GLC5        0.0000 
     14 CA         -0.1700   31.4810   95.3260 C.3       9 GLL5        0.0000 
     15 CA         -0.7230   29.1140   98.6360 C.3       6 GLP5        0.0000 
     16 CA          1.6145   30.5785   95.5680 C.3       3 GLC5        0.0000 
     17 CA          3.3990   29.6760   95.8100 C.3       6 GLP5        0.0000 
     18 O           0.5970   31.4740   97.8530 O.2       1 ALC1        0.0000 
     19 O           0.3410   32.1320   96.3860 O.2       7 ALL1        0.0000 
     20 O           0.8530   30.8160   99.3200 O.2       4 ALP1        0.0000 
     21 N           0.4570   29.3025   96.3920 N.am      2 SEC2        0.0000 
     22 N          -0.3690   30.0990   95.3750 N.am      8 SEL2        0.0000 
     23 N           1.2830   28.5060   97.4090 N.am      5 SEP2        0.0000 
     24 CA         -2.7260   28.4685   93.4375 C.3       3 GLC5        0.0000 
     25 CA         -0.9010   29.4240   94.2810 C.3       9 GLL5        0.0000 
     26 CA         -4.5510   27.5130   92.5940 C.3       6 GLP5        0.0000 
     27 CA         -2.3945   30.2390   95.0400 C.3       3 GLC5        0.0000 
     28 CA         -3.8880   31.0540   95.7990 C.3       6 GLP5        0.0000 
     29 CA         -0.8120   29.2690   96.4585 C.3       3 GLC5        0.0000 
     30 CA          0.8080   28.5185   94.5045 C.3       3 GLC5        0.0000 
     31 CA          2.5170   27.6130   94.7280 C.3       6 GLP5        0.0000 
     32 CA          0.5830   29.5585   93.0375 C.3       3 GLC5        0.0000 
     33 CA          2.0670   29.6930   91.7940 C.3       6 GLP5        0.0000 
     34 N          -2.8795   29.6090   93.6670 N.am      2 SEC2        0.0000 
     35 N          -1.2710   29.9300   93.1130 N.am      8 SEL2        0.0000 
     36 N          -4.4880   29.2880   94.2210 N.am      5 SEP2        0.0000 
     37 N          -0.7695   30.7805   82.3625 N.am      2 SEC2        0.0000 
     38 N          -0.3610   31.8810   83.1650 N.am      8 SEL2        0.0000 
     39 N          -1.1780   29.6800   81.5600 N.am      5 SEP2        0.0000 
     40 CA          1.6775   30.4450   83.1690 C.3       3 GLC5        0.0000 
     41 CA          2.1620   31.6820   84.7330 C.3       9 GLL5        0.0000 
     42 CA          1.1930   29.2080   81.6050 C.3       6 GLP5        0.0000 
     43 CA          3.5165   30.8740   82.9950 C.3       3 GLC5        0.0000 
     44 CA          3.6380   31.6650   85.0790 C.3       9 GLL5        0.0000 
     45 CA          3.3950   30.0830   80.9110 C.3       6 GLP5        0.0000 
     46 CA          5.4775   30.9015   84.7045 C.3       3 GLC5        0.0000 
     47 CA          7.3170   30.1380   84.3300 C.3       6 GLP5        0.0000 
     48 CA          3.6850   33.2255   88.0840 C.3       3 GLC5        0.0000 
     49 CA          4.0750   32.7000   86.1220 C.3       9 GLL5        0.0000 
     50 CA          3.2950   33.7510   90.0460 C.3       6 GLP5        0.0000 
     51 CA          6.7085   34.0480   86.0800 C.3       3 GLC5        0.0000 
     52 CA          4.6500   33.8160   85.2460 C.3       9 GLL5        0.0000 
     53 CA          8.7670   34.2800   86.9140 C.3       6 GLP5        0.0000 
     54 N           6.2825   35.5825   85.4240 N.am      2 SEC2        0.0000 
     55 N           5.5690   34.6090   86.0340 N.am      8 SEL2        0.0000 
     56 N           6.9960   36.5560   84.8140 N.am      5 SEP2        0.0000 
     57 CA          6.3005   31.5740   84.2245 C.3       3 GLC5        0.0000 
     58 CA          5.2840   33.0100   84.1190 C.3       9 GLL5        0.0000 
     59 CA          6.0175   31.9910   82.2835 C.3       3 GLC5        0.0000 
     60 CA          6.7510   30.9720   80.4480 C.3       6 GLP5        0.0000 
     61 CA          3.9325   31.9810   81.4415 C.3       3 GLC5        0.0000 
     62 CA          4.4700   33.8790   81.9720 C.3       9 GLL5        0.0000 
     63 CA          5.9265   34.5340   78.4705 C.3       3 GLC5        0.0000 
     64 CA          5.9700   35.3000   80.5640 C.3       9 GLL5        0.0000 
     65 CA          5.8830   33.7680   76.3770 C.3       6 GLP5        0.0000 
     66 CA          0.6280   30.7022   92.6817 C.3       3 GLC5        0.0000 
     67 CA         -0.5460   32.1320   94.0820 C.3       9 GLL5        0.0000 
     68 CA          1.5495   32.6317   94.2450 C.3       3 GLC5        0.0000 
     69 CA          3.4570   33.4570   93.7860 C.3       6 GLP5        0.0000 
     70 CA         -2.3025   31.3014   94.8397 C.3       3 GLC5        0.0000 
     71 CA          5.6658   32.6118   80.9190 C.3       3 GLC5        0.0000 
     72 CA          8.5968   35.0735   82.5957 C.3       3 GLC5        0.0000 
     73 CA          6.9660   35.1430   81.5740 C.3       9 GLL5        0.0000 
     74 CA         10.2990   35.3650   83.0350 C.3       6 GLP5        0.0000 
     75 CA          6.6983   32.8966   81.1760 C.3       3 GLC5        0.0000 
     76 CA          6.8230   34.4210   82.7390 C.3       9 GLL5        0.0000 
@<TRIPOS>BOND
@<TRIPOS>SUBSTRUCTURE
     1 ALC1        4 GROUP        1 X    ALC  0     ROOT ALC X 1
     2 SEC2       21 GROUP        1 X    SEC  0     **** SEC X 2
     3 GLC5        1 GROUP        1 X    GLC  0     **** GLC X 6
     4 ALP1        6 GROUP        1 Y    ALP  0     ROOT ALP Y 8
     5 SEP2       23 GROUP        1 Y    SEP  0     **** SEP Y 9
     6 GLP5        3 GROUP        1 Y    GLP  0     **** GLP Y 13
     7 ALL1        5 GROUP        1 Z    ALL  0     ROOT ALL Z 15
     8 SEL2       22 GROUP        1 Z    SEL  0     **** SEL Z 16
     9 GLL5        2 GROUP        1 Z    GLL  0     **** GLL Z 20
@<TRIPOS>SET

