#    Name: 1gz6_NAI_3_ligand
#    Modification time : Tue Mar 25 04:16:32 2014

@<TRIPOS>MOLECULE
1gz6_NAI_3_ligand
   71    75     1     0     0
SMALL
NO_CHARGES


@<TRIPOS>ATOM
      1 PA         -1.5140   33.8380   85.3280 P.3       1 NAI1304     0.0000 
      2 O1A        -1.6880   35.0050   86.1820 O.co2     1 NAI1304     0.0000 
      3 O2A        -2.7140   33.5280   84.5130 O.co2     1 NAI1304     0.0000 
      4 O5B        -1.2290   32.5000   86.1530 O.3       1 NAI1304     0.0000 
      5 C5B        -0.6420   32.5250   87.4850 C.3       1 NAI1304     0.0000 
      6 C4B        -1.5300   31.7260   88.4140 C.3       1 NAI1304     0.0000 
      7 O4B        -0.9090   31.7560   89.7340 O.3       1 NAI1304     0.0000 
      8 C3B        -2.9520   32.3180   88.6490 C.3       1 NAI1304     0.0000 
      9 O3B        -3.9890   31.4360   88.1950 O.3       1 NAI1304     0.0000 
     10 C2B        -2.9620   32.6240   90.1780 C.3       1 NAI1304     0.0000 
     11 O2B        -4.2520   32.3890   90.8040 O.3       1 NAI1304     0.0000 
     12 C1B        -1.9080   31.6920   90.7080 C.3       1 NAI1304     0.0000 
     13 N9A        -1.3510   32.1390   91.9880 N.pl3     1 NAI1304     0.0000 
     14 C8A        -0.9890   33.4140   92.4000 C.2       1 NAI1304     0.0000 
     15 N7A        -0.4910   33.4720   93.6750 N.2       1 NAI1304     0.0000 
     16 C5A        -0.5460   32.1320   94.0820 C.ar      1 NAI1304     0.0000 
     17 C6A        -0.1700   31.4810   95.3260 C.ar      1 NAI1304     0.0000 
     18 N6A         0.3410   32.1320   96.3860 N.pl3     1 NAI1304     0.0000 
     19 N1A        -0.3690   30.0990   95.3750 N.ar      1 NAI1304     0.0000 
     20 C2A        -0.9010   29.4240   94.2810 C.ar      1 NAI1304     0.0000 
     21 N3A        -1.2710   29.9300   93.1130 N.ar      1 NAI1304     0.0000 
     22 C4A        -1.0760   31.2910   93.0570 C.ar      1 NAI1304     0.0000 
     23 O3         -0.2220   34.0150   84.4700 O.3       1 NAI1304     0.0000 
     24 PN          0.4740   33.1070   83.3530 P.3       1 NAI1304     0.0000 
     25 O1N         0.6090   33.9420   82.1290 O.co2     1 NAI1304     0.0000 
     26 O2N        -0.3610   31.8810   83.1650 O.co2     1 NAI1304     0.0000 
     27 O5D         1.9220   32.8420   83.9210 O.3       1 NAI1304     0.0000 
     28 C5D         2.1620   31.6820   84.7330 C.3       1 NAI1304     0.0000 
     29 C4D         3.6380   31.6650   85.0790 C.3       1 NAI1304     0.0000 
     30 O4D         4.4210   31.9160   83.8560 O.3       1 NAI1304     0.0000 
     31 C3D         4.0750   32.7000   86.1220 C.3       1 NAI1304     0.0000 
     32 O3D         5.0160   32.1860   87.0850 O.3       1 NAI1304     0.0000 
     33 C2D         4.6500   33.8160   85.2460 C.3       1 NAI1304     0.0000 
     34 O2D         5.5690   34.6090   86.0340 O.3       1 NAI1304     0.0000 
     35 C1D         5.2840   33.0100   84.1190 C.3       1 NAI1304     0.0000 
     36 N1N         5.5360   33.8080   82.8800 N.pl3     1 NAI1304     0.0000 
     37 C2N         4.4700   33.8790   81.9720 C.2       1 NAI1304     0.0000 
     38 C3N         4.6910   34.6240   80.8080 C.2       1 NAI1304     0.0000 
     39 C7N         3.6150   34.7780   79.7130 C.2       1 NAI1304     0.0000 
     40 O7N         3.8780   35.4460   78.7090 O.2       1 NAI1304     0.0000 
     41 N7N         2.4150   34.1810   79.8580 N.am      1 NAI1304     0.0000 
     42 C4N         5.9700   35.3000   80.5640 C.3       1 NAI1304     0.0000 
     43 C5N         6.9660   35.1430   81.5740 C.2       1 NAI1304     0.0000 
     44 C6N         6.8230   34.4210   82.7390 C.2       1 NAI1304     0.0000 
     45 H          -0.5708   33.5441   87.8613 H         1 NAI1304     0.0000 
     46 H           0.3511   32.0790   87.4825 H         1 NAI1304     0.0000 
     47 H          -1.6260   30.7237   88.0856 H         1 NAI1304     0.0000 
     48 H          -2.9579   33.2790   88.1435 H         1 NAI1304     0.0000 
     49 H          -2.6132   33.6277   90.2982 H         1 NAI1304     0.0000 
     50 H          -2.3178   30.7150   90.7782 H         1 NAI1304     0.0000 
     51 H          -1.0861   34.2095   91.8145 H         1 NAI1304     0.0000 
     52 H           0.4183   33.1250   96.2971 H         1 NAI1304     0.0000 
     53 H           0.5981   31.5650   97.1686 H         1 NAI1304     0.0000 
     54 H          -1.0189   28.3456   94.4263 H         1 NAI1304     0.0000 
     55 H           1.9239   30.7642   84.2012 H         1 NAI1304     0.0000 
     56 H           1.5932   31.7161   85.6588 H         1 NAI1304     0.0000 
     57 H           3.9026   30.6765   85.4544 H         1 NAI1304     0.0000 
     58 H           3.1750   33.0884   86.5738 H         1 NAI1304     0.0000 
     59 H           3.8299   34.3627   84.8592 H         1 NAI1304     0.0000 
     60 H           6.2435   32.6339   84.4982 H         1 NAI1304     0.0000 
     61 H           3.5985   33.4212   82.1479 H         1 NAI1304     0.0000 
     62 H           2.2682   33.6911   80.7173 H         1 NAI1304     0.0000 
     63 H           1.7784   34.2812   79.0933 H         1 NAI1304     0.0000 
     64 H           5.7655   36.3975   80.3920 H         1 NAI1304     0.0000 
     65 H           6.3729   34.9510   79.5681 H         1 NAI1304     0.0000 
     66 H           7.8941   35.6339   81.3940 H         1 NAI1304     0.0000 
     67 H           7.5173   34.3198   83.4221 H         1 NAI1304     0.0000 
     68 H          -4.0817   30.7518   88.9183 H         1 NAI1304     0.0000 
     69 H          -4.4373   31.4172   90.6578 H         1 NAI1304     0.0000 
     70 H           5.2317   31.2623   86.7683 H         1 NAI1304     0.0000 
     71 H           5.8683   34.0023   86.7704 H         1 NAI1304     0.0000 
@<TRIPOS>BOND
     1    2    1 ar   
     2    3    1 ar   
     3    4    1 1    
     4   23    1 1    
     5    5    4 1    
     6    6    5 1    
     7   45    5 1    
     8   46    5 1    
     9    7    6 1    
    10    8    6 1    
    11   47    6 1    
    12   12    7 1    
    13    9    8 1    
    14   10    8 1    
    15   48    8 1    
    16   68    9 1    
    17   11   10 1    
    18   12   10 1    
    19   49   10 1    
    20   69   11 1    
    21   13   12 1    
    22   50   12 1    
    23   14   13 1    
    24   22   13 1    
    25   15   14 2    
    26   51   14 1    
    27   16   15 1    
    28   17   16 ar   
    29   22   16 ar   
    30   18   17 1    
    31   19   17 ar   
    32   52   18 1    
    33   53   18 1    
    34   20   19 ar   
    35   21   20 ar   
    36   54   20 1    
    37   22   21 ar   
    38   24   23 1    
    39   25   24 ar   
    40   26   24 ar   
    41   27   24 1    
    42   28   27 1    
    43   29   28 1    
    44   55   28 1    
    45   56   28 1    
    46   30   29 1    
    47   31   29 1    
    48   57   29 1    
    49   35   30 1    
    50   32   31 1    
    51   33   31 1    
    52   58   31 1    
    53   70   32 1    
    54   34   33 1    
    55   35   33 1    
    56   59   33 1    
    57   71   34 1    
    58   36   35 1    
    59   60   35 1    
    60   37   36 1    
    61   44   36 1    
    62   38   37 2    
    63   61   37 1    
    64   39   38 1    
    65   42   38 1    
    66   40   39 2    
    67   41   39 am   
    68   62   41 1    
    69   63   41 1    
    70   43   42 1    
    71   64   42 1    
    72   65   42 1    
    73   44   43 2    
    74   66   43 1    
    75   67   44 1    
@<TRIPOS>SUBSTRUCTURE
     1 NAI1304     1 GROUP   
@<TRIPOS>SET

