#    Name: 1vru_AAP_1_INTS_M
#    Modification time : Tue Mar 25 08:14:22 2014

@<TRIPOS>MOLECULE
1vru_AAP_1_INTS_M
   62     0     6     0     0
SMALL
NO_CHARGES


@<TRIPOS>ATOM
      1 CA          1.4965  -38.8360   24.0355 C.3       2 GLC5        0.0000 
      2 CA          1.4470  -38.0900   22.2840 C.3       6 GLL5        0.0000 
      3 CA          1.5460  -39.5820   25.7870 C.3       4 GLP5        0.0000 
      4 O           2.5245  -41.8685   22.0295 O.2       1 ALC1        0.0000 
      5 O           2.4110  -40.3380   22.4690 O.2       5 ALL1        0.0000 
      6 O           2.6380  -43.3990   21.5900 O.2       3 ALP1        0.0000 
      7 CA          1.3500  -35.3350   18.4540 C.3       2 GLC5        0.0000 
      8 CA         -0.0520  -36.5780   19.0820 C.3       6 GLL5        0.0000 
      9 CA          2.7520  -34.0920   17.8260 C.3       4 GLP5        0.0000 
     10 CA         -3.3000  -35.8725   19.4950 C.3       2 GLC5        0.0000 
     11 CA         -1.0760  -35.7550   19.6090 C.3       6 GLL5        0.0000 
     12 CA         -5.5240  -35.9900   19.3810 C.3       4 GLP5        0.0000 
     13 CA         -2.4900  -37.4615   21.1300 C.3       2 GLC5        0.0000 
     14 CA         -1.2820  -35.7070   20.9710 C.3       6 GLL5        0.0000 
     15 CA         -3.6980  -39.2160   21.2890 C.3       4 GLP5        0.0000 
     16 CA          2.4270  -36.1450   18.5225 C.3       2 GLC5        0.0000 
     17 CA          2.1020  -38.1980   19.2190 C.3       6 GLL5        0.0000 
     18 CA          0.4060  -39.1780   18.5965 C.3       2 GLC5        0.0000 
     19 CA         -1.2900  -40.1580   17.9740 C.3       4 GLP5        0.0000 
     20 CA          3.2715  -39.8460   19.3140 C.3       2 GLC5        0.0000 
     21 CA          4.4410  -41.4940   19.4090 C.3       4 GLP5        0.0000 
     22 CA         -0.2210  -37.0065   25.2155 C.3       2 GLC5        0.0000 
     23 CA         -0.7520  -36.2920   23.4880 C.3       6 GLL5        0.0000 
     24 CA          0.3100  -37.7210   26.9430 C.3       4 GLP5        0.0000 
     25 CA         -2.2775  -36.1270   24.8390 C.3       2 GLC5        0.0000 
     26 CA         -3.8030  -35.9620   26.1900 C.3       4 GLP5        0.0000 
     27 CA         -0.2315  -34.2085   24.0035 C.3       2 GLC5        0.0000 
     28 CA          0.2890  -32.1250   24.5190 C.3       4 GLP5        0.0000 
     29 CA          6.6815  -33.7670   23.1125 C.3       2 GLC5        0.0000 
     30 CA          5.1620  -35.1660   23.6300 C.3       6 GLL5        0.0000 
     31 CA          8.2010  -32.3680   22.5950 C.3       4 GLP5        0.0000 
     32 CA          7.5570  -34.2040   21.9805 C.3       2 GLC5        0.0000 
     33 CA          6.9130  -36.0400   21.3660 C.3       6 GLL5        0.0000 
     34 CA          5.7760  -35.2210   20.3385 C.3       2 GLC5        0.0000 
     35 CA          4.6390  -34.4020   19.3110 C.3       4 GLP5        0.0000 
     36 CA          7.3850  -36.9180   22.9140 C.3       2 GLC5        0.0000 
     37 CA          7.8570  -37.7960   24.4620 C.3       4 GLP5        0.0000 
     38 CA          8.4275  -36.4290   20.4800 C.3       2 GLC5        0.0000 
     39 CA          9.9420  -36.8180   19.5940 C.3       4 GLP5        0.0000 
     40 CA          1.2365  -35.5950   26.9510 C.3       2 GLC5        0.0000 
     41 CA          2.2760  -34.4310   25.9850 C.3       6 GLL5        0.0000 
     42 CA          0.1970  -36.7590   27.9170 C.3       4 GLP5        0.0000 
     43 CA          2.9135  -32.8830   26.7550 C.3       2 GLC5        0.0000 
     44 CA          3.5510  -31.3350   27.5250 C.3       4 GLP5        0.0000 
     45 CA         -0.7980  -38.6483   22.6235 C.3       2 GLC5        0.0000 
     46 CA         -2.5930  -39.6100   23.4520 C.3       4 GLP5        0.0000 
     47 CA         -0.4663  -38.5565   18.7410 C.3       2 GLC5        0.0000 
     48 CA          0.7670  -37.3320   19.9340 C.3       6 GLL5        0.0000 
     49 CA         -1.6033  -37.9903   23.0515 C.3       2 GLC5        0.0000 
     50 CA         -0.4750  -36.4490   21.8140 C.3       6 GLL5        0.0000 
     51 CA          2.7437  -35.0840   21.9515 C.3       2 GLC5        0.0000 
     52 CA          2.5950  -36.0620   24.0690 C.3       6 GLL5        0.0000 
     53 CA          2.5110  -33.8290   20.3440 C.3       4 GLP5        0.0000 
     54 CA          2.2612  -37.9605   24.6730 C.3       2 GLC5        0.0000 
     55 CA          3.3580  -36.6160   23.0490 C.3       6 GLL5        0.0000 
     56 CA          4.7765  -35.0305   21.2668 C.3       2 GLC5        0.0000 
     57 CA          4.6660  -36.1520   22.8150 C.3       6 GLL5        0.0000 
     58 CA          5.2120  -37.5515   23.7685 C.3       2 GLC5        0.0000 
     59 CA          5.8370  -39.3280   24.2560 C.3       4 GLP5        0.0000 
     60 CA          1.4925  -33.4377   24.9730 C.3       2 GLC5        0.0000 
     61 CA          3.1160  -35.0700   24.8690 C.3       6 GLL5        0.0000 
     62 CA          0.9835  -35.0668   20.5488 C.3       2 GLC5        0.0000 
@<TRIPOS>BOND
@<TRIPOS>SUBSTRUCTURE
     1 ALC1        4 GROUP        1 X    ALC  0     ROOT ALC X 1
     2 GLC5        1 GROUP        1 X    GLC  0     **** GLC X 6
     3 ALP1        6 GROUP        1 Y    ALP  0     ROOT ALP Y 8
     4 GLP5        3 GROUP        1 Y    GLP  0     **** GLP Y 13
     5 ALL1        5 GROUP        1 Z    ALL  0     ROOT ALL Z 15
     6 GLL5        2 GROUP        1 Z    GLL  0     **** GLL Z 20
@<TRIPOS>SET

