#    Name: 1vru_AAP_1_ligand
#    Modification time : Tue Mar 25 08:14:22 2014

@<TRIPOS>MOLECULE
1vru_AAP_1_ligand
   39    40     1     0     0
SMALL
NO_CHARGES


@<TRIPOS>ATOM
      1 C           1.3940  -39.5760   22.0630 C.2       1 AAP999      0.0000 
      2 CA          1.4470  -38.0900   22.2840 C.3       1 AAP999      0.0000 
      3 O           0.3870  -40.0320   21.5120 O.2       1 AAP999      0.0000 
      4 N           2.4110  -40.3380   22.4690 N.am      1 AAP999      0.0000 
      5 C1          0.5470  -37.2830   21.3060 C.ar      1 AAP999      0.0000 
      6 C2          0.7670  -37.3320   19.9340 C.ar      1 AAP999      0.0000 
      7 C3         -0.0520  -36.5780   19.0820 C.ar      1 AAP999      0.0000 
      8 C4         -1.0760  -35.7550   19.6090 C.ar      1 AAP999      0.0000 
      9 C5         -1.2820  -35.7070   20.9710 C.ar      1 AAP999      0.0000 
     10 C6         -0.4750  -36.4490   21.8140 C.ar      1 AAP999      0.0000 
     11 CL2         2.1020  -38.1980   19.2190 Cl        1 AAP999      0.0000 
     12 CL6        -0.7520  -36.2920   23.4880 Cl        1 AAP999      0.0000 
     13 N'          2.8180  -37.6390   22.2900 N.pl3     1 AAP999      0.0000 
     14 C1'         3.3580  -36.6160   23.0490 C.ar      1 AAP999      0.0000 
     15 C2'         4.6660  -36.1520   22.8150 C.ar      1 AAP999      0.0000 
     16 C3'         5.1620  -35.1660   23.6300 C.ar      1 AAP999      0.0000 
     17 C4'         4.3960  -34.6280   24.6440 C.ar      1 AAP999      0.0000 
     18 C5'         3.1160  -35.0700   24.8690 C.ar      1 AAP999      0.0000 
     19 C6'         2.5950  -36.0620   24.0690 C.ar      1 AAP999      0.0000 
     20 C'          5.5520  -36.6660   21.6550 C.2       1 AAP999      0.0000 
     21 O'          5.1610  -37.5720   20.9000 O.2       1 AAP999      0.0000 
     22 CM'         6.9130  -36.0400   21.3660 C.3       1 AAP999      0.0000 
     23 CM5         2.2760  -34.4310   25.9850 C.3       1 AAP999      0.0000 
     24 H           1.0189  -37.9074   23.3090 H         1 AAP999      0.0000 
     25 H           2.3364  -41.3148   22.2684 H         1 AAP999      0.0000 
     26 H           3.1565  -39.8638   22.9374 H         1 AAP999      0.0000 
     27 H           0.0874  -36.6190   18.0658 H         1 AAP999      0.0000 
     28 H          -1.6529  -35.2034   18.9666 H         1 AAP999      0.0000 
     29 H          -2.0338  -35.1212   21.3616 H         1 AAP999      0.0000 
     30 H           3.4726  -38.1692   21.6256 H         1 AAP999      0.0000 
     31 H           6.1309  -34.8159   23.4840 H         1 AAP999      0.0000 
     32 H           4.7959  -33.8793   25.2428 H         1 AAP999      0.0000 
     33 H           1.6306  -36.4003   24.2240 H         1 AAP999      0.0000 
     34 H           7.5303  -36.1154   22.1491 H         1 AAP999      0.0000 
     35 H           7.3672  -36.4799   20.5913 H         1 AAP999      0.0000 
     36 H           6.8354  -35.0675   21.1466 H         1 AAP999      0.0000 
     37 H           2.7052  -34.5400   26.8816 H         1 AAP999      0.0000 
     38 H           2.1483  -33.4501   25.8384 H         1 AAP999      0.0000 
     39 H           1.3652  -34.8395   26.0445 H         1 AAP999      0.0000 
@<TRIPOS>BOND
     1    2    1 1    
     2    3    1 2    
     3    4    1 am   
     4    5    2 1    
     5   13    2 1    
     6   24    2 1    
     7   25    4 1    
     8   26    4 1    
     9    6    5 ar   
    10   10    5 ar   
    11    7    6 ar   
    12   11    6 1    
    13    8    7 ar   
    14   27    7 1    
    15    9    8 ar   
    16   28    8 1    
    17   10    9 ar   
    18   29    9 1    
    19   12   10 1    
    20   14   13 1    
    21   30   13 1    
    22   15   14 ar   
    23   19   14 ar   
    24   16   15 ar   
    25   20   15 1    
    26   17   16 ar   
    27   31   16 1    
    28   18   17 ar   
    29   32   17 1    
    30   19   18 ar   
    31   23   18 1    
    32   33   19 1    
    33   21   20 2    
    34   22   20 1    
    35   34   22 1    
    36   35   22 1    
    37   36   22 1    
    38   37   23 1    
    39   38   23 1    
    40   39   23 1    
@<TRIPOS>SUBSTRUCTURE
     1 AAP999      1 GROUP   
@<TRIPOS>SET

