#    Name: 4dya_0MF_2_INTS_M
#    Modification time : Tue Mar 25 10:21:40 2014

@<TRIPOS>MOLECULE
4dya_0MF_2_INTS_M
   69     0     6     0     0
SMALL
NO_CHARGES


@<TRIPOS>ATOM
      1 CA          3.7325  -28.1315   13.5750 C.3       2 GLC5        0.0000 
      2 CA          1.5200  -28.4530   13.5440 C.3       6 GLL5        0.0000 
      3 CA          5.9450  -27.8100   13.6060 C.3       4 GLP5        0.0000 
      4 CA         -3.4455  -39.6935   13.6810 C.3       2 GLC5        0.0000 
      5 CA         -4.5900  -38.4990   12.4950 C.3       6 GLL5        0.0000 
      6 CA         -2.3010  -40.8880   14.8670 C.3       4 GLP5        0.0000 
      7 CA          2.0855  -37.5910   15.1955 C.3       2 GLC5        0.0000 
      8 CA          0.5050  -36.2200   15.0210 C.3       6 GLL5        0.0000 
      9 CA          3.6660  -38.9620   15.3700 C.3       4 GLP5        0.0000 
     10 CA         -1.5335  -38.3875   11.3160 C.3       2 GLC5        0.0000 
     11 CA         -3.0500  -37.0830   11.8830 C.3       6 GLL5        0.0000 
     12 CA         -0.0170  -39.6920   10.7490 C.3       4 GLP5        0.0000 
     13 CA          3.6045  -31.1925   14.6285 C.3       2 GLC5        0.0000 
     14 CA          2.4870  -32.0840   13.0440 C.3       6 GLL5        0.0000 
     15 CA          4.7220  -30.3010   16.2130 C.3       4 GLP5        0.0000 
     16 CA          1.5515  -32.1335   14.5955 C.3       2 GLC5        0.0000 
     17 CA          0.6160  -32.1830   16.1470 C.3       4 GLP5        0.0000 
     18 CA          5.2735  -32.4610    9.9540 C.3       2 GLC5        0.0000 
     19 CA          3.5830  -32.8160   10.4810 C.3       6 GLL5        0.0000 
     20 CA          6.9640  -32.1060    9.4270 C.3       4 GLP5        0.0000 
     21 CA          4.7060  -30.1465   13.4210 C.3       2 GLC5        0.0000 
     22 CA          3.5710  -31.2410   12.3740 C.3       6 GLL5        0.0000 
     23 CA          5.8410  -29.0520   14.4680 C.3       4 GLP5        0.0000 
     24 CA          5.8420  -27.8925   11.4695 C.3       2 GLC5        0.0000 
     25 CA          5.7390  -27.9750    9.3330 C.3       6 GLL5        0.0000 
     26 CA          6.0770  -26.9960    7.6510 C.3       2 GLC5        0.0000 
     27 CA          6.4150  -26.0170    5.9690 C.3       4 GLP5        0.0000 
     28 CA          4.1230  -26.9945    8.7360 C.3       2 GLC5        0.0000 
     29 CA          2.5070  -26.0140    8.1390 C.3       4 GLP5        0.0000 
     30 CA          6.8580  -29.0650    8.8760 C.3       2 GLC5        0.0000 
     31 CA          7.9770  -30.1550    8.4190 C.3       4 GLP5        0.0000 
     32 CA          4.3705  -28.4495    7.6190 C.3       2 GLC5        0.0000 
     33 CA          3.0020  -28.9240    5.9050 C.3       4 GLP5        0.0000 
     34 CA         -0.7970  -28.6130    9.9550 C.3       2 GLC5        0.0000 
     35 CA         -0.1910  -30.6640    9.6430 C.3       6 GLL5        0.0000 
     36 CA         -1.4030  -26.5620   10.2670 C.3       4 GLP5        0.0000 
     37 N           2.9505  -29.9485    7.8915 N.am      1 SEC2        0.0000 
     38 N           3.6690  -30.4060    8.8340 N.am      5 SEL2        0.0000 
     39 N           2.2320  -29.4910    6.9490 N.am      3 SEP2        0.0000 
     40 N          -0.9835  -36.7335   10.1660 N.am      1 SEC2        0.0000 
     41 N          -1.3950  -35.5440   11.1850 N.am      5 SEL2        0.0000 
     42 N          -0.5720  -37.9230    9.1470 N.am      3 SEP2        0.0000 
     43 N          -1.6195  -36.0130    9.5375 N.am      1 SEC2        0.0000 
     44 N          -1.8440  -36.4820    7.8900 N.am      3 SEP2        0.0000 
     45 CA          4.7040  -32.6895   15.6585 C.3       2 GLC5        0.0000 
     46 CA          3.7950  -34.0340   15.2740 C.3       6 GLL5        0.0000 
     47 CA          5.6130  -31.3450   16.0430 C.3       4 GLP5        0.0000 
     48 CA          2.2055  -33.1085   15.7105 C.3       2 GLC5        0.0000 
     49 CA          3.8610  -35.5905   16.5645 C.3       2 GLC5        0.0000 
     50 CA          3.9270  -37.1470   17.8550 C.3       4 GLP5        0.0000 
     51 CA         -0.6328  -27.6007   12.7658 C.3       2 GLC5        0.0000 
     52 CA          0.4200  -28.9320   14.2550 C.3       6 GLL5        0.0000 
     53 CA         -1.2070  -25.8770   11.6000 C.3       4 GLP5        0.0000 
     54 CA          0.1932  -27.2413   12.2338 C.3       2 GLC5        0.0000 
     55 CA          1.6670  -28.7580   12.1910 C.3       6 GLL5        0.0000 
     56 CA         -0.6213  -28.1718   11.0828 C.3       2 GLC5        0.0000 
     57 CA          0.7120  -29.5410   11.5440 C.3       6 GLL5        0.0000 
     58 CA          2.9685  -36.1630   16.4640 C.3       2 GLC5        0.0000 
     59 CA          1.6770  -35.6330   15.4820 C.3       6 GLL5        0.0000 
     60 CA         -4.3687  -39.7580   11.3952 C.3       2 GLC5        0.0000 
     61 CA         -4.2230  -41.4580   11.0270 C.3       4 GLP5        0.0000 
     62 CA          5.0312  -28.1333   12.0068 C.3       2 GLC5        0.0000 
     63 CA          3.6570  -28.9340   10.5830 C.3       6 GLL5        0.0000 
     64 CA          0.6666  -37.4751   12.9903 C.3       2 GLC5        0.0000 
     65 CA          0.6750  -34.9950   12.9410 C.3       6 GLL5        0.0000 
     66 CA          0.9110  -39.1150   11.7950 C.3       4 GLP5        0.0000 
     67 CA          4.6945  -35.0008   13.9900 C.3       2 GLC5        0.0000 
     68 CA          2.3430  -34.7250   14.6640 C.3       6 GLL5        0.0000 
     69 CA          6.3200  -35.6220   13.0110 C.3       4 GLP5        0.0000 
@<TRIPOS>BOND
@<TRIPOS>SUBSTRUCTURE
     1 SEC2       37 GROUP        1 X    SEC  0     ROOT SEC X 2
     2 GLC5        1 GROUP        1 X    GLC  0     **** GLC X 6
     3 SEP2       39 GROUP        1 Y    SEP  0     ROOT SEP Y 9
     4 GLP5        3 GROUP        1 Y    GLP  0     **** GLP Y 13
     5 SEL2       38 GROUP        1 Z    SEL  0     ROOT SEL Z 16
     6 GLL5        2 GROUP        1 Z    GLL  0     **** GLL Z 20
@<TRIPOS>SET

