#    Name: 4dya_0MF_2_ligand
#    Modification time : Tue Mar 25 10:21:40 2014

@<TRIPOS>MOLECULE
4dya_0MF_2_ligand
   64    68     1     0     0
SMALL
NO_CHARGES


@<TRIPOS>ATOM
      1 C1          0.4200  -28.9320   14.2550 C.ar      1 0MF601      0.0000 
      2 C2         -0.5370  -29.7170   13.6080 C.ar      1 0MF601      0.0000 
      3 C3         -4.9390  -38.0760   11.2310 C.2       1 0MF601      0.0000 
      4 C4          1.5200  -28.4530   13.5440 C.ar      1 0MF601      0.0000 
      5 C5         -0.3910  -30.0220   12.2530 C.ar      1 0MF601      0.0000 
      6 C6         -3.9390  -37.1580   10.8330 C.2       1 0MF601      0.0000 
      7 C7          0.6750  -34.9950   12.9410 C.ar      1 0MF601      0.0000 
      8 C8          1.6770  -35.6330   15.4820 C.ar      1 0MF601      0.0000 
      9 C9         -4.5900  -38.4990   12.4950 C.2       1 0MF601      0.0000 
     10 C10         1.6670  -28.7580   12.1910 C.ar      1 0MF601      0.0000 
     11 C11         3.6570  -28.9340   10.5830 C.2       1 0MF601      0.0000 
     12 C12         1.8530  -34.4050   13.3950 C.ar      1 0MF601      0.0000 
     13 C13         0.0040  -35.9060   13.7590 C.ar      1 0MF601      0.0000 
     14 C14         0.5050  -36.2200   15.0210 C.ar      1 0MF601      0.0000 
     15 C15         0.7120  -29.5410   11.5440 C.ar      1 0MF601      0.0000 
     16 C16         2.3430  -34.7250   14.6640 C.ar      1 0MF601      0.0000 
     17 C17         2.8180  -28.2520   11.4880 C.2       1 0MF601      0.0000 
     18 C18        -3.0500  -37.0830   11.8830 C.2       1 0MF601      0.0000 
     19 C19         4.5780  -27.9790   10.2320 C.2       1 0MF601      0.0000 
     20 C20         3.6370  -30.3130   10.0590 C.2       1 0MF601      0.0000 
     21 C21        -1.8100  -36.3020   12.0620 C.2       1 0MF601      0.0000 
     22 C22         2.4470  -33.6140   11.1160 C.3       1 0MF601      0.0000 
     23 C23         2.4870  -32.0840   13.0440 C.3       1 0MF601      0.0000 
     24 C24         3.5830  -32.8160   10.4810 C.3       1 0MF601      0.0000 
     25 C25         3.5710  -31.2410   12.3740 C.3       1 0MF601      0.0000 
     26 C26         5.7390  -27.9750    9.3330 C.3       1 0MF601      0.0000 
     27 C27        -0.1910  -30.6640    9.6430 C.3       1 0MF601      0.0000 
     28 N28         3.2060  -26.9860   11.6840 N.2       1 0MF601      0.0000 
     29 N29         2.5180  -33.4820   12.5750 N.3       1 0MF601      0.0000 
     30 N30         3.5920  -31.4160   10.9230 N.am      1 0MF601      0.0000 
     31 N31        -1.1690  -36.5010   13.2980 N.am      1 0MF601      0.0000 
     32 N32        -0.1660  -37.1400   15.8600 N.pl3     1 0MF601      0.0000 
     33 O33         0.1300  -37.1670   17.0750 O.2       1 0MF601      0.0000 
     34 O34         3.6690  -30.4060    8.8340 O.2       1 0MF601      0.0000 
     35 O35        -1.3950  -35.5440   11.1850 O.2       1 0MF601      0.0000 
     36 O36        -1.1760  -37.7300   15.4110 O.2       1 0MF601      0.0000 
     37 O37        -3.4400  -37.8990   12.9050 O.3       1 0MF601      0.0000 
     38 O38         4.3230  -26.8140   10.8820 O.3       1 0MF601      0.0000 
     39 O39         0.8300  -29.8520   10.2200 O.3       1 0MF601      0.0000 
     40 CL4         3.7950  -34.0340   15.2740 Cl        1 0MF601      0.0000 
     41 H           0.3133  -28.7090   15.2501 H         1 0MF601      0.0000 
     42 H          -1.3482  -30.0700   14.1288 H         1 0MF601      0.0000 
     43 H          -5.6789  -38.3298   10.7228 H         1 0MF601      0.0000 
     44 H           2.2244  -27.8735   14.0184 H         1 0MF601      0.0000 
     45 H          -1.0940  -30.5995   11.7783 H         1 0MF601      0.0000 
     46 H          -3.9076  -36.7057   10.0183 H         1 0MF601      0.0000 
     47 H           0.3040  -34.7634   12.0162 H         1 0MF601      0.0000 
     48 H           2.0448  -35.8634   16.4062 H         1 0MF601      0.0000 
     49 H          -5.1035  -39.1410   13.0165 H         1 0MF601      0.0000 
     50 H           2.5475  -34.6564   10.8152 H         1 0MF601      0.0000 
     51 H           1.5009  -33.2287   10.7369 H         1 0MF601      0.0000 
     52 H           1.5117  -31.6282   12.8269 H         1 0MF601      0.0000 
     53 H           2.6384  -32.0407   14.1309 H         1 0MF601      0.0000 
     54 H           3.4741  -32.8744    9.3864 H         1 0MF601      0.0000 
     55 H           4.5344  -33.3081   10.7383 H         1 0MF601      0.0000 
     56 H           4.5423  -31.5217   12.8140 H         1 0MF601      0.0000 
     57 H           3.3928  -30.1849   12.6361 H         1 0MF601      0.0000 
     58 H          -1.6481  -37.2015   13.9687 H         1 0MF601      0.0000 
     59 H           6.1952  -27.0852    9.3195 H         1 0MF601      0.0000 
     60 H           6.4231  -28.6510    9.6069 H         1 0MF601      0.0000 
     61 H           5.4796  -28.1857    8.3905 H         1 0MF601      0.0000 
     62 H          -0.0196  -30.8435    8.6743 H         1 0MF601      0.0000 
     63 H          -0.2608  -31.5519   10.0978 H         1 0MF601      0.0000 
     64 H          -1.0901  -30.2308    9.7062 H         1 0MF601      0.0000 
@<TRIPOS>BOND
     1    2    1 ar   
     2    4    1 ar   
     3   41    1 1    
     4    5    2 ar   
     5   42    2 1    
     6    6    3 1    
     7    9    3 2    
     8   43    3 1    
     9   10    4 ar   
    10   44    4 1    
    11   15    5 ar   
    12   45    5 1    
    13   18    6 2    
    14   46    6 1    
    15   12    7 ar   
    16   13    7 ar   
    17   47    7 1    
    18   14    8 ar   
    19   16    8 ar   
    20   48    8 1    
    21   37    9 1    
    22   49    9 1    
    23   15   10 ar   
    24   17   10 1    
    25   17   11 1    
    26   19   11 2    
    27   20   11 1    
    28   16   12 ar   
    29   29   12 1    
    30   14   13 ar   
    31   31   13 1    
    32   32   14 1    
    33   39   15 1    
    34   40   16 1    
    35   28   17 2    
    36   21   18 1    
    37   37   18 1    
    38   26   19 1    
    39   38   19 1    
    40   30   20 am   
    41   34   20 2    
    42   31   21 am   
    43   35   21 2    
    44   24   22 1    
    45   29   22 1    
    46   50   22 1    
    47   51   22 1    
    48   25   23 1    
    49   29   23 1    
    50   52   23 1    
    51   53   23 1    
    52   30   24 1    
    53   54   24 1    
    54   55   24 1    
    55   30   25 1    
    56   56   25 1    
    57   57   25 1    
    58   59   26 1    
    59   60   26 1    
    60   61   26 1    
    61   39   27 1    
    62   62   27 1    
    63   63   27 1    
    64   64   27 1    
    65   38   28 1    
    66   58   31 1    
    67   33   32 2    
    68   36   32 2    
@<TRIPOS>SUBSTRUCTURE
     1 0MF601      1 GROUP   
@<TRIPOS>SET

