#    Name: 1uy7_PU4_1_INTS_M
#    Modification time : Tue Mar 25 07:17:26 2014

@<TRIPOS>MOLECULE
1uy7_PU4_1_INTS_M
   50     0     6     0     0
SMALL
NO_CHARGES


@<TRIPOS>ATOM
      1 CA          5.6440    7.8530   26.1405 C.3       2 GLC5        0.0000 
      2 CA          5.1810    7.0090   24.3200 C.3       6 GLL5        0.0000 
      3 CA          6.1070    8.6970   27.9610 C.3       4 GLP5        0.0000 
      4 CA          2.7715   10.7110   26.7375 C.3       2 GLC5        0.0000 
      5 CA          3.1690    9.0230   25.7360 C.3       6 GLL5        0.0000 
      6 CA          2.3740   12.3990   27.7390 C.3       4 GLP5        0.0000 
      7 CA          1.5895   11.1130   26.6685 C.3       2 GLC5        0.0000 
      8 CA          0.8050    9.8270   25.5980 C.3       6 GLL5        0.0000 
      9 CA         -2.3135    8.6140   26.6385 C.3       2 GLC5        0.0000 
     10 CA         -0.9950    9.5150   27.1870 C.3       6 GLL5        0.0000 
     11 CA         -3.6320    7.7130   26.0900 C.3       4 GLP5        0.0000 
     12 CA         -1.7280    8.1710   28.5485 C.3       2 GLC5        0.0000 
     13 CA         -2.4610    6.8270   29.9100 C.3       4 GLP5        0.0000 
     14 CA         -1.8880   10.3420   28.9775 C.3       2 GLC5        0.0000 
     15 CA         -2.7810   11.1690   30.7680 C.3       4 GLP5        0.0000 
     16 CA          0.3455   10.5520   28.1910 C.3       2 GLC5        0.0000 
     17 CA          1.6860   11.5890   29.1950 C.3       4 GLP5        0.0000 
     18 CA         -0.1750    9.9335   22.7660 C.3       2 GLC5        0.0000 
     19 CA         -0.0790   10.5990   24.6950 C.3       6 GLL5        0.0000 
     20 CA         -0.2710    9.2680   20.8370 C.3       4 GLP5        0.0000 
     21 CA         -2.5260    9.2820   25.5815 C.3       2 GLC5        0.0000 
     22 CA         -1.4200   10.8510   25.0730 C.3       6 GLL5        0.0000 
     23 CA         -2.3365   12.5040   25.9150 C.3       2 GLC5        0.0000 
     24 CA         -3.2530   14.1570   26.7570 C.3       4 GLP5        0.0000 
     25 O          -3.5935   11.7940   24.2840 O.2       1 ALC1        0.0000 
     26 O          -2.2100   11.5750   24.2490 O.2       5 ALL1        0.0000 
     27 O          -4.9770   12.0130   24.3190 O.2       3 ALP1        0.0000 
     28 CA          1.4795    9.8810   22.0560 C.3       2 GLC5        0.0000 
     29 CA          3.2300   10.4940   23.2750 C.3       6 GLL5        0.0000 
     30 CA          5.0640   15.8240   27.6745 C.3       2 GLC5        0.0000 
     31 CA          5.8370   15.8210   25.9330 C.3       6 GLL5        0.0000 
     32 CA          4.2910   15.8270   29.4160 C.3       4 GLP5        0.0000 
     33 CA          5.7675   15.9415   23.8445 C.3       2 GLC5        0.0000 
     34 CA          5.6980   16.0620   21.7560 C.3       4 GLP5        0.0000 
     35 CA          6.6150   17.3515   25.8925 C.3       2 GLC5        0.0000 
     36 CA          7.3930   18.8820   25.8520 C.3       4 GLP5        0.0000 
     37 CA          4.6088    8.4838   26.8070 C.3       2 GLC5        0.0000 
     38 CA          0.1248   12.0095   26.1190 C.3       2 GLC5        0.0000 
     39 CA          0.9990   13.2940   27.3540 C.3       4 GLP5        0.0000 
     40 CA          4.2330   11.8453   21.9185 C.3       2 GLC5        0.0000 
     41 CA          4.7610   12.6550   20.3200 C.3       4 GLP5        0.0000 
     42 CA          5.2802   11.3385   25.7703 C.3       2 GLC5        0.0000 
     43 CA          4.1800   11.5770   23.7590 C.3       6 GLL5        0.0000 
     44 CA          5.6880   11.1530   27.7410 C.3       4 GLP5        0.0000 
     45 CA          5.3543   12.3322   22.1928 C.3       2 GLC5        0.0000 
     46 CA          5.5650   11.4710   23.8400 C.3       6 GLL5        0.0000 
     47 CA          4.3108   12.9640   22.3488 C.3       2 GLC5        0.0000 
     48 CA          4.2570   13.8070   24.6100 C.3       6 GLL5        0.0000 
     49 CA          3.2067   12.6907   26.0100 C.3       2 GLC5        0.0000 
     50 CA          5.4069   12.3115   26.1439 C.3       2 GLC5        0.0000 
@<TRIPOS>BOND
@<TRIPOS>SUBSTRUCTURE
     1 ALC1       25 GROUP        1 X    ALC  0     ROOT ALC X 1
     2 GLC5        1 GROUP        1 X    GLC  0     **** GLC X 6
     3 ALP1       27 GROUP        1 Y    ALP  0     ROOT ALP Y 8
     4 GLP5        3 GROUP        1 Y    GLP  0     **** GLP Y 13
     5 ALL1       26 GROUP        1 Z    ALL  0     ROOT ALL Z 15
     6 GLL5        2 GROUP        1 Z    GLL  0     **** GLL Z 20
@<TRIPOS>SET

