#    Name: 1uy7_PU4_1_ligand
#    Modification time : Tue Mar 25 07:17:26 2014

@<TRIPOS>MOLECULE
1uy7_PU4_1_ligand
   43    45     1     0     0
SMALL
NO_CHARGES


@<TRIPOS>ATOM
      1 C18         5.1810    7.0090   24.3200 C.3       1 PU41224     0.0000 
      2 C17         3.6330    6.9890   24.4800 C.3       1 PU41224     0.0000 
      3 C16         3.0520    7.5180   25.5700 C.3       1 PU41224     0.0000 
      4 C15         3.1690    9.0230   25.7360 C.3       1 PU41224     0.0000 
      5 N2          2.0420    9.7150   25.1430 N.pl3     1 PU41224     0.0000 
      6 C12         0.8050    9.8270   25.5980 C.ar      1 PU41224     0.0000 
      7 N4          0.4000    9.2940   26.8260 N.ar      1 PU41224     0.0000 
      8 C14        -0.9950    9.5150   27.1870 C.ar      1 PU41224     0.0000 
      9 N3         -1.7470   10.3070   26.2660 N.ar      1 PU41224     0.0000 
     10 C11        -0.0790   10.5990   24.6950 C.ar      1 PU41224     0.0000 
     11 C13        -1.4200   10.8510   25.0730 C.ar      1 PU41224     0.0000 
     12 N5         -2.2100   11.5750   24.2490 N.pl3     1 PU41224     0.0000 
     13 N1          0.7480   11.0000   23.6890 N.2       1 PU41224     0.0000 
     14 C10         1.8890   10.3900   23.9990 C.2       1 PU41224     0.0000 
     15 C9          3.2300   10.4940   23.2750 C.3       1 PU41224     0.0000 
     16 C1          4.1800   11.5770   23.7590 C.ar      1 PU41224     0.0000 
     17 C6          5.5650   11.4710   23.8400 C.ar      1 PU41224     0.0000 
     18 C5          6.3300   12.5480   24.2910 C.ar      1 PU41224     0.0000 
     19 C2          3.4640   12.7390   24.1450 C.ar      1 PU41224     0.0000 
     20 C3          4.2570   13.8070   24.6100 C.ar      1 PU41224     0.0000 
     21 C4          5.6590   13.7180   24.6760 C.ar      1 PU41224     0.0000 
     22 O1          6.4180   14.7770   25.1570 O.3       1 PU41224     0.0000 
     23 C7          5.8370   15.8210   25.9330 C.3       1 PU41224     0.0000 
     24 H           3.3439    5.8852   24.3192 H         1 PU41224     0.0000 
     25 H           3.2392    7.4540   23.5020 H         1 PU41224     0.0000 
     26 H           3.4466    7.0691   26.5370 H         1 PU41224     0.0000 
     27 H           1.9406    7.2864   25.6289 H         1 PU41224     0.0000 
     28 H           4.1161    9.3463   25.2742 H         1 PU41224     0.0000 
     29 H           3.2437    9.2444   26.8132 H         1 PU41224     0.0000 
     30 H          -1.3760    9.1411   28.0057 H         1 PU41224     0.0000 
     31 H           3.0338   10.6483   22.1886 H         1 PU41224     0.0000 
     32 H           3.7455    9.5080   23.3431 H         1 PU41224     0.0000 
     33 H           6.0302   10.5940   23.5662 H         1 PU41224     0.0000 
     34 H           7.3388   12.4895   24.3399 H         1 PU41224     0.0000 
     35 H           2.4798   12.7913   24.0901 H         1 PU41224     0.0000 
     36 H           3.7926   14.6827   24.9118 H         1 PU41224     0.0000 
     37 H           5.6375    6.5183   25.0622 H         1 PU41224     0.0000 
     38 H           5.4714    6.5815   23.4639 H         1 PU41224     0.0000 
     39 H           5.5423    7.9415   24.3193 H         1 PU41224     0.0000 
     40 H           6.5148   16.5055   26.2015 H         1 PU41224     0.0000 
     41 H           5.1184   16.3016   25.4303 H         1 PU41224     0.0000 
     42 H           5.4234   15.4724   26.7741 H         1 PU41224     0.0000 
     43 H          -3.1313   11.4828   24.6269 H         1 PU41224     0.0000 
@<TRIPOS>BOND
     1    2    1 1    
     2   37    1 1    
     3   38    1 1    
     4   39    1 1    
     5    3    2 1    
     6   24    2 1    
     7   25    2 1    
     8    4    3 1    
     9   26    3 1    
    10   27    3 1    
    11    5    4 1    
    12   28    4 1    
    13   29    4 1    
    14    6    5 1    
    15   14    5 1    
    16    7    6 ar   
    17   10    6 ar   
    18    8    7 ar   
    19    9    8 ar   
    20   30    8 1    
    21   11    9 ar   
    22   11   10 ar   
    23   13   10 1    
    24   12   11 1    
    25   43   12 1    
    26   14   13 2    
    27   15   14 1    
    28   16   15 1    
    29   31   15 1    
    30   32   15 1    
    31   17   16 ar   
    32   19   16 ar   
    33   18   17 ar   
    34   33   17 1    
    35   21   18 ar   
    36   34   18 1    
    37   20   19 ar   
    38   35   19 1    
    39   21   20 ar   
    40   36   20 1    
    41   22   21 1    
    42   23   22 1    
    43   40   23 1    
    44   41   23 1    
    45   42   23 1    
@<TRIPOS>SUBSTRUCTURE
     1 PU41224     1 GROUP   
@<TRIPOS>SET

