#    Name: 2bxt_C2D_1_INTS_M
#    Modification time : Mon Mar 24 21:56:24 2014

@<TRIPOS>MOLECULE
2bxt_C2D_1_INTS_M
   94     0    12     0     0
SMALL
NO_CHARGES


@<TRIPOS>ATOM
      1 N          13.0550  -12.6910   11.8380 N.am      2 SEC2        0.0000 
      2 N          12.1720  -13.1210   13.0270 N.am     10 SEL2        0.0000 
      3 N          13.9380  -12.2610   10.6490 N.am      6 SEP2        0.0000 
      4 CA         15.2770   -8.0090    9.1000 C.3       4 GLC5        0.0000 
      5 CA         16.4230   -8.3340   11.0040 C.3      12 GLL5        0.0000 
      6 CA         14.1310   -7.6840    7.1960 C.3       8 GLP5        0.0000 
      7 CA         17.3120   -6.7165   10.1445 C.3       4 GLC5        0.0000 
      8 CA         18.2010   -5.0990    9.2850 C.3       8 GLP5        0.0000 
      9 CA          8.8035  -10.9860   16.6930 C.3       4 GLC5        0.0000 
     10 CA          8.1380  -12.6370   15.9790 C.3      12 GLL5        0.0000 
     11 CA          9.4690   -9.3350   17.4070 C.3       8 GLP5        0.0000 
     12 CA          6.8575  -13.8145   16.4080 C.3       4 GLC5        0.0000 
     13 CA          5.5770  -14.9920   16.8370 C.3       8 GLP5        0.0000 
     14 CA         18.7020   -9.2850   12.4130 C.3       4 GLC5        0.0000 
     15 CA         17.7400  -10.7330   11.4800 C.3      12 GLL5        0.0000 
     16 CA         19.6640   -7.8370   13.3460 C.3       8 GLP5        0.0000 
     17 CA         17.6105  -10.0660    9.5855 C.3       4 GLC5        0.0000 
     18 CA         17.4810   -9.3990    7.6910 C.3       8 GLP5        0.0000 
     19 CA         18.4095  -12.5665   14.9565 C.3       4 GLC5        0.0000 
     20 CA         16.8950  -13.6270   14.2040 C.3      12 GLL5        0.0000 
     21 CA         19.9240  -11.5060   15.7090 C.3       8 GLP5        0.0000 
     22 CA         18.5315  -14.1125   14.2930 C.3       4 GLC5        0.0000 
     23 CA         20.1680  -14.5980   14.3820 C.3       8 GLP5        0.0000 
     24 CA         16.5805  -12.7270   16.7970 C.3       4 GLC5        0.0000 
     25 CA         15.6100  -13.1120   15.0260 C.3      12 GLL5        0.0000 
     26 CA         17.5510  -12.3420   18.5680 C.3       8 GLP5        0.0000 
     27 CA         13.7275   -9.4455   16.3530 C.3       4 GLC5        0.0000 
     28 CA         13.9720  -11.0570   15.0700 C.3      12 GLL5        0.0000 
     29 CA         13.4830   -7.8340   17.6360 C.3       8 GLP5        0.0000 
     30 OD1        13.6045  -12.4010   17.3200 O.co2     3 ASC3        0.0000 
     31 OD1        13.2670  -11.6180   16.2400 O.co2    11 ASL3        0.0000 
     32 OD1        13.9420  -13.1840   18.4000 O.co2     7 ASP3        0.0000 
     33 CA         10.9115  -13.8900   17.0455 C.3       4 GLC5        0.0000 
     34 CA         11.9170  -12.2650   16.1350 C.3      12 GLL5        0.0000 
     35 CA          9.9060  -15.5150   17.9560 C.3       8 GLP5        0.0000 
     36 CA          9.3605  -11.1680   13.8435 C.3       4 GLC5        0.0000 
     37 CA         10.9320  -11.7610   15.0440 C.3      12 GLL5        0.0000 
     38 CA          7.7890  -10.5750   12.6430 C.3       8 GLP5        0.0000 
     39 CA         11.0650  -11.3975   12.9505 C.3       4 GLC5        0.0000 
     40 CA         11.1980  -11.0340   10.8570 C.3       8 GLP5        0.0000 
     41 CA          8.8485  -15.5605   15.8290 C.3       4 GLC5        0.0000 
     42 CA          8.4900  -14.4800   14.0630 C.3      12 GLL5        0.0000 
     43 CA          9.2070  -16.6410   17.5950 C.3       8 GLP5        0.0000 
     44 CA          9.4245  -12.0575   12.9855 C.3       4 GLC5        0.0000 
     45 CA         11.0600  -13.5400   13.3280 C.3      12 GLL5        0.0000 
     46 O          12.6070  -15.1100   11.3100 O.2       1 ALC1        0.0000 
     47 O          11.1940  -15.3270   11.6050 O.2       9 ALL1        0.0000 
     48 O          14.0200  -14.8930   11.0150 O.2       5 ALP1        0.0000 
     49 CA          9.0865  -12.0230    9.6625 C.3       4 GLC5        0.0000 
     50 CA          7.4620  -13.3670    9.8370 C.3      12 GLL5        0.0000 
     51 CA         10.7110  -10.6790    9.4880 C.3       8 GLP5        0.0000 
     52 CA         18.1063   -8.4610   12.3810 C.3       4 GLC5        0.0000 
     53 CA         16.6740   -9.8360   11.8280 C.3      12 GLL5        0.0000 
     54 CA         14.5457   -9.7530   11.3360 C.3       4 GLC5        0.0000 
     55 CA         12.5430  -10.4210   11.2560 C.3       8 GLP5        0.0000 
     56 CA         17.0147   -9.2420    9.5535 C.3       4 GLC5        0.0000 
     57 CA          9.2425  -14.2715   16.6510 C.3       4 GLC5        0.0000 
     58 CA          9.0200  -13.4190   14.7130 C.3      12 GLL5        0.0000 
     59 CA         16.3530  -12.1753   10.8403 C.3       4 GLC5        0.0000 
     60 CA         17.9060  -11.9740   12.1890 C.3      12 GLL5        0.0000 
     61 CA         14.8830  -12.9970    9.8460 C.3       8 GLP5        0.0000 
     62 CA         18.6863  -11.8223   14.2105 C.3       4 GLC5        0.0000 
     63 CA         18.8083  -13.3683   13.5470 C.3       4 GLC5        0.0000 
     64 CA         16.9910  -12.3030   13.2350 C.3      12 GLL5        0.0000 
     65 CA         15.5553  -11.5025   11.0970 C.3       4 GLC5        0.0000 
     66 CA         15.7810  -10.1800   12.8680 C.3      12 GLL5        0.0000 
     67 CA         15.6775  -12.4270   11.6208 C.3       4 GLC5        0.0000 
     68 CA         15.9530  -11.4110   13.5560 C.3      12 GLL5        0.0000 
     69 CA         16.1914   -8.0252   13.1135 C.3       4 GLC5        0.0000 
     70 CA         16.2180   -6.4180   14.0850 C.3       8 GLP5        0.0000 
     71 CA         14.2050  -10.6082   12.2340 C.3       4 GLC5        0.0000 
     72 CA         13.5530  -10.9422   13.0407 C.3       4 GLC5        0.0000 
     73 CA         15.1540  -11.8700   14.5810 C.3      12 GLL5        0.0000 
     74 CA         10.4467  -10.6740   16.4982 C.3       4 GLC5        0.0000 
     75 CA          6.9250  -14.2717   14.9930 C.3       4 GLC5        0.0000 
     76 CA          5.0950  -14.5940   15.5980 C.3       8 GLP5        0.0000 
     77 CA          8.1617  -12.1645   13.6738 C.3       4 GLC5        0.0000 
     78 CA         10.9815  -12.5823   11.9147 C.3       4 GLC5        0.0000 
     79 CA         11.8600  -16.6707    9.0102 C.3       4 GLC5        0.0000 
     80 CA         10.8610  -16.4970   10.7460 C.3      12 GLL5        0.0000 
     81 CA         13.2270  -17.0560    7.9230 C.3       8 GLP5        0.0000 
     82 CA          8.5610  -16.0695    8.0203 C.3       4 GLC5        0.0000 
     83 CA         10.1250  -16.0740    9.4490 C.3      12 GLL5        0.0000 
     84 CA          7.6610  -16.3890    6.4370 C.3       8 GLP5        0.0000 
     85 CA         10.5090  -14.1905    8.7922 C.3       4 GLC5        0.0000 
     86 CA          8.7970  -15.4260    9.7580 C.3      12 GLL5        0.0000 
     87 CA         11.5570  -12.6310    7.9810 C.3       8 GLP5        0.0000 
     88 CA          7.3837  -16.1002    8.4225 C.3       4 GLC5        0.0000 
     89 CA          7.7090  -16.1510   10.2640 C.3      12 GLL5        0.0000 
     90 CA          5.6262  -12.8545    8.9915 C.3       4 GLC5        0.0000 
     91 CA          6.3750  -14.0910   10.3410 C.3      12 GLL5        0.0000 
     92 CA          4.3340  -11.9800    7.8940 C.3       8 GLP5        0.0000 
     93 CA          6.6238  -12.1305   11.1250 C.3       4 GLC5        0.0000 
     94 CA          6.3290  -10.5320   12.1610 C.3       8 GLP5        0.0000 
@<TRIPOS>BOND
@<TRIPOS>SUBSTRUCTURE
     1 ALC1       46 GROUP        1 X    ALC  0     ROOT ALC X 1
     2 SEC2        1 GROUP        1 X    SEC  0     **** SEC X 2
     3 ASC3       30 GROUP        1 X    ASC  0     **** ASC X 3
     4 GLC5        4 GROUP        1 X    GLC  0     **** GLC X 6
     5 ALP1       48 GROUP        1 Y    ALP  0     ROOT ALP Y 8
     6 SEP2        3 GROUP        1 Y    SEP  0     **** SEP Y 9
     7 ASP3       32 GROUP        1 Y    ASP  0     **** ASP Y 10
     8 GLP5        6 GROUP        1 Y    GLP  0     **** GLP Y 13
     9 ALL1       47 GROUP        1 Z    ALL  0     ROOT ALL Z 15
    10 SEL2        2 GROUP        1 Z    SEL  0     **** SEL Z 16
    11 ASL3       31 GROUP        1 Z    ASL  0     **** ASL Z 17
    12 GLL5        5 GROUP        1 Z    GLL  0     **** GLL Z 20
@<TRIPOS>SET

