#    Name: 2bxt_C2D_1_ligand
#    Modification time : Mon Mar 24 21:56:24 2014

@<TRIPOS>MOLECULE
2bxt_C2D_1_ligand
   61    64     1     0     0
SMALL
NO_CHARGES


@<TRIPOS>ATOM
      1 O1         12.1720  -13.1210   13.0270 O.3       1 C2D1246     0.0000 
      2 CL2        16.4230   -8.3340   11.0040 Cl        1 C2D1246     0.0000 
      3 CL3         8.1380  -12.6370   15.9790 Cl        1 C2D1246     0.0000 
      4 C4         17.7400  -10.7330   11.4800 C.ar      1 C2D1246     0.0000 
      5 C5         17.9060  -11.9740   12.1890 C.ar      1 C2D1246     0.0000 
      6 C6         16.6740   -9.8360   11.8280 C.ar      1 C2D1246     0.0000 
      7 C7         16.9910  -12.3030   13.2350 C.ar      1 C2D1246     0.0000 
      8 C8         15.7810  -10.1800   12.8680 C.ar      1 C2D1246     0.0000 
      9 C9         15.9530  -11.4110   13.5560 C.ar      1 C2D1246     0.0000 
     10 S10        16.8950  -13.6270   14.2040 S.3       1 C2D1246     0.0000 
     11 C11        15.6100  -13.1120   15.0260 C.2       1 C2D1246     0.0000 
     12 C12        15.1540  -11.8700   14.5810 C.2       1 C2D1246     0.0000 
     13 C13        13.9720  -11.0570   15.0700 C.3       1 C2D1246     0.0000 
     14 N14        13.2670  -11.6180   16.2400 N.4       1 C2D1246     0.0000 
     15 C15        11.9170  -12.2650   16.1350 C.3       1 C2D1246     0.0000 
     16 C16        10.9320  -11.7610   15.0440 C.3       1 C2D1246     0.0000 
     17 C17         9.0200  -13.4190   14.7130 C.3       1 C2D1246     0.0000 
     18 N18        10.3150  -12.9200   14.3470 N.3       1 C2D1246     0.0000 
     19 C19         8.4900  -14.4800   14.0630 C.3       1 C2D1246     0.0000 
     20 C20        11.0600  -13.5400   13.3280 C.3       1 C2D1246     0.0000 
     21 N21         9.2660  -15.1550   12.9640 N.pl3     1 C2D1246     0.0000 
     22 C22        10.4700  -14.7210   12.6170 C.2       1 C2D1246     0.0000 
     23 N23        11.1940  -15.3270   11.6050 N.pl3     1 C2D1246     0.0000 
     24 C24        10.8610  -16.4970   10.7460 C.3       1 C2D1246     0.0000 
     25 C25        10.1250  -16.0740    9.4490 C.3       1 C2D1246     0.0000 
     26 C26         7.7090  -16.1510   10.2640 C.3       1 C2D1246     0.0000 
     27 C27         8.7970  -15.4260    9.7580 C.3       1 C2D1246     0.0000 
     28 C28         6.5040  -15.4720   10.5520 C.3       1 C2D1246     0.0000 
     29 N29         8.6570  -14.0420    9.5630 N.4       1 C2D1246     0.0000 
     30 C30         6.3750  -14.0910   10.3410 C.3       1 C2D1246     0.0000 
     31 C31         7.4620  -13.3670    9.8370 C.3       1 C2D1246     0.0000 
     32 H          18.3803  -10.4915   10.7303 H         1 C2D1246     0.0000 
     33 H          18.6583  -12.5985   11.9474 H         1 C2D1246     0.0000 
     34 H          15.0226   -9.5555   13.1236 H         1 C2D1246     0.0000 
     35 H          15.2840  -13.6669   15.7114 H         1 C2D1246     0.0000 
     36 H          13.2583  -10.9354   14.2229 H         1 C2D1246     0.0000 
     37 H          14.3297  -10.0278   15.3037 H         1 C2D1246     0.0000 
     38 H          11.3886  -12.1855   17.1240 H         1 C2D1246     0.0000 
     39 H          12.0457  -13.3713   15.9829 H         1 C2D1246     0.0000 
     40 H          11.4901  -11.1437   14.3453 H         1 C2D1246     0.0000 
     41 H          10.1724  -11.1547   15.5299 H         1 C2D1246     0.0000 
     42 H           9.6040  -14.2623   15.7289 H         1 C2D1246     0.0000 
     43 H           7.4617  -14.2266   13.6075 H         1 C2D1246     0.0000 
     44 H           8.1930  -15.3195   14.7952 H         1 C2D1246     0.0000 
     45 H          11.6146  -14.4531   14.3041 H         1 C2D1246     0.0000 
     46 H           8.7899  -15.9547   12.5254 H         1 C2D1246     0.0000 
     47 H          12.1730  -14.9050   11.3715 H         1 C2D1246     0.0000 
     48 H          10.2160  -17.1978   11.2879 H         1 C2D1246     0.0000 
     49 H          11.7731  -17.0320   10.4584 H         1 C2D1246     0.0000 
     50 H           9.9728  -16.9620    8.8346 H         1 C2D1246     0.0000 
     51 H          10.7622  -15.3771    8.9035 H         1 C2D1246     0.0000 
     52 H           8.0433  -16.7240   11.2054 H         1 C2D1246     0.0000 
     53 H           7.4775  -17.0276    9.5538 H         1 C2D1246     0.0000 
     54 H           8.3690  -15.6717    8.4075 H         1 C2D1246     0.0000 
     55 H           6.2053  -15.7096   11.6493 H         1 C2D1246     0.0000 
     56 H           5.6388  -16.0148    9.9983 H         1 C2D1246     0.0000 
     57 H           6.0185  -13.5967   11.3214 H         1 C2D1246     0.0000 
     58 H           5.4556  -13.9017    9.6691 H         1 C2D1246     0.0000 
     59 H           7.1274  -12.7993    8.8916 H         1 C2D1246     0.0000 
     60 H           7.6840  -12.4846   10.5442 H         1 C2D1246     0.0000 
     61 H          12.0972  -12.1254   13.0831 H         1 C2D1246     0.0000 
@<TRIPOS>BOND
     1   20    1 1    
     2   61    1 1    
     3    6    2 1    
     4   17    3 1    
     5    5    4 ar   
     6    6    4 ar   
     7   32    4 1    
     8    7    5 ar   
     9   33    5 1    
    10    8    6 ar   
    11    9    7 ar   
    12   10    7 1    
    13    9    8 ar   
    14   34    8 1    
    15   12    9 1    
    16   11   10 1    
    17   12   11 2    
    18   35   11 1    
    19   13   12 1    
    20   14   13 1    
    21   36   13 1    
    22   37   13 1    
    23   15   14 1    
    24   16   15 1    
    25   38   15 1    
    26   39   15 1    
    27   18   16 1    
    28   40   16 1    
    29   41   16 1    
    30   18   17 1    
    31   19   17 1    
    32   42   17 1    
    33   20   18 1    
    34   21   19 1    
    35   43   19 1    
    36   44   19 1    
    37   22   20 1    
    38   45   20 1    
    39   22   21 2    
    40   46   21 1    
    41   23   22 1    
    42   24   23 1    
    43   47   23 1    
    44   25   24 1    
    45   48   24 1    
    46   49   24 1    
    47   27   25 1    
    48   50   25 1    
    49   51   25 1    
    50   27   26 1    
    51   28   26 1    
    52   52   26 1    
    53   53   26 1    
    54   29   27 1    
    55   54   27 1    
    56   30   28 1    
    57   55   28 1    
    58   56   28 1    
    59   31   29 1    
    60   31   30 1    
    61   57   30 1    
    62   58   30 1    
    63   59   31 1    
    64   60   31 1    
@<TRIPOS>SUBSTRUCTURE
     1 C2D1246     1 GROUP   
@<TRIPOS>SET

