#    Name: 4n6y_2HV_1_INTS_M
#    Modification time : Tue Mar 25 12:45:11 2014

@<TRIPOS>MOLECULE
4n6y_2HV_1_INTS_M
   58     0     3     0     0
SMALL
NO_CHARGES


@<TRIPOS>ATOM
      1 CA         24.0920   36.4365    3.0085 C.3       1 GLC5        0.0000 
      2 CA         23.2250   37.1340    1.2710 C.3       3 GLL5        0.0000 
      3 CA         24.9590   35.7390    4.7460 C.3       2 GLP5        0.0000 
      4 CA         21.8245   38.7135   -0.9120 C.3       1 GLC5        0.0000 
      5 CA         23.5820   38.4520    0.2310 C.3       3 GLL5        0.0000 
      6 CA         20.0670   38.9750   -2.0550 C.3       2 GLP5        0.0000 
      7 CA         21.8315   38.4210    1.1980 C.3       1 GLC5        0.0000 
      8 CA         20.0810   38.3900    2.1650 C.3       2 GLP5        0.0000 
      9 CA         23.3730   40.3105    0.3695 C.3       1 GLC5        0.0000 
     10 CA         23.1640   42.1690    0.5080 C.3       2 GLP5        0.0000 
     11 CA         25.2015   39.5660    0.8625 C.3       1 GLC5        0.0000 
     12 CA         26.8210   40.6800    1.4940 C.3       2 GLP5        0.0000 
     13 CA         25.2190   37.7130   -0.1260 C.3       1 GLC5        0.0000 
     14 CA         26.8560   36.9740   -0.4830 C.3       2 GLP5        0.0000 
     15 CA         22.1200   39.6765   -4.3020 C.3       1 GLC5        0.0000 
     16 CA         24.0120   39.0980   -4.4050 C.3       3 GLL5        0.0000 
     17 CA         20.2280   40.2550   -4.1990 C.3       2 GLP5        0.0000 
     18 CA         25.2620   40.4320   -3.8515 C.3       1 GLC5        0.0000 
     19 CA         26.5120   41.7660   -3.2980 C.3       2 GLP5        0.0000 
     20 CA         23.6520   32.4880    0.6275 C.3       1 GLC5        0.0000 
     21 CA         21.5340   32.5720    0.4020 C.3       3 GLL5        0.0000 
     22 CA         25.7700   32.4040    0.8530 C.3       2 GLP5        0.0000 
     23 CA         19.4270   32.6995    0.5575 C.3       1 GLC5        0.0000 
     24 CA         21.2120   32.1240    1.6880 C.3       3 GLL5        0.0000 
     25 CA         17.6420   33.2750   -0.5730 C.3       2 GLP5        0.0000 
     26 CA         20.5525   33.3500    3.1250 C.3       1 GLC5        0.0000 
     27 CA         19.8930   34.5760    4.5620 C.3       2 GLP5        0.0000 
     28 CA         19.2080   33.9595   -5.1550 C.3       1 GLC5        0.0000 
     29 CA         20.6560   33.5960   -3.9460 C.3       3 GLL5        0.0000 
     30 CA         17.7600   34.3230   -6.3640 C.3       2 GLP5        0.0000 
     31 CA         21.5987   37.4802    1.5373 C.3       1 GLC5        0.0000 
     32 CA         23.0080   36.0070    0.5480 C.3       3 GLL5        0.0000 
     33 CA         24.9863   36.7722    0.2132 C.3       1 GLC5        0.0000 
     34 CA         24.6283   35.2002    1.0637 C.3       1 GLC5        0.0000 
     35 CA         26.1400   33.8300    1.2180 C.3       2 GLP5        0.0000 
     36 CA         19.4765   29.1535   -0.4802 C.3       1 GLC5        0.0000 
     37 CA         20.8120   30.4380   -0.4760 C.3       3 GLL5        0.0000 
     38 CA         18.2740   28.0870   -1.1270 C.3       2 GLP5        0.0000 
     39 CA         19.3745   32.2850   -0.4430 C.3       1 GLC5        0.0000 
     40 CA         22.1758   29.4078    0.1990 C.3       1 GLC5        0.0000 
     41 CA         20.5460   30.0020    0.8090 C.3       3 GLL5        0.0000 
     42 CA         23.5580   28.2720    0.2880 C.3       2 GLP5        0.0000 
     43 CA         22.3842   30.0278    1.7845 C.3       1 GLC5        0.0000 
     44 CA         20.7330   30.8410    1.8780 C.3       3 GLL5        0.0000 
     45 CA         23.7960   28.5730    1.7860 C.3       2 GLP5        0.0000 
     46 CA         19.1664   31.1714    2.0409 C.3       1 GLC5        0.0000 
     47 CA         17.4070   31.0700    2.5660 C.3       2 GLP5        0.0000 
     48 CA         19.4413   32.0825   -3.5880 C.3       1 GLC5        0.0000 
     49 CA         20.9330   33.5160   -2.4660 C.3       3 GLL5        0.0000 
     50 CA         18.0880   30.6090   -3.9700 C.3       2 GLP5        0.0000 
     51 CA         19.1558   34.0950   -2.2415 C.3       1 GLC5        0.0000 
     52 CA         17.5170   34.6340   -1.2770 C.3       2 GLP5        0.0000 
     53 CA         20.4507   31.2157   -4.7383 C.3       1 GLC5        0.0000 
     54 CA         21.8570   33.1440   -4.7370 C.3       3 GLL5        0.0000 
     55 CA         18.8350   29.9850   -4.9480 C.3       2 GLP5        0.0000 
     56 CA         24.0350   32.3372   -2.6095 C.3       1 GLC5        0.0000 
     57 CA         22.2760   31.7490   -4.3200 C.3       3 GLL5        0.0000 
     58 CA         25.6730   32.9650   -1.6430 C.3       2 GLP5        0.0000 
@<TRIPOS>BOND
@<TRIPOS>SUBSTRUCTURE
     1 GLC5        1 GROUP        1 X    GLC  0     ROOT GLC X 6
     2 GLP5        3 GROUP        1 Y    GLP  0     ROOT GLP Y 13
     3 GLL5        2 GROUP        1 Z    GLL  0     ROOT GLL Z 20
@<TRIPOS>SET

