#    Name: 4n6y_2HV_1_ligand
#    Modification time : Tue Mar 25 12:45:11 2014

@<TRIPOS>MOLECULE
4n6y_2HV_1_ligand
   44    46     1     0     0
SMALL
NO_CHARGES


@<TRIPOS>ATOM
      1 O1         22.6580   34.5430    2.3720 O.2       1 2HV401      0.0000 
      2 C5         22.6240   34.7090    1.1500 C.2       1 2HV401      0.0000 
      3 C3         23.0080   36.0070    0.5480 C.2       1 2HV401      0.0000 
      4 N1         23.1310   36.1350   -0.8210 N.2       1 2HV401      0.0000 
      5 C4         23.2250   37.1340    1.2710 C.2       1 2HV401      0.0000 
      6 S          23.5820   38.4520    0.2310 S.3       1 2HV401      0.0000 
      7 C2         23.4310   37.3740   -1.1180 C.2       1 2HV401      0.0000 
      8 N          23.6110   37.7410   -2.4380 N.am      1 2HV401      0.0000 
      9 C1         23.8250   39.0090   -2.9220 C.2       1 2HV401      0.0000 
     10 O          23.8630   40.0020   -2.2040 O.2       1 2HV401      0.0000 
     11 C          24.0120   39.0980   -4.4050 C.3       1 2HV401      0.0000 
     12 N2         22.2910   33.7630    0.2440 N.am      1 2HV401      0.0000 
     13 C6         21.5340   32.5720    0.4020 C.ar      1 2HV401      0.0000 
     14 C11        21.2700   31.7320   -0.7020 C.ar      1 2HV401      0.0000 
     15 C10        20.8120   30.4380   -0.4760 C.ar      1 2HV401      0.0000 
     16 C9         20.5460   30.0020    0.8090 C.ar      1 2HV401      0.0000 
     17 C8         20.7330   30.8410    1.8780 C.ar      1 2HV401      0.0000 
     18 C7         21.2120   32.1240    1.6880 C.ar      1 2HV401      0.0000 
     19 N3         21.3900   32.1850   -2.0500 N.3       1 2HV401      0.0000 
     20 C16        20.9330   33.5160   -2.4660 C.3       1 2HV401      0.0000 
     21 C15        20.6560   33.5960   -3.9460 C.3       1 2HV401      0.0000 
     22 C14        21.8570   33.1440   -4.7370 C.3       1 2HV401      0.0000 
     23 C13        22.2760   31.7490   -4.3200 C.3       1 2HV401      0.0000 
     24 C12        22.5180   31.6700   -2.8320 C.3       1 2HV401      0.0000 
     25 H          23.2264   37.3552    2.1661 H         1 2HV401      0.0000 
     26 H          23.5795   36.9417   -3.1666 H         1 2HV401      0.0000 
     27 H          22.6524   33.9187   -0.7857 H         1 2HV401      0.0000 
     28 H          20.6707   29.8008   -1.2767 H         1 2HV401      0.0000 
     29 H          20.2042   29.0367    0.9599 H         1 2HV401      0.0000 
     30 H          20.5150   30.5152    2.8373 H         1 2HV401      0.0000 
     31 H          21.3348   32.7574    2.4904 H         1 2HV401      0.0000 
     32 H          21.6915   34.2773   -2.2083 H         1 2HV401      0.0000 
     33 H          20.0121   33.7907   -1.9202 H         1 2HV401      0.0000 
     34 H          20.4102   34.6260   -4.2146 H         1 2HV401      0.0000 
     35 H          19.8001   32.9625   -4.1904 H         1 2HV401      0.0000 
     36 H          22.6859   33.8341   -4.5695 H         1 2HV401      0.0000 
     37 H          21.6150   33.1442   -5.8013 H         1 2HV401      0.0000 
     38 H          23.1911   31.4732   -4.8530 H         1 2HV401      0.0000 
     39 H          21.4920   31.0386   -4.5997 H         1 2HV401      0.0000 
     40 H          22.7192   30.6166   -2.5648 H         1 2HV401      0.0000 
     41 H          23.4373   32.2362   -2.5956 H         1 2HV401      0.0000 
     42 H          24.1595   40.0405   -4.7048 H         1 2HV401      0.0000 
     43 H          24.8008   38.5658   -4.7125 H         1 2HV401      0.0000 
     44 H          23.2148   38.7539   -4.9012 H         1 2HV401      0.0000 
@<TRIPOS>BOND
     1    2    1 2    
     2    3    2 1    
     3   12    2 am   
     4    4    3 1    
     5    5    3 2    
     6    7    4 2    
     7    6    5 1    
     8   25    5 1    
     9    7    6 1    
    10    8    7 1    
    11    9    8 am   
    12   26    8 1    
    13   10    9 2    
    14   11    9 1    
    15   42   11 1    
    16   43   11 1    
    17   44   11 1    
    18   13   12 1    
    19   27   12 1    
    20   14   13 ar   
    21   18   13 ar   
    22   15   14 ar   
    23   19   14 1    
    24   16   15 ar   
    25   28   15 1    
    26   17   16 ar   
    27   29   16 1    
    28   18   17 ar   
    29   30   17 1    
    30   31   18 1    
    31   20   19 1    
    32   24   19 1    
    33   21   20 1    
    34   32   20 1    
    35   33   20 1    
    36   22   21 1    
    37   34   21 1    
    38   35   21 1    
    39   23   22 1    
    40   36   22 1    
    41   37   22 1    
    42   24   23 1    
    43   38   23 1    
    44   39   23 1    
    45   40   24 1    
    46   41   24 1    
@<TRIPOS>SUBSTRUCTURE
     1 2HV401      1 GROUP   
@<TRIPOS>SET

