#    Name: 3iok_1P6_1_INTS_M
#    Modification time : Tue Mar 25 17:01:43 2014

@<TRIPOS>MOLECULE
3iok_1P6_1_INTS_M
   61     0     6     0     0
SMALL
NO_CHARGES


@<TRIPOS>ATOM
      1 CA         15.5430   16.4255    8.4305 C.3       2 GLC5        0.0000 
      2 CA         15.7800   15.8270    6.3610 C.3       6 GLL5        0.0000 
      3 CA         15.3060   17.0240   10.5000 C.3       4 GLP5        0.0000 
      4 CA         16.1120   12.7695    7.5730 C.3       2 GLC5        0.0000 
      5 CA         16.2050   12.1310    5.5420 C.3       6 GLL5        0.0000 
      6 CA         16.0190   13.4080    9.6040 C.3       4 GLP5        0.0000 
      7 CA         15.8575    8.6765    6.3345 C.3       2 GLC5        0.0000 
      8 CA         17.0940    9.9920    5.3870 C.3       6 GLL5        0.0000 
      9 CA         14.6210    7.3610    7.2820 C.3       4 GLP5        0.0000 
     10 CA         17.7635    8.7770    3.7810 C.3       2 GLC5        0.0000 
     11 CA         18.4330    7.5620    2.1750 C.3       4 GLP5        0.0000 
     12 CA         13.1030   11.9870    5.4225 C.3       2 GLC5        0.0000 
     13 CA         15.1460   11.7240    4.7220 C.3       6 GLL5        0.0000 
     14 CA         11.0600   12.2500    6.1230 C.3       4 GLP5        0.0000 
     15 CA         13.2240    9.1585    4.9695 C.3       2 GLC5        0.0000 
     16 CA         14.0400    9.9580    3.3430 C.3       6 GLL5        0.0000 
     17 CA         12.4080    8.3590    6.5960 C.3       4 GLP5        0.0000 
     18 CA         12.0245   11.4865    4.4625 C.3       2 GLC5        0.0000 
     19 CA         12.9890   10.7230    2.8020 C.3       6 GLL5        0.0000 
     20 CA         11.0480   10.0045    3.2865 C.3       2 GLC5        0.0000 
     21 CA          9.1070    9.2860    3.7710 C.3       4 GLP5        0.0000 
     22 CA         13.5280   11.2920    1.2360 C.3       2 GLC5        0.0000 
     23 CA         14.0670   11.8610   -0.3300 C.3       4 GLP5        0.0000 
     24 CA          9.4165   12.6855    1.9210 C.3       2 GLC5        0.0000 
     25 CA         10.8240   11.6700    1.4320 C.3       6 GLL5        0.0000 
     26 CA          8.0090   13.7010    2.4100 C.3       4 GLP5        0.0000 
     27 CA          9.0430   10.8215    0.8455 C.3       2 GLC5        0.0000 
     28 CA         11.1810   10.3720    1.2850 C.3       6 GLL5        0.0000 
     29 CA          6.9050   11.2710    0.4060 C.3       4 GLP5        0.0000 
     30 N          12.5795    7.4505    1.0855 N.am      1 SEC2        0.0000 
     31 N          12.8920    8.6470    1.9780 N.am      5 SEL2        0.0000 
     32 N          12.2670    6.2540    0.1930 N.am      3 SEP2        0.0000 
     33 CA         17.0525   15.0255   -1.3720 C.3       2 GLC5        0.0000 
     34 CA         15.4740   15.4220    0.0610 C.3       6 GLL5        0.0000 
     35 CA         18.6310   14.6290   -2.8050 C.3       4 GLP5        0.0000 
     36 CA         14.1700   13.5545    0.8755 C.3       2 GLC5        0.0000 
     37 CA         14.2730   15.2480    2.0810 C.3       6 GLL5        0.0000 
     38 CA         12.8735   14.8665    4.9110 C.3       2 GLC5        0.0000 
     39 CA         14.2800   15.0320    3.4500 C.3       6 GLL5        0.0000 
     40 CA         11.4670   14.7010    6.3720 C.3       4 GLP5        0.0000 
     41 CA         15.8045   14.2945    7.7995 C.3       2 GLC5        0.0000 
     42 CA         15.4000   14.5350    5.6290 C.3       6 GLL5        0.0000 
     43 CA         13.5285   14.9410    6.1835 C.3       2 GLC5        0.0000 
     44 CA         14.6911   10.4279    6.3770 C.3       2 GLC5        0.0000 
     45 CA         13.9880    9.6860    8.0610 C.3       4 GLP5        0.0000 
     46 CA         15.4089   10.9895    2.4212 C.3       2 GLC5        0.0000 
     47 CA         16.2330   11.4660    0.9270 C.3       4 GLP5        0.0000 
     48 CA         10.0547   10.1535    2.5648 C.3       2 GLC5        0.0000 
     49 CA         10.5987   11.1525   -0.5783 C.3       2 GLC5        0.0000 
     50 CA         10.1950   11.2840   -2.5150 C.3       4 GLP5        0.0000 
     51 CA         12.5347   11.4410    0.5142 C.3       2 GLC5        0.0000 
     52 CA         16.4490   13.1517    1.8388 C.3       2 GLC5        0.0000 
     53 CA         16.6610   14.9470    2.0640 C.3       6 GLL5        0.0000 
     54 CA         15.5358   13.5753    0.1527 C.3       2 GLC5        0.0000 
     55 CA         15.5990   11.8330   -0.4220 C.3       4 GLP5        0.0000 
     56 CA         16.8850   16.4230    0.1915 C.3       2 GLC5        0.0000 
     57 CA         18.0000   17.5950   -0.5120 C.3       4 GLP5        0.0000 
     58 CA         14.1054   15.1594   -0.4139 C.3       2 GLC5        0.0000 
     59 CA         13.3380   15.0360   -2.2320 C.3       4 GLP5        0.0000 
     60 CA         14.0739   16.9224    1.0681 C.3       2 GLC5        0.0000 
     61 CA         13.2750   18.5620    0.7320 C.3       4 GLP5        0.0000 
@<TRIPOS>BOND
@<TRIPOS>SUBSTRUCTURE
     1 SEC2       30 GROUP        1 X    SEC  0     ROOT SEC X 2
     2 GLC5        1 GROUP        1 X    GLC  0     **** GLC X 6
     3 SEP2       32 GROUP        1 Y    SEP  0     ROOT SEP Y 9
     4 GLP5        3 GROUP        1 Y    GLP  0     **** GLP Y 13
     5 SEL2       31 GROUP        1 Z    SEL  0     ROOT SEL Z 16
     6 GLL5        2 GROUP        1 Z    GLL  0     **** GLL Z 20
@<TRIPOS>SET

