#    Name: 3iok_1P6_1_ligand
#    Modification time : Tue Mar 25 17:01:43 2014

@<TRIPOS>MOLECULE
3iok_1P6_1_ligand
   41    44     1     0     0
SMALL
NO_CHARGES


@<TRIPOS>ATOM
      1 C1         15.7800   15.8270    6.3610 C.3       1 1P61        0.0000 
      2 C2         15.4000   14.5350    5.6290 C.3       1 1P61        0.0000 
      3 N4         16.2870   13.4310    6.0480 N.pl3     1 1P61        0.0000 
      4 C5         16.2050   12.1310    5.5420 C.ar      1 1P61        0.0000 
      5 N6         17.1510   11.2370    5.8410 N.ar      1 1P61        0.0000 
      6 C7         17.0940    9.9920    5.3870 C.ar      1 1P61        0.0000 
      7 N8         16.1120    9.5860    4.5990 N.ar      1 1P61        0.0000 
      8 C9         15.1130   10.4120    4.2540 C.ar      1 1P61        0.0000 
      9 C10        15.1460   11.7240    4.7220 C.ar      1 1P61        0.0000 
     10 C11        14.0400    9.9580    3.3430 C.2       1 1P61        0.0000 
     11 C12        12.9890   10.7230    2.8020 C.2       1 1P61        0.0000 
     12 N13        12.6100   11.9930    2.9560 N.2       1 1P61        0.0000 
     13 C14        11.5730   12.4730    2.3000 C.2       1 1P61        0.0000 
     14 C15        10.8240   11.6700    1.4320 C.2       1 1P61        0.0000 
     15 C16        11.1810   10.3720    1.2850 C.2       1 1P61        0.0000 
     16 N17        12.2750    9.9030    1.9670 N.pl3     1 1P61        0.0000 
     17 N18        12.8920    8.6470    1.9780 N.2       1 1P61        0.0000 
     18 C19        13.9340    8.6770    2.7790 C.2       1 1P61        0.0000 
     19 N20        14.7790    7.6000    3.0340 N.pl3     1 1P61        0.0000 
     20 C21        15.4650   14.7720    4.1320 C.ar      1 1P61        0.0000 
     21 C22        16.6690   14.7280    3.4370 C.ar      1 1P61        0.0000 
     22 C23        16.6610   14.9470    2.0640 C.ar      1 1P61        0.0000 
     23 C24        15.4710   15.2130    1.3940 C.ar      1 1P61        0.0000 
     24 F25        15.4740   15.4220    0.0610 F         1 1P61        0.0000 
     25 C26        14.2730   15.2480    2.0810 C.ar      1 1P61        0.0000 
     26 C27        14.2800   15.0320    3.4500 C.ar      1 1P61        0.0000 
     27 H          14.3713   14.3023    5.8932 H         1 1P61        0.0000 
     28 H          17.0054   13.6675    6.7642 H         1 1P61        0.0000 
     29 H          17.8550    9.3064    5.6633 H         1 1P61        0.0000 
     30 H          14.4077   12.3831    4.4714 H         1 1P61        0.0000 
     31 H          11.2737   13.4729    2.4060 H         1 1P61        0.0000 
     32 H          10.0300   12.0738    0.9306 H         1 1P61        0.0000 
     33 H          10.6449    9.7403    0.6727 H         1 1P61        0.0000 
     34 H          17.5439   14.5380    3.9271 H         1 1P61        0.0000 
     35 H          17.5479   14.9119    1.5353 H         1 1P61        0.0000 
     36 H          13.3947   15.4300    1.5896 H         1 1P61        0.0000 
     37 H          13.3879   15.0642    3.9777 H         1 1P61        0.0000 
     38 H          16.7233   16.0985    6.1698 H         1 1P61        0.0000 
     39 H          15.1946   16.5920    6.0924 H         1 1P61        0.0000 
     40 H          15.6983   15.7297    7.3529 H         1 1P61        0.0000 
     41 H          15.3738    7.9080    3.7765 H         1 1P61        0.0000 
@<TRIPOS>BOND
     1    2    1 1    
     2   38    1 1    
     3   39    1 1    
     4   40    1 1    
     5    3    2 1    
     6   20    2 1    
     7   27    2 1    
     8    4    3 1    
     9   28    3 1    
    10    5    4 ar   
    11    9    4 ar   
    12    6    5 ar   
    13    7    6 ar   
    14   29    6 1    
    15    8    7 ar   
    16    9    8 ar   
    17   10    8 1    
    18   30    9 1    
    19   11   10 2    
    20   18   10 1    
    21   12   11 1    
    22   16   11 1    
    23   13   12 2    
    24   14   13 1    
    25   31   13 1    
    26   15   14 2    
    27   32   14 1    
    28   16   15 1    
    29   33   15 1    
    30   17   16 1    
    31   18   17 2    
    32   19   18 1    
    33   41   19 1    
    34   21   20 ar   
    35   26   20 ar   
    36   22   21 ar   
    37   34   21 1    
    38   23   22 ar   
    39   35   22 1    
    40   24   23 1    
    41   25   23 ar   
    42   26   25 ar   
    43   36   25 1    
    44   37   26 1    
@<TRIPOS>SUBSTRUCTURE
     1 1P61        1 GROUP   
@<TRIPOS>SET

