#    Name: 2g0h_SP3_2_INTS_M
#    Modification time : Tue Mar 25 13:20:34 2014

@<TRIPOS>MOLECULE
2g0h_SP3_2_INTS_M
   88     0     6     0     0
SMALL
NO_CHARGES


@<TRIPOS>ATOM
      1 CA         14.7620    8.6560   14.1285 C.3       2 GLC5        0.0000 
      2 CA         15.3190   10.5070   15.0150 C.3       6 GLL5        0.0000 
      3 CA         14.2050    6.8050   13.2420 C.3       4 GLP5        0.0000 
      4 CA         19.3450   16.4165    7.0080 C.3       2 GLC5        0.0000 
      5 CA         18.9080   16.5600    8.9180 C.3       6 GLL5        0.0000 
      6 CA         19.7820   16.2730    5.0980 C.3       4 GLP5        0.0000 
      7 CA         18.8790   19.3000   10.5125 C.3       2 GLC5        0.0000 
      8 CA         18.2420   17.5280    9.5550 C.3       6 GLL5        0.0000 
      9 CA         19.5160   21.0720   11.4700 C.3       4 GLP5        0.0000 
     10 CA         20.0535   12.6690    9.8635 C.3       2 GLC5        0.0000 
     11 CA         18.3830   12.9040   11.0980 C.3       6 GLL5        0.0000 
     12 CA         21.7240   12.4340    8.6290 C.3       4 GLP5        0.0000 
     13 N          20.4365    8.4370   13.2570 N.am      1 SEC2        0.0000 
     14 N          19.4910    8.6940   12.3140 N.am      5 SEL2        0.0000 
     15 N          21.3820    8.1800   14.2000 N.am      3 SEP2        0.0000 
     16 CA         16.6640   10.7625   10.0910 C.3       2 GLC5        0.0000 
     17 CA         18.3930    9.3460    9.9380 C.3       6 GLL5        0.0000 
     18 CA         14.9350   12.1790   10.2440 C.3       4 GLP5        0.0000 
     19 CA         18.5450    6.4005   10.4485 C.3       2 GLC5        0.0000 
     20 CA         17.5390    8.2430    9.9130 C.3       6 GLL5        0.0000 
     21 CA         19.5510    4.5580   10.9840 C.3       4 GLP5        0.0000 
     22 CA         20.1540   11.2550    8.6960 C.3       2 GLC5        0.0000 
     23 CA         18.5840   10.0760    8.7630 C.3       6 GLL5        0.0000 
     24 CA         18.9990   10.5970    3.8250 C.3       2 GLC5        0.0000 
     25 CA         17.4760   10.1460    5.2550 C.3       6 GLL5        0.0000 
     26 CA         20.5220   11.0480    2.3950 C.3       4 GLP5        0.0000 
     27 CA         16.6920   10.3390    3.7415 C.3       2 GLC5        0.0000 
     28 CA         15.9080   10.5320    2.2280 C.3       4 GLP5        0.0000 
     29 CA         20.3475    8.7655    6.7540 C.3       2 GLC5        0.0000 
     30 CA         19.4710   10.2340    5.8420 C.3       6 GLL5        0.0000 
     31 CA         21.2240    7.2970    7.6660 C.3       4 GLP5        0.0000 
     32 CA         19.9965   10.6410    4.1185 C.3       2 GLC5        0.0000 
     33 CA         15.5475    3.8985    9.7225 C.3       2 GLC5        0.0000 
     34 CA         16.6350    5.5030    8.9510 C.3       6 GLL5        0.0000 
     35 CA         14.4600    2.2940   10.4940 C.3       4 GLP5        0.0000 
     36 CA         18.0930    5.0305    9.9675 C.3       2 GLC5        0.0000 
     37 CA         18.1345    5.8345    7.4540 C.3       2 GLC5        0.0000 
     38 CA         19.6340    6.1660    5.9570 C.3       4 GLP5        0.0000 
     39 CA         13.5755    7.4830    8.9250 C.3       2 GLC5        0.0000 
     40 CA         14.9000    6.8570    9.4040 C.3       6 GLL5        0.0000 
     41 CA         12.2510    8.1090    8.4460 C.3       4 GLP5        0.0000 
     42 CA         14.1455    6.3975   10.8410 C.3       2 GLC5        0.0000 
     43 CA         13.3910    5.9380   12.2780 C.3       4 GLP5        0.0000 
     44 CA         17.5635    6.3205    6.6980 C.3       2 GLC5        0.0000 
     45 CA         15.4930    6.4750    7.4390 C.3       6 GLL5        0.0000 
     46 CA         13.6928   12.9322   15.2752 C.3       2 GLC5        0.0000 
     47 CA         15.9370   13.2040   14.8370 C.3       6 GLL5        0.0000 
     48 CA         11.7890   12.8940   15.1540 C.3       4 GLP5        0.0000 
     49 CA         16.9273   13.7037   16.5617 C.3       2 GLC5        0.0000 
     50 CA         15.2560   12.7370   15.9560 C.3       6 GLL5        0.0000 
     51 CA         18.2580   14.4370   17.7270 C.3       4 GLP5        0.0000 
     52 CA         13.2000   12.0205   15.8587 C.3       2 GLC5        0.0000 
     53 CA         14.9320   11.3870   16.0230 C.3       6 GLL5        0.0000 
     54 CA         14.7400   10.1065   18.1322 C.3       2 GLC5        0.0000 
     55 CA         14.8690    9.0660   19.7010 C.3       4 GLP5        0.0000 
     56 CA         13.7265   10.8455   13.9683 C.3       2 GLC5        0.0000 
     57 CA         11.7900   10.9460   13.4760 C.3       4 GLP5        0.0000 
     58 CA         15.5500   11.9200   12.0518 C.3       2 GLC5        0.0000 
     59 CA         16.0070   10.9830   13.9060 C.3       6 GLL5        0.0000 
     60 CA         15.9720   16.2972   11.1235 C.3       2 GLC5        0.0000 
     61 CA         18.0520   15.2460   10.5300 C.3       6 GLL5        0.0000 
     62 CA         14.2030   16.5560   11.5400 C.3       4 GLP5        0.0000 
     63 CA         17.0358   13.9698    9.3070 C.3       2 GLC5        0.0000 
     64 CA         15.6270   12.6460    8.6230 C.3       4 GLP5        0.0000 
     65 CA         20.4802   14.9452    8.4445 C.3       2 GLC5        0.0000 
     66 CA         18.8370   15.3410    9.4520 C.3       6 GLL5        0.0000 
     67 CA         22.0880   13.9400    7.7040 C.3       4 GLP5        0.0000 
     68 CA         18.7685   18.6730    8.1052 C.3       2 GLC5        0.0000 
     69 CA         18.9620   20.3020    6.9740 C.3       4 GLP5        0.0000 
     70 CA         20.3556   15.9779   10.5028 C.3       2 GLC5        0.0000 
     71 CA         22.0350   16.0290   11.5510 C.3       4 GLP5        0.0000 
     72 CA         16.5332   12.3442   10.9070 C.3       2 GLC5        0.0000 
     73 CA         19.5950    8.0457    8.7957 C.3       2 GLC5        0.0000 
     74 CA         19.7485    8.5990    7.9163 C.3       2 GLC5        0.0000 
     75 CA         17.9620    9.7260    7.5700 C.3       6 GLL5        0.0000 
     76 CA         16.9530   11.9130    7.5050 C.3       2 GLC5        0.0000 
     77 CA         18.2550   10.5190    6.2750 C.3       6 GLL5        0.0000 
     78 CA         20.5032   10.8989    6.8412 C.3       2 GLC5        0.0000 
     79 CA         22.1680   11.1900    7.4060 C.3       4 GLP5        0.0000 
     80 CA         16.6642   10.9505    8.2454 C.3       2 GLC5        0.0000 
     81 CA         18.3267    7.2027    7.0525 C.3       2 GLC5        0.0000 
     82 CA         17.1300    8.6090    7.5690 C.3       6 GLL5        0.0000 
     83 CA         14.0512    6.9858    7.5795 C.3       2 GLC5        0.0000 
     84 CA         15.9840    6.6380    8.6610 C.3       6 GLL5        0.0000 
     85 CA         12.3640    7.4150    7.1090 C.3       4 GLP5        0.0000 
     86 CA         16.8554   16.5649    8.6789 C.3       2 GLC5        0.0000 
     87 CA         17.4300   16.8310   10.8840 C.3       6 GLL5        0.0000 
     88 CA         15.7410   16.6300    7.1090 C.3       4 GLP5        0.0000 
@<TRIPOS>BOND
@<TRIPOS>SUBSTRUCTURE
     1 SEC2       13 GROUP        1 X    SEC  0     ROOT SEC X 2
     2 GLC5        1 GROUP        1 X    GLC  0     **** GLC X 6
     3 SEP2       15 GROUP        1 Y    SEP  0     ROOT SEP Y 9
     4 GLP5        3 GROUP        1 Y    GLP  0     **** GLP Y 13
     5 SEL2       14 GROUP        1 Z    SEL  0     ROOT SEL Z 16
     6 GLL5        2 GROUP        1 Z    GLL  0     **** GLL Z 20
@<TRIPOS>SET

