#    Name: 2g0h_SP3_2_ligand
#    Modification time : Tue Mar 25 13:20:34 2014

@<TRIPOS>MOLECULE
2g0h_SP3_2_ligand
   47    50     1     0     0
SMALL
NO_CHARGES


@<TRIPOS>ATOM
      1 C30        15.9370   13.2040   14.8370 C.ar      1 SP3201      0.0000 
      2 C31        15.2560   12.7370   15.9560 C.ar      1 SP3201      0.0000 
      3 C32        14.9320   11.3870   16.0230 C.ar      1 SP3201      0.0000 
      4 F35        14.2900   10.9070   17.1040 F         1 SP3201      0.0000 
      5 C33        15.3190   10.5070   15.0150 C.ar      1 SP3201      0.0000 
      6 C34        16.0070   10.9830   13.9060 C.ar      1 SP3201      0.0000 
      7 C29        16.3230   12.3390   13.8130 C.ar      1 SP3201      0.0000 
      8 N8         16.9990   12.8080   12.7580 N.pl3     1 SP3201      0.0000 
      9 N7         16.9580   13.9590   12.3140 N.2       1 SP3201      0.0000 
     10 C6         17.7900   14.0870   11.2760 C.2       1 SP3201      0.0000 
     11 C3         18.0520   15.2460   10.5300 C.2       1 SP3201      0.0000 
     12 C2         18.8370   15.3410    9.4520 C.2       1 SP3201      0.0000 
     13 C1         18.9080   16.5600    8.9180 C.2       1 SP3201      0.0000 
     14 C5         18.2420   17.5280    9.5550 C.2       1 SP3201      0.0000 
     15 S4         17.4300   16.8310   10.8840 S.3       1 SP3201      0.0000 
     16 C10        18.3830   12.9040   11.0980 C.2       1 SP3201      0.0000 
     17 C9         17.8800   12.1150   12.0420 C.2       1 SP3201      0.0000 
     18 N11        18.1620   10.8370   12.2770 N.pl3     1 SP3201      0.0000 
     19 S12        19.1770    9.8820   11.4440 S.o2      1 SP3201      0.0000 
     20 O13        20.4300   10.6530   11.1690 O.2       1 SP3201      0.0000 
     21 O14        19.4910    8.6940   12.3140 O.2       1 SP3201      0.0000 
     22 C15        18.3930    9.3460    9.9380 C.ar      1 SP3201      0.0000 
     23 C16        17.5390    8.2430    9.9130 C.ar      1 SP3201      0.0000 
     24 C20        18.5840   10.0760    8.7630 C.ar      1 SP3201      0.0000 
     25 C19        17.9620    9.7260    7.5700 C.ar      1 SP3201      0.0000 
     26 C25        18.2550   10.5190    6.2750 C.3       1 SP3201      0.0000 
     27 F28        17.4760   10.1460    5.2550 F         1 SP3201      0.0000 
     28 F26        18.3030   11.8410    6.4990 F         1 SP3201      0.0000 
     29 F27        19.4710   10.2340    5.8420 F         1 SP3201      0.0000 
     30 C18        17.1300    8.6090    7.5690 C.ar      1 SP3201      0.0000 
     31 C17        16.9090    7.8700    8.7270 C.ar      1 SP3201      0.0000 
     32 C21        15.9840    6.6380    8.6610 C.3       1 SP3201      0.0000 
     33 F24        16.6350    5.5030    8.9510 F         1 SP3201      0.0000 
     34 F22        14.9000    6.8570    9.4040 F         1 SP3201      0.0000 
     35 F23        15.4930    6.4750    7.4390 F         1 SP3201      0.0000 
     36 H          16.1626   14.2122   14.7608 H         1 SP3201      0.0000 
     37 H          15.0000   13.3715   16.7108 H         1 SP3201      0.0000 
     38 H          15.0951    9.5072   15.0932 H         1 SP3201      0.0000 
     39 H          16.2838   10.3403   13.1544 H         1 SP3201      0.0000 
     40 H          19.3378   14.5473    9.0724 H         1 SP3201      0.0000 
     41 H          19.4431   16.7467    8.0662 H         1 SP3201      0.0000 
     42 H          18.1141   18.4282    9.4671 H         1 SP3201      0.0000 
     43 H          19.0284   12.6776   10.4348 H         1 SP3201      0.0000 
     44 H          17.7305   10.2818   13.0740 H         1 SP3201      0.0000 
     45 H          17.3741    7.7036   10.7732 H         1 SP3201      0.0000 
     46 H          19.2114   10.9067    8.7837 H         1 SP3201      0.0000 
     47 H          16.6659    8.3227    6.6866 H         1 SP3201      0.0000 
@<TRIPOS>BOND
     1    2    1 ar   
     2    7    1 ar   
     3   36    1 1    
     4    3    2 ar   
     5   37    2 1    
     6    4    3 1    
     7    5    3 ar   
     8    6    5 ar   
     9   38    5 1    
    10    7    6 ar   
    11   39    6 1    
    12    8    7 1    
    13    9    8 1    
    14   17    8 1    
    15   10    9 2    
    16   11   10 1    
    17   16   10 1    
    18   12   11 2    
    19   15   11 1    
    20   13   12 1    
    21   40   12 1    
    22   14   13 2    
    23   41   13 1    
    24   15   14 1    
    25   42   14 1    
    26   17   16 2    
    27   43   16 1    
    28   18   17 1    
    29   19   18 1    
    30   44   18 1    
    31   20   19 2    
    32   21   19 2    
    33   22   19 1    
    34   23   22 ar   
    35   24   22 ar   
    36   31   23 ar   
    37   45   23 1    
    38   25   24 ar   
    39   46   24 1    
    40   26   25 1    
    41   30   25 ar   
    42   27   26 1    
    43   28   26 1    
    44   29   26 1    
    45   31   30 ar   
    46   47   30 1    
    47   32   31 1    
    48   33   32 1    
    49   34   32 1    
    50   35   32 1    
@<TRIPOS>SUBSTRUCTURE
     1 SP3201      1 GROUP   
@<TRIPOS>SET

