#    Name: 2qi1_MZ4_1_INTS_M
#    Modification time : Mon Mar 24 22:10:54 2014

@<TRIPOS>MOLECULE
2qi1_MZ4_1_INTS_M
   92     0     9     0     0
SMALL
NO_CHARGES


@<TRIPOS>ATOM
      1 CA         15.6795   33.4265   14.0200 C.3       3 GLC5        0.0000 
      2 CA         16.8800   33.6080   15.8550 C.3       9 GLL5        0.0000 
      3 CA         14.4790   33.2450   12.1850 C.3       6 GLP5        0.0000 
      4 CA         15.1080   31.2880   15.4095 C.3       3 GLC5        0.0000 
      5 CA         15.8300   33.0160   16.5670 C.3       9 GLL5        0.0000 
      6 CA         14.3860   29.5600   14.2520 C.3       6 GLP5        0.0000 
      7 CA         15.1560   37.0375   15.7645 C.3       3 GLC5        0.0000 
      8 CA         16.2880   35.7550   16.8700 C.3       9 GLL5        0.0000 
      9 CA         14.0240   38.3200   14.6590 C.3       6 GLP5        0.0000 
     10 CA         14.5885   38.3490   16.9150 C.3       3 GLC5        0.0000 
     11 CA         16.0760   37.8990   18.0720 C.3       9 GLL5        0.0000 
     12 CA         13.1010   38.7990   15.7580 C.3       6 GLP5        0.0000 
     13 CA         21.1035   34.2930   13.3325 C.3       3 GLC5        0.0000 
     14 CA         21.9400   32.8560   14.3260 C.3       9 GLL5        0.0000 
     15 CA         20.2670   35.7300   12.3390 C.3       6 GLP5        0.0000 
     16 CA         23.1395   32.7470   12.6430 C.3       3 GLC5        0.0000 
     17 CA         24.3390   32.6380   10.9600 C.3       6 GLP5        0.0000 
     18 CA         24.6700   31.1400   14.9975 C.3       3 GLC5        0.0000 
     19 CA         23.5230   32.7310   14.8390 C.3       9 GLL5        0.0000 
     20 CA         25.8170   29.5490   15.1560 C.3       6 GLP5        0.0000 
     21 CA         24.1375   31.9965   13.1205 C.3       3 GLC5        0.0000 
     22 CA         24.7520   31.2620   11.4020 C.3       6 GLP5        0.0000 
     23 CA         17.6250   30.9205   17.8225 C.3       3 GLC5        0.0000 
     24 CA         19.0490   30.9450   16.3700 C.3       9 GLL5        0.0000 
     25 CA         16.2010   30.8960   19.2750 C.3       6 GLP5        0.0000 
     26 N          19.3665   28.2405   17.6175 N.am      2 SEC2        0.0000 
     27 N          20.0870   28.7830   16.7170 N.am      8 SEL2        0.0000 
     28 N          18.6460   27.6980   18.5180 N.am      5 SEP2        0.0000 
     29 O          21.4160   28.7340   17.0830 O.2       1 ALC1        0.0000 
     30 O          20.0870   28.7830   16.7170 O.2       7 ALL1        0.0000 
     31 O          22.7450   28.6850   17.4490 O.2       4 ALP1        0.0000 
     32 CA         17.8080   25.7520   13.5585 C.3       3 GLC5        0.0000 
     33 CA         18.8130   27.0880   12.1450 C.3       9 GLL5        0.0000 
     34 CA         16.8030   24.4160   14.9720 C.3       6 GLP5        0.0000 
     35 CA         17.1365   30.6240    9.9245 C.3       3 GLC5        0.0000 
     36 CA         17.3310   28.8480   10.6140 C.3       9 GLL5        0.0000 
     37 CA         16.9420   32.4000    9.2350 C.3       6 GLP5        0.0000 
     38 CA         17.0350   31.0390   11.2955 C.3       3 GLC5        0.0000 
     39 CA         17.5650   29.1240   11.9580 C.3       9 GLL5        0.0000 
     40 CA         16.5050   32.9540   10.6330 C.3       6 GLP5        0.0000 
     41 O          20.6785   27.2070   14.3060 O.2       1 ALC1        0.0000 
     42 O          20.9330   28.8070   13.8230 O.2       7 ALL1        0.0000 
     43 O          20.4240   25.6070   14.7890 O.2       4 ALP1        0.0000 
     44 CA         22.8945   26.7760   13.6490 C.3       3 GLC5        0.0000 
     45 CA         22.6150   28.3490   12.0700 C.3       9 GLL5        0.0000 
     46 CA         23.1740   25.2030   15.2280 C.3       6 GLP5        0.0000 
     47 CA         21.4100   29.3490    9.6055 C.3       3 GLC5        0.0000 
     48 CA         22.6330   28.0830   10.7100 C.3       9 GLL5        0.0000 
     49 CA         20.1870   30.6150    8.5010 C.3       6 GLP5        0.0000 
     50 O          22.6205   27.6850    8.2870 O.2       1 ALC1        0.0000 
     51 O          23.6870   27.0820    8.8140 O.2       7 ALL1        0.0000 
     52 O          21.5540   28.2880    7.7600 O.2       4 ALP1        0.0000 
     53 CA         15.9443   32.2212   18.0430 C.3       3 GLC5        0.0000 
     54 CA         15.0200   33.7810   17.4110 C.3       9 GLL5        0.0000 
     55 CA         13.6893   34.8225   18.8220 C.3       3 GLC5        0.0000 
     56 CA         12.2470   35.1810   20.1540 C.3       6 GLP5        0.0000 
     57 CA         14.0428   35.2670   15.8595 C.3       3 GLC5        0.0000 
     58 CA         15.2430   35.1470   17.5690 C.3       9 GLL5        0.0000 
     59 CA         12.9540   36.0700   14.2290 C.3       6 GLP5        0.0000 
     60 CA         13.6085   33.6304   16.6220 C.3       3 GLC5        0.0000 
     61 CA         11.8830   32.9880   15.9650 C.3       6 GLP5        0.0000 
     62 CA         24.1953   33.8468   17.5705 C.3       3 GLC5        0.0000 
     63 CA         23.7150   32.8560   16.1740 C.3       9 GLL5        0.0000 
     64 CA         25.3000   34.7560   18.6340 C.3       6 GLP5        0.0000 
     65 CA         24.3728   31.8433   17.2700 C.3       3 GLC5        0.0000 
     66 CA         25.6550   30.7490   18.0330 C.3       6 GLP5        0.0000 
     67 CA         16.6118   27.1753   11.9645 C.3       3 GLC5        0.0000 
     68 CA         18.3100   28.2510   12.7430 C.3       9 GLL5        0.0000 
     69 CA         14.6620   26.6810   11.4850 C.3       6 GLP5        0.0000 
     70 CA         16.4345   26.9642   10.9485 C.3       3 GLC5        0.0000 
     71 CA         18.5810   26.8050   10.7970 C.3       9 GLL5        0.0000 
     72 CA         18.8845   29.4420    9.4108 C.3       3 GLC5        0.0000 
     73 CA         17.8330   27.6900   10.0270 C.3       9 GLL5        0.0000 
     74 CA         16.2655   28.5515    8.9428 C.3       3 GLC5        0.0000 
     75 CA         14.9490   28.8340    7.5650 C.3       6 GLP5        0.0000 
     76 CA         16.0550   27.8335   11.3855 C.3       3 GLC5        0.0000 
     77 CA         16.1953   29.1627   13.4874 C.3       3 GLC5        0.0000 
     78 CA         23.9335   29.6810   11.9430 C.3       3 GLC5        0.0000 
     79 CA         24.1950   26.8062   14.2013 C.3       3 GLC5        0.0000 
     80 CA         23.6150   27.8510   12.8980 C.3       9 GLL5        0.0000 
     81 CA         24.2660   26.1430   15.7780 C.3       6 GLP5        0.0000 
     82 CA         24.9705   28.5093   13.8903 C.3       3 GLC5        0.0000 
     83 CA         26.5042   27.8475   11.9523 C.3       3 GLC5        0.0000 
     84 CA         24.6330   27.0880   12.3510 C.3       9 GLL5        0.0000 
     85 CA         28.3690   28.7370   12.2360 C.3       6 GLP5        0.0000 
     86 CA         24.6957   29.1100   11.5352 C.3       3 GLC5        0.0000 
     87 CA         23.9475   29.4850   10.9183 C.3       3 GLC5        0.0000 
     88 CA         25.6358   28.1093    9.5392 C.3       3 GLC5        0.0000 
     89 CA         23.6530   27.3330   10.1590 C.3       9 GLL5        0.0000 
     90 CA         27.1220   29.1380    8.5060 C.3       6 GLP5        0.0000 
     91 CA         23.2623   34.6106   14.9928 C.3       3 GLC5        0.0000 
     92 CA         23.6740   36.3320   14.2400 C.3       6 GLP5        0.0000 
@<TRIPOS>BOND
@<TRIPOS>SUBSTRUCTURE
     1 ALC1       29 GROUP        1 X    ALC  0     ROOT ALC X 1
     2 SEC2       26 GROUP        1 X    SEC  0     **** SEC X 2
     3 GLC5        1 GROUP        1 X    GLC  0     **** GLC X 6
     4 ALP1       31 GROUP        1 Y    ALP  0     ROOT ALP Y 8
     5 SEP2       28 GROUP        1 Y    SEP  0     **** SEP Y 9
     6 GLP5        3 GROUP        1 Y    GLP  0     **** GLP Y 13
     7 ALL1       30 GROUP        1 Z    ALL  0     ROOT ALL Z 15
     8 SEL2       27 GROUP        1 Z    SEL  0     **** SEL Z 16
     9 GLL5        2 GROUP        1 Z    GLL  0     **** GLL Z 20
@<TRIPOS>SET

