#    Name: 2qi1_MZ4_1_ligand
#    Modification time : Mon Mar 24 22:10:54 2014

@<TRIPOS>MOLECULE
2qi1_MZ4_1_ligand
   70    73     1     0     0
SMALL
NO_CHARGES


@<TRIPOS>ATOM
      1 O10        17.1220   31.6020   14.3590 O.2       1 MZ4200      0.0000 
      2 S8         17.8400   32.7330   14.8730 S.o2      1 MZ4200      0.0000 
      3 O9         18.2750   33.5550   13.7780 O.2       1 MZ4200      0.0000 
      4 C5         16.8800   33.6080   15.8550 C.ar      1 MZ4200      0.0000 
      5 C4         15.8300   33.0160   16.5670 C.ar      1 MZ4200      0.0000 
      6 C3         15.0200   33.7810   17.4110 C.ar      1 MZ4200      0.0000 
      7 C2         15.2430   35.1470   17.5690 C.ar      1 MZ4200      0.0000 
      8 C7         16.2880   35.7550   16.8700 C.ar      1 MZ4200      0.0000 
      9 O19        16.5500   37.1000   16.9910 O.3       1 MZ4200      0.0000 
     10 C20        16.0760   37.8990   18.0720 C.3       1 MZ4200      0.0000 
     11 C6         17.0910   34.9810   16.0220 C.ar      1 MZ4200      0.0000 
     12 N11        19.1920   32.2040   15.6080 N.pl3     1 MZ4200      0.0000 
     13 C12        19.9830   33.2230   16.3500 C.3       1 MZ4200      0.0000 
     14 C15        21.4570   33.0460   15.9320 C.2       1 MZ4200      0.0000 
     15 S1         21.9400   32.8560   14.3260 S.3       1 MZ4200      0.0000 
     16 C13        23.5230   32.7310   14.8390 C.2       1 MZ4200      0.0000 
     17 C14        23.7150   32.8560   16.1740 C.2       1 MZ4200      0.0000 
     18 C18        22.4660   33.0190   16.8400 C.2       1 MZ4200      0.0000 
     19 C16        19.0490   30.9450   16.3700 C.3       1 MZ4200      0.0000 
     20 C17        20.0810   29.9190   15.8420 C.3       1 MZ4200      0.0000 
     21 O18        20.0870   28.7830   16.7170 O.3       1 MZ4200      0.0000 
     22 C19        19.7790   29.5210   14.3860 C.3       1 MZ4200      0.0000 
     23 C32        18.5780   28.5630   14.2320 C.3       1 MZ4200      0.0000 
     24 C38        18.3100   28.2510   12.7430 C.ar      1 MZ4200      0.0000 
     25 C33        18.8130   27.0880   12.1450 C.ar      1 MZ4200      0.0000 
     26 C34        18.5810   26.8050   10.7970 C.ar      1 MZ4200      0.0000 
     27 C35        17.8330   27.6900   10.0270 C.ar      1 MZ4200      0.0000 
     28 C36        17.3310   28.8480   10.6140 C.ar      1 MZ4200      0.0000 
     29 C37        17.5650   29.1240   11.9580 C.ar      1 MZ4200      0.0000 
     30 N20        20.9330   28.8070   13.8230 N.am      1 MZ4200      0.0000 
     31 C21        21.4610   29.1590   12.6240 C.2       1 MZ4200      0.0000 
     32 O22        21.0620   30.0780   11.9200 O.2       1 MZ4200      0.0000 
     33 C22        22.6150   28.3490   12.0700 C.ar      1 MZ4200      0.0000 
     34 C23        23.6150   27.8510   12.8980 C.ar      1 MZ4200      0.0000 
     35 C24        24.6330   27.0880   12.3510 C.ar      1 MZ4200      0.0000 
     36 C27        22.6330   28.0830   10.7100 C.ar      1 MZ4200      0.0000 
     37 C26        23.6530   27.3330   10.1590 C.ar      1 MZ4200      0.0000 
     38 O29        23.6870   27.0820    8.8140 O.3       1 MZ4200      0.0000 
     39 C25        24.6460   26.8280   10.9860 C.ar      1 MZ4200      0.0000 
     40 O28        25.6560   26.0970   10.4320 O.3       1 MZ4200      0.0000 
     41 H          15.6533   32.0058   16.4672 H         1 MZ4200      0.0000 
     42 H          14.2473   33.3261   17.9228 H         1 MZ4200      0.0000 
     43 H          14.6486   35.7001   18.1900 H         1 MZ4200      0.0000 
     44 H          17.8644   35.4401   15.5032 H         1 MZ4200      0.0000 
     45 H          19.9062   33.0673   17.4123 H         1 MZ4200      0.0000 
     46 H          19.6683   34.2179   16.0859 H         1 MZ4200      0.0000 
     47 H          24.1473   32.5802   14.1195 H         1 MZ4200      0.0000 
     48 H          24.5564   32.8419   16.6422 H         1 MZ4200      0.0000 
     49 H          22.3886   33.0952   17.7938 H         1 MZ4200      0.0000 
     50 H          18.0579   30.5242   16.2415 H         1 MZ4200      0.0000 
     51 H          19.2417   31.1059   17.4249 H         1 MZ4200      0.0000 
     52 H          21.0536   30.4158   15.8575 H         1 MZ4200      0.0000 
     53 H          19.5856   30.4023   13.8049 H         1 MZ4200      0.0000 
     54 H          17.6958   29.0262   14.6623 H         1 MZ4200      0.0000 
     55 H          18.7919   27.6370   14.7561 H         1 MZ4200      0.0000 
     56 H          19.3678   26.4260   12.7155 H         1 MZ4200      0.0000 
     57 H          18.9607   25.9497   10.3798 H         1 MZ4200      0.0000 
     58 H          17.6536   27.4920    9.0393 H         1 MZ4200      0.0000 
     59 H          16.7783   29.5104   10.0454 H         1 MZ4200      0.0000 
     60 H          17.1807   29.9870   12.3762 H         1 MZ4200      0.0000 
     61 H          21.3132   28.0320   14.3863 H         1 MZ4200      0.0000 
     62 H          23.5965   28.0483   13.9037 H         1 MZ4200      0.0000 
     63 H          25.3789   26.7135   12.9520 H         1 MZ4200      0.0000 
     64 H          21.8780   28.4489   10.1070 H         1 MZ4200      0.0000 
     65 H          16.4102   37.5666   18.9539 H         1 MZ4200      0.0000 
     66 H          16.3701   38.8510   17.9870 H         1 MZ4200      0.0000 
     67 H          15.0772   37.9040   18.1200 H         1 MZ4200      0.0000 
     68 H          21.0288   28.7151   17.0463 H         1 MZ4200      0.0000 
     69 H          22.7297   27.0909    8.5249 H         1 MZ4200      0.0000 
     70 H          25.2248   25.5774    9.6944 H         1 MZ4200      0.0000 
@<TRIPOS>BOND
     1    2    1 2    
     2    3    2 2    
     3    4    2 1    
     4   12    2 1    
     5    5    4 ar   
     6   11    4 ar   
     7    6    5 ar   
     8   41    5 1    
     9    7    6 ar   
    10   42    6 1    
    11    8    7 ar   
    12   43    7 1    
    13    9    8 1    
    14   11    8 ar   
    15   10    9 1    
    16   65   10 1    
    17   66   10 1    
    18   67   10 1    
    19   44   11 1    
    20   13   12 1    
    21   19   12 1    
    22   14   13 1    
    23   45   13 1    
    24   46   13 1    
    25   15   14 1    
    26   18   14 2    
    27   16   15 1    
    28   17   16 2    
    29   47   16 1    
    30   18   17 1    
    31   48   17 1    
    32   49   18 1    
    33   20   19 1    
    34   50   19 1    
    35   51   19 1    
    36   21   20 1    
    37   22   20 1    
    38   52   20 1    
    39   68   21 1    
    40   23   22 1    
    41   30   22 1    
    42   53   22 1    
    43   24   23 1    
    44   54   23 1    
    45   55   23 1    
    46   25   24 ar   
    47   29   24 ar   
    48   26   25 ar   
    49   56   25 1    
    50   27   26 ar   
    51   57   26 1    
    52   28   27 ar   
    53   58   27 1    
    54   29   28 ar   
    55   59   28 1    
    56   60   29 1    
    57   31   30 am   
    58   61   30 1    
    59   32   31 2    
    60   33   31 1    
    61   34   33 ar   
    62   36   33 ar   
    63   35   34 ar   
    64   62   34 1    
    65   39   35 ar   
    66   63   35 1    
    67   37   36 ar   
    68   64   36 1    
    69   38   37 1    
    70   39   37 ar   
    71   69   38 1    
    72   40   39 1    
    73   70   40 1    
@<TRIPOS>SUBSTRUCTURE
     1 MZ4200      1 GROUP   
@<TRIPOS>SET

