#    Name: 3mg3_ECH_2_INTS_M
#    Modification time : Mon Mar 24 23:12:18 2014

@<TRIPOS>MOLECULE
3mg3_ECH_2_INTS_M
  160     0     6     0     0
SMALL
NO_CHARGES


@<TRIPOS>ATOM
      1 CA        -24.1705   44.7970    6.2130 C.3       2 GLC5        0.0000 
      2 CA        -22.2640   44.8000    6.5670 C.3       6 GLL5        0.0000 
      3 CA        -26.0770   44.7940    5.8590 C.3       4 GLP5        0.0000 
      4 CA        -19.2055   44.3435    5.9950 C.3       2 GLC5        0.0000 
      5 CA        -21.0670   44.2360    5.8280 C.3       6 GLL5        0.0000 
      6 CA        -17.3440   44.4510    6.1620 C.3       4 GLP5        0.0000 
      7 CA        -20.6805   40.2280   11.9025 C.3       2 GLC5        0.0000 
      8 CA        -22.1630   41.4980   12.9360 C.3       6 GLL5        0.0000 
      9 CA        -19.1980   38.9580   10.8690 C.3       4 GLP5        0.0000 
     10 CA        -23.1065   42.8480   15.2305 C.3       2 GLC5        0.0000 
     11 CA        -22.0370   41.2810   14.4590 C.3       6 GLL5        0.0000 
     12 CA        -24.1760   44.4150   16.0020 C.3       4 GLP5        0.0000 
     13 CA        -23.4570   38.7855   13.5700 C.3       2 GLC5        0.0000 
     14 CA        -22.5290   40.0860   14.8920 C.3       6 GLL5        0.0000 
     15 CA        -24.3850   37.4850   12.2480 C.3       4 GLP5        0.0000 
     16 CA        -24.5560   37.3670   16.9230 C.3       2 GLC5        0.0000 
     17 CA        -22.5770   38.3370   16.6220 C.3       6 GLL5        0.0000 
     18 CA        -26.5350   36.3970   17.2240 C.3       4 GLP5        0.0000 
     19 CA        -20.1515   38.1100   17.5380 C.3       2 GLC5        0.0000 
     20 CA        -22.1270   37.7010   17.9300 C.3       6 GLL5        0.0000 
     21 CA        -18.1760   38.5190   17.1460 C.3       4 GLP5        0.0000 
     22 CA        -20.8800   38.3785   19.4585 C.3       2 GLC5        0.0000 
     23 CA        -19.6330   39.0560   20.9870 C.3       4 GLP5        0.0000 
     24 CA        -21.7835   35.3905   16.5990 C.3       2 GLC5        0.0000 
     25 CA        -22.5240   36.4280   18.0930 C.3       6 GLL5        0.0000 
     26 CA        -21.0430   34.3530   15.1050 C.3       4 GLP5        0.0000 
     27 CA        -20.8485   37.3660   20.1580 C.3       2 GLC5        0.0000 
     28 CA        -22.0640   35.6760   19.3290 C.3       6 GLL5        0.0000 
     29 CA        -18.9865   27.6100   27.8950 C.3       2 GLC5        0.0000 
     30 CA        -20.2090   27.3520   26.0500 C.3       6 GLL5        0.0000 
     31 CA        -17.7640   27.8680   29.7400 C.3       4 GLP5        0.0000 
     32 N         -18.8345   24.8860   28.0365 N.am      1 SEC2        0.0000 
     33 N         -19.7670   25.7420   27.7050 N.am      5 SEL2        0.0000 
     34 N         -17.9020   24.0300   28.3680 N.am      3 SEP2        0.0000 
     35 N         -20.9780   25.0805   28.0965 N.am      1 SEC2        0.0000 
     36 N         -22.1890   24.4190   28.4880 N.am      3 SEP2        0.0000 
     37 CA        -17.8600   24.9785   27.9935 C.3       2 GLC5        0.0000 
     38 CA        -17.8820   26.3110   26.3200 C.3       6 GLL5        0.0000 
     39 CA        -17.8380   23.6460   29.6670 C.3       4 GLP5        0.0000 
     40 CA        -16.4615   24.8790   26.1700 C.3       2 GLC5        0.0000 
     41 CA        -15.0410   23.4470   26.0200 C.3       4 GLP5        0.0000 
     42 CA        -18.3580   24.6010   25.5620 C.3       2 GLC5        0.0000 
     43 CA        -18.8340   22.8910   24.8040 C.3       4 GLP5        0.0000 
     44 CA        -24.0255   46.7475    7.7155 C.3       2 GLC5        0.0000 
     45 CA        -23.2580   45.2520    8.7660 C.3       6 GLL5        0.0000 
     46 CA        -24.7930   48.2430    6.6650 C.3       4 GLP5        0.0000 
     47 CA        -24.5295   45.4960    9.8035 C.3       2 GLC5        0.0000 
     48 CA        -25.8010   45.7400   10.8410 C.3       4 GLP5        0.0000 
     49 CA        -21.0385   47.7135    9.1100 C.3       2 GLC5        0.0000 
     50 CA        -21.0180   46.1920    8.2110 C.3       6 GLL5        0.0000 
     51 CA        -21.0590   49.2350   10.0090 C.3       4 GLP5        0.0000 
     52 CA        -20.7455   47.5710    6.8295 C.3       2 GLC5        0.0000 
     53 CA        -20.4730   48.9500    5.4480 C.3       4 GLP5        0.0000 
     54 CA        -21.8685   41.3635    8.1900 C.3       2 GLC5        0.0000 
     55 CA        -20.0100   41.5360    8.5210 C.3       6 GLL5        0.0000 
     56 CA        -23.7270   41.1910    7.8590 C.3       4 GLP5        0.0000 
     57 CA        -18.5285   42.2365    9.0725 C.3       2 GLC5        0.0000 
     58 CA        -17.0470   42.9370    9.6240 C.3       4 GLP5        0.0000 
     59 CA        -19.6040   40.2470    9.6950 C.3       2 GLC5        0.0000 
     60 CA        -19.2240   40.1135    7.0430 C.3       2 GLC5        0.0000 
     61 CA        -18.4380   38.6910    5.5650 C.3       4 GLP5        0.0000 
     62 CA        -22.6610   44.1100   14.5465 C.3       2 GLC5        0.0000 
     63 CA        -21.1460   43.8050   13.0910 C.3       6 GLL5        0.0000 
     64 CA        -20.0965   45.2925   13.5170 C.3       2 GLC5        0.0000 
     65 CA        -19.0470   46.7800   13.9430 C.3       4 GLP5        0.0000 
     66 CA        -22.2325   42.4240   17.9490 C.3       2 GLC5        0.0000 
     67 CA        -21.7850   40.6350   17.3210 C.3       6 GLL5        0.0000 
     68 CA        -22.6800   44.2130   18.5770 C.3       4 GLP5        0.0000 
     69 CA        -20.3495   39.8735   16.0550 C.3       2 GLC5        0.0000 
     70 CA        -18.9140   39.1120   14.7890 C.3       4 GLP5        0.0000 
     71 CA        -20.7510   40.9260   18.8580 C.3       2 GLC5        0.0000 
     72 CA        -19.7170   41.2170   20.3950 C.3       4 GLP5        0.0000 
     73 CA        -24.0830   33.0175   16.9905 C.3       2 GLC5        0.0000 
     74 CA        -23.3510   33.5670   18.6630 C.3       6 GLL5        0.0000 
     75 CA        -24.8150   32.4680   15.3180 C.3       4 GLP5        0.0000 
     76 CA        -21.7170   33.2415   17.7715 C.3       2 GLC5        0.0000 
     77 CA        -20.0830   32.9160   16.8800 C.3       4 GLP5        0.0000 
     78 CA        -24.5670   32.8430   20.0355 C.3       2 GLC5        0.0000 
     79 CA        -25.7830   32.1190   21.4080 C.3       4 GLP5        0.0000 
     80 CA        -24.3200   30.9715   21.8310 C.3       2 GLC5        0.0000 
     81 CA        -22.8570   29.8240   22.2540 C.3       6 GLL5        0.0000 
     82 CA        -24.3030   28.4270   22.6800 C.3       2 GLC5        0.0000 
     83 CA        -25.7490   27.0300   23.1060 C.3       4 GLP5        0.0000 
     84 CA        -21.8080   28.1710   28.5600 C.3       2 GLC5        0.0000 
     85 CA        -21.5530   27.6530   26.7010 C.3       6 GLL5        0.0000 
     86 CA        -22.0630   28.6890   30.4190 C.3       4 GLP5        0.0000 
     87 CA        -23.2270   28.2315   26.9885 C.3       2 GLC5        0.0000 
     88 CA        -24.9010   28.8100   27.2760 C.3       4 GLP5        0.0000 
     89 CA        -22.8605   26.7615   27.8560 C.3       2 GLC5        0.0000 
     90 CA        -24.1680   25.8700   29.0110 C.3       4 GLP5        0.0000 
     91 CA        -16.9000   25.1405   23.4445 C.3       2 GLC5        0.0000 
     92 CA        -18.5050   26.6800   23.3880 C.3       6 GLL5        0.0000 
     93 CA        -15.2950   23.6010   23.5010 C.3       4 GLP5        0.0000 
     94 CA        -17.9440   25.9960   21.5405 C.3       2 GLC5        0.0000 
     95 CA        -17.3830   25.3120   19.6930 C.3       4 GLP5        0.0000 
     96 CA        -19.6150   26.1830   21.7955 C.3       2 GLC5        0.0000 
     97 CA        -20.7250   25.6860   20.2030 C.3       4 GLP5        0.0000 
     98 CA        -19.8265   25.1590   23.5670 C.3       2 GLC5        0.0000 
     99 CA        -21.1480   23.6380   23.7460 C.3       4 GLP5        0.0000 
    100 CA        -16.2625   28.5035   22.5915 C.3       2 GLC5        0.0000 
    101 CA        -17.9020   29.1230   23.6310 C.3       6 GLL5        0.0000 
    102 CA        -14.6230   27.8840   21.5520 C.3       4 GLP5        0.0000 
    103 CA        -20.0033   42.8120    4.4940 C.3       2 GLC5        0.0000 
    104 CA        -20.6060   42.8820    6.3460 C.3       6 GLL5        0.0000 
    105 CA        -19.1700   42.0650    2.9010 C.3       4 GLP5        0.0000 
    106 CA        -22.1770   42.0098    7.4900 C.3       2 GLC5        0.0000 
    107 CA        -19.0935   43.6112    7.3225 C.3       2 GLC5        0.0000 
    108 CA        -20.6480   42.7750    7.8960 C.3       6 GLL5        0.0000 
    109 CA        -17.5600   44.3940    7.5240 C.3       4 GLP5        0.0000 
    110 CA        -23.2602   44.4190   11.2190 C.3       2 GLC5        0.0000 
    111 CA        -21.7960   42.6670   10.8080 C.3       6 GLL5        0.0000 
    112 CA        -24.9670   45.6460   11.9410 C.3       4 GLP5        0.0000 
    113 CA        -19.6522   43.4105   10.6330 C.3       2 GLC5        0.0000 
    114 CA        -21.3110   43.7170   10.1860 C.3       6 GLL5        0.0000 
    115 CA        -17.7510   43.6290   10.7690 C.3       4 GLP5        0.0000 
    116 CA        -22.6335   42.1956    8.9874 C.3       2 GLC5        0.0000 
    117 CA        -23.2007   44.4280   12.3255 C.3       2 GLC5        0.0000 
    118 CA        -21.7230   42.6150   12.3290 C.3       6 GLL5        0.0000 
    119 CA        -19.5928   43.4195   11.7395 C.3       2 GLC5        0.0000 
    120 CA        -20.5070   40.2507   14.2432 C.3       2 GLC5        0.0000 
    121 CA        -20.6931   39.0991   15.4486 C.3       2 GLC5        0.0000 
    122 CA        -23.7688   38.3207   18.6157 C.3       2 GLC5        0.0000 
    123 CA        -25.2120   39.5770   19.2200 C.3       4 GLP5        0.0000 
    124 CA        -24.2670   35.9220   19.1870 C.3       2 GLC5        0.0000 
    125 CA        -26.2400   35.7920   19.6630 C.3       4 GLP5        0.0000 
    126 CA        -23.0695   35.8238   21.0888 C.3       2 GLC5        0.0000 
    127 CA        -22.3660   34.3830   19.5300 C.3       6 GLL5        0.0000 
    128 CA        -23.9240   36.6180   22.7480 C.3       4 GLP5        0.0000 
    129 CA        -24.5492   34.8835   19.3798 C.3       2 GLC5        0.0000 
    130 CA        -21.0308   33.6499   18.4886 C.3       2 GLC5        0.0000 
    131 CA        -22.3027   34.6180   22.2282 C.3       2 GLC5        0.0000 
    132 CA        -21.7420   33.7380   20.7650 C.3       6 GLL5        0.0000 
    133 CA        -22.6690   36.1170   23.5090 C.3       4 GLP5        0.0000 
    134 CA        -23.6273   33.0545   21.9108 C.3       2 GLC5        0.0000 
    135 CA        -25.3180   32.9900   22.8740 C.3       4 GLP5        0.0000 
    136 CA        -23.4130   32.1227   22.6955 C.3       2 GLC5        0.0000 
    137 CA        -21.3330   31.8460   22.2520 C.3       6 GLL5        0.0000 
    138 CA        -20.5132   31.9501   24.5328 C.3       2 GLC5        0.0000 
    139 CA        -20.6350   30.0530   23.7000 C.3       6 GLL5        0.0000 
    140 CA        -19.9550   33.2460   25.9570 C.3       4 GLP5        0.0000 
    141 CA        -22.4620   30.3275   25.1273 C.3       2 GLC5        0.0000 
    142 CA        -20.8590   28.8270   24.1900 C.3       6 GLL5        0.0000 
    143 CA        -23.9150   31.0620   26.5390 C.3       4 GLP5        0.0000 
    144 CA        -21.2467   26.6103   24.2647 C.3       2 GLC5        0.0000 
    145 CA        -22.1710   24.7520   23.9310 C.3       4 GLP5        0.0000 
    146 CA        -19.4324   29.6401   26.1556 C.3       2 GLC5        0.0000 
    147 CA        -18.5990   31.3700   26.9870 C.3       4 GLP5        0.0000 
    148 CA        -21.5260   26.1273   25.1532 C.3       2 GLC5        0.0000 
    149 CA        -17.7063   27.3850   27.8148 C.3       2 GLC5        0.0000 
    150 CA        -23.2058   43.1314    7.9480 C.3       2 GLC5        0.0000 
    151 CA        -19.4364   44.8366    7.9035 C.3       2 GLC5        0.0000 
    152 CA        -21.2570   43.7500    8.6610 C.3       6 GLL5        0.0000 
    153 CA        -23.6501   39.6875   18.0551 C.3       2 GLC5        0.0000 
    154 CA        -22.2060   39.5850   16.2970 C.3       6 GLL5        0.0000 
    155 CA        -16.2615   27.2012   23.4315 C.3       2 GLC5        0.0000 
    156 CA        -14.3130   27.2240   22.7150 C.3       4 GLP5        0.0000 
    157 CA        -16.2197   28.9765   24.6672 C.3       2 GLC5        0.0000 
    158 CA        -17.4150   27.4930   25.4590 C.3       6 GLL5        0.0000 
    159 CA        -14.5310   29.5530   25.0650 C.3       4 GLP5        0.0000 
    160 CA        -18.2538   29.8850   25.6282 C.3       2 GLC5        0.0000 
@<TRIPOS>BOND
@<TRIPOS>SUBSTRUCTURE
     1 SEC2       32 GROUP        1 X    SEC  0     ROOT SEC X 2
     2 GLC5        1 GROUP        1 X    GLC  0     **** GLC X 6
     3 SEP2       34 GROUP        1 Y    SEP  0     ROOT SEP Y 9
     4 GLP5        3 GROUP        1 Y    GLP  0     **** GLP Y 13
     5 SEL2       33 GROUP        1 Z    SEL  0     ROOT SEL Z 16
     6 GLL5        2 GROUP        1 Z    GLL  0     **** GLL Z 20
@<TRIPOS>SET

