#    Name: 3mg3_ECH_2_ligand
#    Modification time : Mon Mar 24 23:12:18 2014

@<TRIPOS>MOLECULE
3mg3_ECH_2_ligand
   95    96     1     0     0
SMALL
NO_CHARGES


@<TRIPOS>ATOM
      1 C1        -21.9580   44.9830    8.0490 C.3       1 ECH351      0.0000 
      2 C2        -22.2640   44.8000    6.5670 C.3       1 ECH351      0.0000 
      3 C3        -21.0670   44.2360    5.8280 C.3       1 ECH351      0.0000 
      4 C4        -20.6060   42.8820    6.3460 C.3       1 ECH351      0.0000 
      5 C5        -20.6480   42.7750    7.8960 C.2       1 ECH351      0.0000 
      6 C6        -21.2570   43.7500    8.6610 C.2       1 ECH351      0.0000 
      7 C7        -21.3110   43.7170   10.1860 C.2       1 ECH351      0.0000 
      8 C8        -21.7960   42.6670   10.8080 C.2       1 ECH351      0.0000 
      9 C9        -21.7230   42.6150   12.3290 C.2       1 ECH351      0.0000 
     10 C10       -22.1630   41.4980   12.9360 C.2       1 ECH351      0.0000 
     11 C11       -22.0370   41.2810   14.4590 C.2       1 ECH351      0.0000 
     12 C12       -22.5290   40.0860   14.8920 C.2       1 ECH351      0.0000 
     13 C13       -22.2060   39.5850   16.2970 C.2       1 ECH351      0.0000 
     14 C14       -22.5770   38.3370   16.6220 C.2       1 ECH351      0.0000 
     15 C15       -22.1270   37.7010   17.9300 C.2       1 ECH351      0.0000 
     16 C16       -22.5240   36.4280   18.0930 C.2       1 ECH351      0.0000 
     17 C17       -22.0640   35.6760   19.3290 C.2       1 ECH351      0.0000 
     18 C18       -22.3660   34.3830   19.5300 C.2       1 ECH351      0.0000 
     19 C19       -21.7420   33.7380   20.7650 C.2       1 ECH351      0.0000 
     20 C20       -22.1310   32.5000   21.1300 C.2       1 ECH351      0.0000 
     21 C21       -21.3330   31.8460   22.2520 C.2       1 ECH351      0.0000 
     22 C22       -21.6830   30.6650   22.7820 C.2       1 ECH351      0.0000 
     23 C23       -20.6350   30.0530   23.7000 C.2       1 ECH351      0.0000 
     24 C24       -20.8590   28.8270   24.1900 C.2       1 ECH351      0.0000 
     25 C25       -19.7860   28.1100   25.0070 C.2       1 ECH351      0.0000 
     26 C26       -20.2090   27.3520   26.0500 C.2       1 ECH351      0.0000 
     27 C27       -19.3060   26.4240   26.8010 C.2       1 ECH351      0.0000 
     28 O27       -19.7670   25.7420   27.7050 O.2       1 ECH351      0.0000 
     29 C28       -17.8820   26.3110   26.3200 C.3       1 ECH351      0.0000 
     30 C29       -17.4150   27.4930   25.4590 C.3       1 ECH351      0.0000 
     31 C30       -18.4150   27.8610   24.3570 C.3       1 ECH351      0.0000 
     32 C31       -23.2580   45.2520    8.7660 C.3       1 ECH351      0.0000 
     33 C32       -21.0180   46.1920    8.2110 C.3       1 ECH351      0.0000 
     34 C33       -20.0100   41.5360    8.5210 C.3       1 ECH351      0.0000 
     35 C34       -21.1460   43.8050   13.0910 C.3       1 ECH351      0.0000 
     36 C35       -21.7850   40.6350   17.3210 C.3       1 ECH351      0.0000 
     37 C36       -23.3510   33.5670   18.6630 C.3       1 ECH351      0.0000 
     38 C37       -22.8570   29.8240   22.2540 C.3       1 ECH351      0.0000 
     39 C38       -21.5530   27.6530   26.7010 C.3       1 ECH351      0.0000 
     40 C39       -18.5050   26.6800   23.3880 C.3       1 ECH351      0.0000 
     41 C40       -17.9020   29.1230   23.6310 C.3       1 ECH351      0.0000 
     42 H         -22.5358   45.7655    6.1361 H         1 ECH351      0.0000 
     43 H         -23.1119   44.1210    6.4581 H         1 ECH351      0.0000 
     44 H         -20.2285   44.9504    5.8998 H         1 ECH351      0.0000 
     45 H         -21.3149   44.1430    4.7563 H         1 ECH351      0.0000 
     46 H         -19.5777   42.6925    6.0157 H         1 ECH351      0.0000 
     47 H         -21.2427   42.0925    5.9292 H         1 ECH351      0.0000 
     48 H         -20.9459   44.5605   10.6388 H         1 ECH351      0.0000 
     49 H         -22.2289   41.8586   10.3725 H         1 ECH351      0.0000 
     50 H         -22.6112   40.7127   12.4402 H         1 ECH351      0.0000 
     51 H         -21.6305   41.9862   14.9828 H         1 ECH351      0.0000 
     52 H         -23.1172   39.4758   14.3340 H         1 ECH351      0.0000 
     53 H         -23.1691   37.7408   16.0356 H         1 ECH351      0.0000 
     54 H         -21.5959   38.2482   18.5418 H         1 ECH351      0.0000 
     55 H         -23.1124   35.9136   17.4566 H         1 ECH351      0.0000 
     56 H         -21.5067   36.2402   19.9905 H         1 ECH351      0.0000 
     57 H         -21.0531   34.2974   21.2486 H         1 ECH351      0.0000 
     58 H         -22.8772   31.9758   20.7461 H         1 ECH351      0.0000 
     59 H         -20.5106   32.3900   22.5602 H         1 ECH351      0.0000 
     60 H         -19.8252   30.6211   23.8829 H         1 ECH351      0.0000 
     61 H         -21.7240   28.2994   24.0623 H         1 ECH351      0.0000 
     62 H         -17.7640   25.3834   25.7320 H         1 ECH351      0.0000 
     63 H         -17.2053   26.2237   27.1887 H         1 ECH351      0.0000 
     64 H         -16.4526   27.2399   24.9986 H         1 ECH351      0.0000 
     65 H         -17.2586   28.3646   26.1056 H         1 ECH351      0.0000 
     66 H         -23.1203   45.3838    9.7477 H         1 ECH351      0.0000 
     67 H         -23.7095   46.0746    8.4203 H         1 ECH351      0.0000 
     68 H         -23.9042   44.4963    8.6595 H         1 ECH351      0.0000 
     69 H         -20.7839   46.3547    9.1695 H         1 ECH351      0.0000 
     70 H         -20.1581   46.0627    7.7172 H         1 ECH351      0.0000 
     71 H         -21.4319   47.0334    7.8635 H         1 ECH351      0.0000 
     72 H         -19.0377   41.4664    8.2980 H         1 ECH351      0.0000 
     73 H         -20.0822   41.5441    9.5184 H         1 ECH351      0.0000 
     74 H         -20.4448   40.6937    8.2025 H         1 ECH351      0.0000 
     75 H         -20.1979   43.9881   12.8310 H         1 ECH351      0.0000 
     76 H         -21.6642   44.6428   12.9189 H         1 ECH351      0.0000 
     77 H         -21.1547   43.6528   14.0793 H         1 ECH351      0.0000 
     78 H         -21.5934   40.2272   18.2138 H         1 ECH351      0.0000 
     79 H         -20.9581   41.1202   17.0369 H         1 ECH351      0.0000 
     80 H         -22.4961   41.3242   17.4601 H         1 ECH351      0.0000 
     81 H         -23.0598   33.5278   17.7071 H         1 ECH351      0.0000 
     82 H         -23.4336   32.6232   18.9831 H         1 ECH351      0.0000 
     83 H         -24.2698   33.9616   18.6736 H         1 ECH351      0.0000 
     84 H         -22.7275   29.5651   21.2968 H         1 ECH351      0.0000 
     85 H         -22.9707   28.9773   22.7738 H         1 ECH351      0.0000 
     86 H         -23.7235   30.3202   22.3088 H         1 ECH351      0.0000 
     87 H         -21.7473   27.0287   27.4576 H         1 ECH351      0.0000 
     88 H         -21.5868   28.5814   27.0710 H         1 ECH351      0.0000 
     89 H         -22.3078   27.5691   26.0505 H         1 ECH351      0.0000 
     90 H         -17.6267   26.4928   22.9480 H         1 ECH351      0.0000 
     91 H         -18.7855   25.8396   23.8518 H         1 ECH351      0.0000 
     92 H         -19.1683   26.8477   22.6587 H         1 ECH351      0.0000 
     93 H         -17.0097   28.9702   23.2061 H         1 ECH351      0.0000 
     94 H         -18.5261   29.4137   22.9057 H         1 ECH351      0.0000 
     95 H         -17.7999   29.8960   24.2571 H         1 ECH351      0.0000 
@<TRIPOS>BOND
     1    2    1 1    
     2    6    1 1    
     3   32    1 1    
     4   33    1 1    
     5    3    2 1    
     6   42    2 1    
     7   43    2 1    
     8    4    3 1    
     9   44    3 1    
    10   45    3 1    
    11    5    4 1    
    12   46    4 1    
    13   47    4 1    
    14    6    5 2    
    15   34    5 1    
    16    7    6 1    
    17    8    7 2    
    18   48    7 1    
    19    9    8 1    
    20   49    8 1    
    21   10    9 2    
    22   35    9 1    
    23   11   10 1    
    24   50   10 1    
    25   12   11 2    
    26   51   11 1    
    27   13   12 1    
    28   52   12 1    
    29   14   13 2    
    30   36   13 1    
    31   15   14 1    
    32   53   14 1    
    33   16   15 2    
    34   54   15 1    
    35   17   16 1    
    36   55   16 1    
    37   18   17 2    
    38   56   17 1    
    39   19   18 1    
    40   37   18 1    
    41   20   19 2    
    42   57   19 1    
    43   21   20 1    
    44   58   20 1    
    45   22   21 2    
    46   59   21 1    
    47   23   22 1    
    48   38   22 1    
    49   24   23 2    
    50   60   23 1    
    51   25   24 1    
    52   61   24 1    
    53   26   25 2    
    54   31   25 1    
    55   27   26 1    
    56   39   26 1    
    57   28   27 2    
    58   29   27 1    
    59   30   29 1    
    60   62   29 1    
    61   63   29 1    
    62   31   30 1    
    63   64   30 1    
    64   65   30 1    
    65   40   31 1    
    66   41   31 1    
    67   66   32 1    
    68   67   32 1    
    69   68   32 1    
    70   69   33 1    
    71   70   33 1    
    72   71   33 1    
    73   72   34 1    
    74   73   34 1    
    75   74   34 1    
    76   75   35 1    
    77   76   35 1    
    78   77   35 1    
    79   78   36 1    
    80   79   36 1    
    81   80   36 1    
    82   81   37 1    
    83   82   37 1    
    84   83   37 1    
    85   84   38 1    
    86   85   38 1    
    87   86   38 1    
    88   87   39 1    
    89   88   39 1    
    90   89   39 1    
    91   90   40 1    
    92   91   40 1    
    93   92   40 1    
    94   93   41 1    
    95   94   41 1    
    96   95   41 1    
@<TRIPOS>SUBSTRUCTURE
     1 ECH351      1 GROUP   
@<TRIPOS>SET

