#    Name: 4jvr_1MT_2_INTS_M
#    Modification time : Tue Mar 25 06:37:58 2014

@<TRIPOS>MOLECULE
4jvr_1MT_2_INTS_M
   80     0     9     0     0
SMALL
NO_CHARGES


@<TRIPOS>ATOM
      1 CA        -29.4340   11.9725  -57.6285 C.3       3 GLC5        0.0000 
      2 CA        -29.0730   12.4150  -55.9670 C.3       9 GLL5        0.0000 
      3 CA        -29.7950   11.5300  -59.2900 C.3       6 GLP5        0.0000 
      4 CA        -29.0675   14.2770  -55.6855 C.3       3 GLC5        0.0000 
      5 CA        -29.0620   16.1390  -55.4040 C.3       6 GLP5        0.0000 
      6 CA        -27.6355   11.5315  -56.2670 C.3       3 GLC5        0.0000 
      7 CA        -26.1980   10.6480  -56.5670 C.3       6 GLP5        0.0000 
      8 CA        -35.2210   14.2695  -49.3290 C.3       3 GLC5        0.0000 
      9 CA        -36.3750   13.3740  -51.0140 C.3       9 GLL5        0.0000 
     10 CA        -34.0670   15.1650  -47.6440 C.3       6 GLP5        0.0000 
     11 CA        -35.9540   15.1465  -48.7910 C.3       3 GLC5        0.0000 
     12 CA        -37.8410   15.1280  -49.9380 C.3       9 GLL5        0.0000 
     13 CA        -37.4530   17.0485  -49.9715 C.3       3 GLC5        0.0000 
     14 CA        -37.0650   18.9690  -50.0050 C.3       6 GLP5        0.0000 
     15 CA        -37.1975   17.1880  -51.1540 C.3       3 GLC5        0.0000 
     16 CA        -37.3300   15.4070  -52.3030 C.3       9 GLL5        0.0000 
     17 CA        -38.6800   16.4945  -53.0785 C.3       3 GLC5        0.0000 
     18 CA        -40.0300   17.5820  -53.8540 C.3       6 GLP5        0.0000 
     19 CA        -37.0510   17.4140  -53.1330 C.3       3 GLC5        0.0000 
     20 CA        -36.7720   19.4210  -53.9630 C.3       6 GLP5        0.0000 
     21 CA        -36.7480   14.9545  -53.9520 C.3       3 GLC5        0.0000 
     22 CA        -36.1660   14.5020  -55.6010 C.3       6 GLP5        0.0000 
     23 CA        -38.6560   13.1235  -49.5600 C.3       3 GLC5        0.0000 
     24 CA        -38.8260   13.5180  -51.6510 C.3       9 GLL5        0.0000 
     25 CA        -38.4860   12.7290  -47.4690 C.3       6 GLP5        0.0000 
     26 CA        -40.1485   14.4445  -52.3345 C.3       3 GLC5        0.0000 
     27 CA        -41.4710   15.3710  -53.0180 C.3       6 GLP5        0.0000 
     28 N         -34.0445   10.8715  -57.0220 N.am      2 SEC2        0.0000 
     29 N         -34.9570   10.7490  -56.1600 N.am      8 SEL2        0.0000 
     30 N         -33.1320   10.9940  -57.8840 N.am      5 SEP2        0.0000 
     31 CA        -37.7135   12.6715  -56.9940 C.3       3 GLC5        0.0000 
     32 CA        -37.5780   10.6250  -56.5700 C.3       9 GLL5        0.0000 
     33 CA        -37.8490   14.7180  -57.4180 C.3       6 GLP5        0.0000 
     34 CA        -29.2725   17.5710  -50.5520 C.3       3 GLC5        0.0000 
     35 CA        -30.5740   17.7210  -51.8310 C.3       9 GLL5        0.0000 
     36 CA        -27.9710   17.4210  -49.2730 C.3       6 GLP5        0.0000 
     37 CA        -29.3435   19.0015  -52.3515 C.3       3 GLC5        0.0000 
     38 CA        -28.1130   20.2820  -52.8720 C.3       6 GLP5        0.0000 
     39 CA        -31.7395   18.9130  -53.2080 C.3       3 GLC5        0.0000 
     40 CA        -32.9050   20.1050  -54.5850 C.3       6 GLP5        0.0000 
     41 CA        -28.5505   16.9430  -52.0320 C.3       3 GLC5        0.0000 
     42 CA        -26.5270   16.1650  -52.2330 C.3       6 GLP5        0.0000 
     43 O         -31.6925   13.1325  -49.4690 O.2       1 ALC1        0.0000 
     44 O         -32.3300   13.1880  -50.7570 O.2       7 ALL1        0.0000 
     45 O         -31.0550   13.0770  -48.1810 O.2       4 ALP1        0.0000 
     46 CA        -34.0155   13.8610  -55.5025 C.3       3 GLC5        0.0000 
     47 CA        -31.8650   13.2200  -55.4040 C.3       9 GLL5        0.0000 
     48 CA        -30.5858   11.0205  -56.7230 C.3       3 GLC5        0.0000 
     49 CA        -30.2540   11.5240  -55.0660 C.3       9 GLL5        0.0000 
     50 CA        -31.0820   11.1370  -58.6580 C.3       6 GLP5        0.0000 
     51 CA        -29.4471   12.3664  -53.5511 C.3       3 GLC5        0.0000 
     52 CA        -28.2970   12.7140  -51.9210 C.3       6 GLP5        0.0000 
     53 CA        -31.9890   12.2225  -56.8480 C.3       3 GLC5        0.0000 
     54 CA        -31.5310   12.0680  -54.8460 C.3       9 GLL5        0.0000 
     55 CA        -32.2800   11.8010  -58.5710 C.3       6 GLP5        0.0000 
     56 CA        -31.6750   14.2230  -56.1185 C.3       3 GLC5        0.0000 
     57 CA        -31.6520   15.8020  -57.1120 C.3       6 GLP5        0.0000 
     58 CA        -28.9930   10.1225  -52.9367 C.3       3 GLC5        0.0000 
     59 CA        -29.9250   10.2840  -54.5100 C.3       9 GLL5        0.0000 
     60 CA        -27.5710   10.2980  -51.7560 C.3       6 GLP5        0.0000 
     61 CA        -39.4615   15.5660  -51.3612 C.3       3 GLC5        0.0000 
     62 CA        -41.2100   16.4090  -52.1390 C.3       6 GLP5        0.0000 
     63 CA        -37.9483   13.6080  -48.9994 C.3       3 GLC5        0.0000 
     64 CA        -34.7218   14.6543  -54.2770 C.3       3 GLC5        0.0000 
     65 CA        -33.2240   14.2620  -52.5050 C.3       9 GLL5        0.0000 
     66 CA        -33.5345   17.1683  -52.0325 C.3       3 GLC5        0.0000 
     67 CA        -33.3310   15.3510  -53.4010 C.3       9 GLL5        0.0000 
     68 CA        -34.1680   18.4320  -50.7550 C.3       6 GLP5        0.0000 
     69 CA        -32.2765   15.8532  -55.2110 C.3       3 GLC5        0.0000 
     70 CA        -32.4710   16.4580  -53.2190 C.3       9 GLL5        0.0000 
     71 CA        -30.7715   16.4575  -49.8685 C.3       3 GLC5        0.0000 
     72 CA        -31.5410   16.4370  -52.1520 C.3       9 GLL5        0.0000 
     73 CA        -30.0600   17.0090  -48.0210 C.3       6 GLP5        0.0000 
     74 CA        -30.0598   16.6090  -53.6978 C.3       3 GLC5        0.0000 
     75 CA        -30.0775   13.7767  -51.6538 C.3       3 GLC5        0.0000 
     76 CA        -31.4250   15.3750  -51.2800 C.3       9 GLL5        0.0000 
     77 CA        -32.9625   15.0023  -49.5153 C.3       3 GLC5        0.0000 
     78 CA        -32.7046   17.3295  -51.1954 C.3       3 GLC5        0.0000 
     79 CA        -35.4060   13.4081  -54.3385 C.3       3 GLC5        0.0000 
     80 CA        -35.6110   13.0000  -52.2780 C.3       9 GLL5        0.0000 
@<TRIPOS>BOND
@<TRIPOS>SUBSTRUCTURE
     1 ALC1       43 GROUP        1 X    ALC  0     ROOT ALC X 1
     2 SEC2       28 GROUP        1 X    SEC  0     **** SEC X 2
     3 GLC5        1 GROUP        1 X    GLC  0     **** GLC X 6
     4 ALP1       45 GROUP        1 Y    ALP  0     ROOT ALP Y 8
     5 SEP2       30 GROUP        1 Y    SEP  0     **** SEP Y 9
     6 GLP5        3 GROUP        1 Y    GLP  0     **** GLP Y 13
     7 ALL1       44 GROUP        1 Z    ALL  0     ROOT ALL Z 15
     8 SEL2       29 GROUP        1 Z    SEL  0     **** SEL Z 16
     9 GLL5        2 GROUP        1 Z    GLL  0     **** GLL Z 20
@<TRIPOS>SET

