#    Name: 4jvr_1MT_2_ligand
#    Modification time : Tue Mar 25 06:37:58 2014

@<TRIPOS>MOLECULE
4jvr_1MT_2_ligand
   63    66     1     0     0
SMALL
NO_CHARGES


@<TRIPOS>ATOM
      1 CL1       -29.0730   12.4150  -55.9670 Cl        1 1MT201      0.0000 
      2 C1        -30.2540   11.5240  -55.0660 C.ar      1 1MT201      0.0000 
      3 C2        -31.5310   12.0680  -54.8460 C.ar      1 1MT201      0.0000 
      4 C3        -29.9250   10.2840  -54.5100 C.ar      1 1MT201      0.0000 
      5 C4        -30.9050    9.6100  -53.7250 C.ar      1 1MT201      0.0000 
      6 C5        -32.1840   10.1920  -53.5110 C.ar      1 1MT201      0.0000 
      7 C6        -32.5340   11.4450  -54.0640 C.ar      1 1MT201      0.0000 
      8 C7        -33.8720   12.1230  -53.7790 C.3       1 1MT201      0.0000 
      9 C8        -35.0980   11.1670  -53.7920 C.3       1 1MT201      0.0000 
     10 C9        -35.6110   13.0000  -52.2780 C.3       1 1MT201      0.0000 
     11 C10       -36.3750   13.3740  -51.0140 C.3       1 1MT201      0.0000 
     12 C11       -37.5850   14.3180  -51.2290 C.3       1 1MT201      0.0000 
     13 C12       -37.8410   15.1280  -49.9380 C.3       1 1MT201      0.0000 
     14 C13       -37.3300   15.4070  -52.3030 C.3       1 1MT201      0.0000 
     15 C14       -38.8260   13.5180  -51.6510 C.3       1 1MT201      0.0000 
     16 C15       -35.6740   11.0090  -55.1990 C.2       1 1MT201      0.0000 
     17 O1        -34.9570   10.7490  -56.1600 O.2       1 1MT201      0.0000 
     18 N1        -37.0360   11.1700  -55.3170 N.am      1 1MT201      0.0000 
     19 C17       -37.5780   10.6250  -56.5700 C.3       1 1MT201      0.0000 
     20 C18       -34.0030   12.9670  -52.4550 C.3       1 1MT201      0.0000 
     21 C19       -33.2240   14.2620  -52.5050 C.ar      1 1MT201      0.0000 
     22 C20       -33.3310   15.3510  -53.4010 C.ar      1 1MT201      0.0000 
     23 C21       -32.4710   16.4580  -53.2190 C.ar      1 1MT201      0.0000 
     24 C22       -31.5410   16.4370  -52.1520 C.ar      1 1MT201      0.0000 
     25 CL2       -30.5740   17.7210  -51.8310 Cl        1 1MT201      0.0000 
     26 C23       -31.4250   15.3750  -51.2800 C.ar      1 1MT201      0.0000 
     27 C24       -32.2910   14.3040  -51.4930 C.ar      1 1MT201      0.0000 
     28 N2        -32.3300   13.1880  -50.7570 N.am      1 1MT201      0.0000 
     29 C25       -33.2430   12.3480  -51.2370 C.2       1 1MT201      0.0000 
     30 O2        -33.4850   11.2280  -50.7980 O.2       1 1MT201      0.0000 
     31 F1        -31.8650   13.2200  -55.4040 F         1 1MT201      0.0000 
     32 C16       -38.5470    9.4710  -56.3170 C.3       1 1MT201      0.0000 
     33 N3        -38.0250    8.1820  -56.7700 N.4       1 1MT201      0.0000 
     34 N4        -36.0130   11.7630  -52.8220 N.4       1 1MT201      0.0000 
     35 H         -29.0168    9.8651  -54.6542 H         1 1MT201      0.0000 
     36 H         -30.6850    8.7016  -53.3136 H         1 1MT201      0.0000 
     37 H         -32.8737    9.6833  -52.9357 H         1 1MT201      0.0000 
     38 H         -34.0828   12.8592  -54.6078 H         1 1MT201      0.0000 
     39 H         -34.7434   10.2141  -53.4276 H         1 1MT201      0.0000 
     40 H         -35.9227   13.7747  -53.0996 H         1 1MT201      0.0000 
     41 H         -35.6825   13.8574  -50.2996 H         1 1MT201      0.0000 
     42 H         -36.7391   12.4524  -50.5225 H         1 1MT201      0.0000 
     43 H         -37.6206   11.5927  -54.6675 H         1 1MT201      0.0000 
     44 H         -36.7657   10.2569  -57.2137 H         1 1MT201      0.0000 
     45 H         -38.1123   11.4058  -57.1310 H         1 1MT201      0.0000 
     46 H         -34.0050   15.3378  -54.1518 H         1 1MT201      0.0000 
     47 H         -32.5188   17.2553  -53.8426 H         1 1MT201      0.0000 
     48 H         -30.7562   15.3669  -50.5311 H         1 1MT201      0.0000 
     49 H         -31.7618   13.0163  -49.9719 H         1 1MT201      0.0000 
     50 H         -39.4981    9.7060  -56.8276 H         1 1MT201      0.0000 
     51 H         -38.7679    9.4420  -55.2349 H         1 1MT201      0.0000 
     52 H         -37.0486   15.6827  -49.6843 H         1 1MT201      0.0000 
     53 H         -38.6157   15.7523  -50.0387 H         1 1MT201      0.0000 
     54 H         -38.0433   14.5330  -49.1602 H         1 1MT201      0.0000 
     55 H         -36.5573   15.9937  -52.0608 H         1 1MT201      0.0000 
     56 H         -37.1255   15.0069  -53.1964 H         1 1MT201      0.0000 
     57 H         -38.1240   16.0029  -52.4235 H         1 1MT201      0.0000 
     58 H         -38.6750   13.0220  -52.5061 H         1 1MT201      0.0000 
     59 H         -39.0840   12.8414  -50.9613 H         1 1MT201      0.0000 
     60 H         -39.6194   14.1102  -51.7918 H         1 1MT201      0.0000 
     61 H         -37.8318    8.1836  -57.7512 H         1 1MT201      0.0000 
     62 H         -37.1735    7.9416  -56.3040 H         1 1MT201      0.0000 
     63 H         -38.6721    7.4388  -56.5999 H         1 1MT201      0.0000 
@<TRIPOS>BOND
     1    2    1 1    
     2    3    2 ar   
     3    4    2 ar   
     4    7    3 ar   
     5   31    3 1    
     6    5    4 ar   
     7   35    4 1    
     8    6    5 ar   
     9   36    5 1    
    10    7    6 ar   
    11   37    6 1    
    12    8    7 1    
    13    9    8 1    
    14   20    8 1    
    15   38    8 1    
    16   16    9 1    
    17   34    9 1    
    18   39    9 1    
    19   11   10 1    
    20   20   10 1    
    21   34   10 1    
    22   40   10 1    
    23   12   11 1    
    24   41   11 1    
    25   42   11 1    
    26   13   12 1    
    27   14   12 1    
    28   15   12 1    
    29   52   13 1    
    30   53   13 1    
    31   54   13 1    
    32   55   14 1    
    33   56   14 1    
    34   57   14 1    
    35   58   15 1    
    36   59   15 1    
    37   60   15 1    
    38   17   16 2    
    39   18   16 am   
    40   19   18 1    
    41   43   18 1    
    42   32   19 1    
    43   44   19 1    
    44   45   19 1    
    45   21   20 1    
    46   29   20 1    
    47   22   21 ar   
    48   27   21 ar   
    49   23   22 ar   
    50   46   22 1    
    51   24   23 ar   
    52   47   23 1    
    53   25   24 1    
    54   26   24 ar   
    55   27   26 ar   
    56   48   26 1    
    57   28   27 1    
    58   29   28 am   
    59   49   28 1    
    60   30   29 2    
    61   33   32 1    
    62   50   32 1    
    63   51   32 1    
    64   61   33 1    
    65   62   33 1    
    66   63   33 1    
@<TRIPOS>SUBSTRUCTURE
     1 1MT201      1 GROUP   
@<TRIPOS>SET

