#    Name: 2v95_HCY_1_INTS_M
#    Modification time : Tue Mar 25 01:18:54 2014

@<TRIPOS>MOLECULE
2v95_HCY_1_INTS_M
   68     0     9     0     0
SMALL
NO_CHARGES


@<TRIPOS>ATOM
      1 CA         46.2695  -15.4740   13.7425 C.3       3 GLC5        0.0000 
      2 CA         48.2050  -15.9160   13.0530 C.3       9 GLL5        0.0000 
      3 CA         44.3340  -15.0320   14.4320 C.3       6 GLP5        0.0000 
      4 CA         48.1500  -12.4995   14.8855 C.3       3 GLC5        0.0000 
      5 CA         47.3990  -13.4700   13.3570 C.3       9 GLL5        0.0000 
      6 CA         48.9010  -11.5290   16.4140 C.3       6 GLP5        0.0000 
      7 CA         45.8665  -14.2510   13.8945 C.3       3 GLC5        0.0000 
      8 CA         49.1980  -13.6385   13.6115 C.3       3 GLC5        0.0000 
      9 CA         50.9970  -13.8070   13.8660 C.3       6 GLP5        0.0000 
     10 CA         45.5760  -14.2790   12.5160 C.3       3 GLC5        0.0000 
     11 CA         47.3320  -13.2770   12.0330 C.3       9 GLL5        0.0000 
     12 CA         43.8200  -15.2810   12.9990 C.3       6 GLP5        0.0000 
     13 CA         45.0645  -11.3110   12.3870 C.3       3 GLC5        0.0000 
     14 CA         46.7390  -11.9790   11.5620 C.3       9 GLL5        0.0000 
     15 CA         43.3900  -10.6430   13.2120 C.3       6 GLP5        0.0000 
     16 CA         46.9520   -9.4425   10.0460 C.3       3 GLC5        0.0000 
     17 CA         47.6030  -11.3300   10.5020 C.3       9 GLL5        0.0000 
     18 CA         46.3010   -7.5550    9.5900 C.3       6 GLP5        0.0000 
     19 CA         47.7850   -8.7405    8.1720 C.3       3 GLC5        0.0000 
     20 CA         48.7450  -10.3160    7.9860 C.3       9 GLL5        0.0000 
     21 CA         46.8250   -7.1650    8.3580 C.3       6 GLP5        0.0000 
     22 CA         50.0910   -8.4900    5.7755 C.3       3 GLC5        0.0000 
     23 CA         49.7270  -10.1140    6.8430 C.3       9 GLL5        0.0000 
     24 CA         50.4550   -6.8660    4.7080 C.3       6 GLP5        0.0000 
     25 CA         48.4145   -9.7160    5.3285 C.3       3 GLC5        0.0000 
     26 CA         47.1020   -9.3180    3.8140 C.3       6 GLP5        0.0000 
     27 CA         48.9755   -8.3615    7.5530 C.3       3 GLC5        0.0000 
     28 CA         48.2240   -6.6090    8.2630 C.3       6 GLP5        0.0000 
     29 CA         47.9455  -11.6330    4.7785 C.3       3 GLC5        0.0000 
     30 CA         48.5830  -12.8420    6.5250 C.3       9 GLL5        0.0000 
     31 CA         47.3080  -10.4240    3.0320 C.3       6 GLP5        0.0000 
     32 CA         48.1645  -13.7585    4.5970 C.3       3 GLC5        0.0000 
     33 CA         47.7460  -14.6750    2.6690 C.3       6 GLP5        0.0000 
     34 CA         45.1705  -15.0710   11.6630 C.3       3 GLC5        0.0000 
     35 CA         46.5210  -14.8610   10.3270 C.3       9 GLL5        0.0000 
     36 CA         45.0855  -13.9090    9.3345 C.3       3 GLC5        0.0000 
     37 CA         43.6500  -12.9570    8.3420 C.3       6 GLP5        0.0000 
     38 CA         46.0215  -16.2350    9.2470 C.3       3 GLC5        0.0000 
     39 CA         45.5220  -17.6090    8.1670 C.3       6 GLP5        0.0000 
     40 CA         52.9995  -10.8895    5.0960 C.3       3 GLC5        0.0000 
     41 CA         52.0670  -12.6910    5.1590 C.3       9 GLL5        0.0000 
     42 CA         53.9320   -9.0880    5.0330 C.3       6 GLP5        0.0000 
     43 O          48.1345  -16.5105    8.4325 O.2       1 ALC1        0.0000 
     44 O          48.4470  -15.2560    8.1840 O.2       7 ALL1        0.0000 
     45 O          47.8220  -17.7650    8.6810 O.2       4 ALP1        0.0000 
     46 N          50.5360  -10.2950    3.1400 N.am      2 SEC2        0.0000 
     47 N          50.6650  -10.9400    4.4420 N.am      8 SEL2        0.0000 
     48 N          50.4070   -9.6500    1.8380 N.am      5 SEP2        0.0000 
     49 O          51.5045  -12.8845    2.6790 O.2       1 ALC1        0.0000 
     50 O          52.3370  -12.8140    3.7610 O.2       7 ALL1        0.0000 
     51 O          50.6720  -12.9550    1.5970 O.2       4 ALP1        0.0000 
     52 CA         49.9073  -15.3998   13.1152 C.3       3 GLC5        0.0000 
     53 CA         48.5820  -15.4490   11.6480 C.3       9 GLL5        0.0000 
     54 CA         51.4210  -15.1170   13.8800 C.3       6 GLP5        0.0000 
     55 CA         48.7445  -11.1618   12.1350 C.3       3 GLC5        0.0000 
     56 CA         50.3180  -10.6690   13.2380 C.3       6 GLP5        0.0000 
     57 CA         49.7580  -13.3425   11.7900 C.3       3 GLC5        0.0000 
     58 CA         48.7210  -13.5920   10.0340 C.3       9 GLL5        0.0000 
     59 CA         51.3780  -12.9880   12.8000 C.3       6 GLP5        0.0000 
     60 CA         51.0225  -13.8180   10.1410 C.3       3 GLC5        0.0000 
     61 CA         49.3900  -14.5050    8.9670 C.3       9 GLL5        0.0000 
     62 CA         52.1900  -13.5260   11.7850 C.3       6 GLP5        0.0000 
     63 CA         50.4765  -11.7944    9.7706 C.3       3 GLC5        0.0000 
     64 CA         49.7030  -12.4310    7.4760 C.3       9 GLL5        0.0000 
     65 CA         51.7900  -11.3900   11.2820 C.3       6 GLP5        0.0000 
     66 CA         51.8030   -9.4842    6.5137 C.3       3 GLC5        0.0000 
     67 CA         50.5870  -11.3490    6.8060 C.3       9 GLL5        0.0000 
     68 CA         53.4490   -8.2370    6.2030 C.3       6 GLP5        0.0000 
@<TRIPOS>BOND
@<TRIPOS>SUBSTRUCTURE
     1 ALC1       43 GROUP        1 X    ALC  0     ROOT ALC X 1
     2 SEC2       46 GROUP        1 X    SEC  0     **** SEC X 2
     3 GLC5        1 GROUP        1 X    GLC  0     **** GLC X 6
     4 ALP1       45 GROUP        1 Y    ALP  0     ROOT ALP Y 8
     5 SEP2       48 GROUP        1 Y    SEP  0     **** SEP Y 9
     6 GLP5        3 GROUP        1 Y    GLP  0     **** GLP Y 13
     7 ALL1       44 GROUP        1 Z    ALL  0     ROOT ALL Z 15
     8 SEL2       47 GROUP        1 Z    SEL  0     **** SEL Z 16
     9 GLL5        2 GROUP        1 Z    GLL  0     **** GLL Z 20
@<TRIPOS>SET

