#    Name: 2v95_HCY_1_ligand
#    Modification time : Tue Mar 25 01:18:54 2014

@<TRIPOS>MOLECULE
2v95_HCY_1_ligand
   56    59     1     0     0
SMALL
NO_CHARGES


@<TRIPOS>ATOM
      1 C1         48.5820  -15.4490   11.6480 C.3       1 HCY1375     0.0000 
      2 C2         48.2050  -15.9160   13.0530 C.3       1 HCY1375     0.0000 
      3 C3         47.8450  -14.7420   13.9420 C.2       1 HCY1375     0.0000 
      4 C4         47.3990  -13.4700   13.3570 C.2       1 HCY1375     0.0000 
      5 C5         47.3320  -13.2770   12.0330 C.2       1 HCY1375     0.0000 
      6 C6         46.7390  -11.9790   11.5620 C.3       1 HCY1375     0.0000 
      7 C7         47.6030  -11.3300   10.5020 C.3       1 HCY1375     0.0000 
      8 C8         48.0930  -12.3230    9.4500 C.3       1 HCY1375     0.0000 
      9 C9         48.7210  -13.5920   10.0340 C.3       1 HCY1375     0.0000 
     10 C10        47.7780  -14.3270   11.0190 C.3       1 HCY1375     0.0000 
     11 C12        50.3200  -13.7150    8.0270 C.3       1 HCY1375     0.0000 
     12 C11        49.3900  -14.5050    8.9670 C.3       1 HCY1375     0.0000 
     13 C13        49.7030  -12.4310    7.4760 C.3       1 HCY1375     0.0000 
     14 C14        49.1530  -11.6100    8.6350 C.3       1 HCY1375     0.0000 
     15 C15        48.7450  -10.3160    7.9860 C.3       1 HCY1375     0.0000 
     16 C16        49.7270  -10.1140    6.8430 C.3       1 HCY1375     0.0000 
     17 C17        50.5870  -11.3490    6.8060 C.3       1 HCY1375     0.0000 
     18 C18        48.5830  -12.8420    6.5250 C.3       1 HCY1375     0.0000 
     19 C19        46.5210  -14.8610   10.3270 C.3       1 HCY1375     0.0000 
     20 C20        51.0570  -11.6140    5.3870 C.2       1 HCY1375     0.0000 
     21 C21        52.0670  -12.6910    5.1590 C.3       1 HCY1375     0.0000 
     22 O1         47.9230  -14.8280   15.1580 O.2       1 HCY1375     0.0000 
     23 O2         48.4470  -15.2560    8.1840 O.3       1 HCY1375     0.0000 
     24 O3         51.7500  -11.0380    7.6050 O.3       1 HCY1375     0.0000 
     25 O4         50.6650  -10.9400    4.4420 O.2       1 HCY1375     0.0000 
     26 O5         52.3370  -12.8140    3.7610 O.3       1 HCY1375     0.0000 
     27 H          48.5501  -16.3396   10.9629 H         1 HCY1375     0.0000 
     28 H          49.6658  -15.1508   11.6574 H         1 HCY1375     0.0000 
     29 H          49.0482  -16.4566   13.4868 H         1 HCY1375     0.0000 
     30 H          47.3543  -16.5966   12.9857 H         1 HCY1375     0.0000 
     31 H          47.1384  -12.7284   14.0396 H         1 HCY1375     0.0000 
     32 H          46.6355  -11.2935   12.4102 H         1 HCY1375     0.0000 
     33 H          45.7402  -12.1598   11.1500 H         1 HCY1375     0.0000 
     34 H          48.4739  -10.8599   10.9790 H         1 HCY1375     0.0000 
     35 H          47.0317  -10.5361   10.0017 H         1 HCY1375     0.0000 
     36 H          47.2872  -12.5835    8.7987 H         1 HCY1375     0.0000 
     37 H          49.5911  -13.2174   10.6870 H         1 HCY1375     0.0000 
     38 H          50.6068  -14.3669    7.1868 H         1 HCY1375     0.0000 
     39 H          51.2432  -13.4660    8.5736 H         1 HCY1375     0.0000 
     40 H          50.0472  -15.2096    9.5230 H         1 HCY1375     0.0000 
     41 H          50.0237  -11.3839    9.2810 H         1 HCY1375     0.0000 
     42 H          48.8354   -9.5090    8.6821 H         1 HCY1375     0.0000 
     43 H          47.7526  -10.3955    7.5951 H         1 HCY1375     0.0000 
     44 H          50.3314   -9.2494    7.0388 H         1 HCY1375     0.0000 
     45 H          49.1875  -10.0125    5.9211 H         1 HCY1375     0.0000 
     46 H          51.6757  -13.6317    5.5727 H         1 HCY1375     0.0000 
     47 H          52.9792  -12.4404    5.7197 H         1 HCY1375     0.0000 
     48 H          48.9244  -13.3990    5.7679 H         1 HCY1375     0.0000 
     49 H          47.8793  -13.3792    6.9901 H         1 HCY1375     0.0000 
     50 H          48.1274  -12.0480    6.1226 H         1 HCY1375     0.0000 
     51 H          46.7445  -15.5129    9.6024 H         1 HCY1375     0.0000 
     52 H          45.9156  -15.3320   10.9685 H         1 HCY1375     0.0000 
     53 H          45.9882  -14.1267    9.9065 H         1 HCY1375     0.0000 
     54 H          48.4517  -16.1730    8.5829 H         1 HCY1375     0.0000 
     55 H          52.2819  -11.8845    7.6281 H         1 HCY1375     0.0000 
     56 H          51.4374  -12.8642    3.3272 H         1 HCY1375     0.0000 
@<TRIPOS>BOND
     1    2    1 1    
     2   10    1 1    
     3   27    1 1    
     4   28    1 1    
     5    3    2 1    
     6   29    2 1    
     7   30    2 1    
     8    4    3 1    
     9   22    3 2    
    10    5    4 2    
    11   31    4 1    
    12    6    5 1    
    13   10    5 1    
    14    7    6 1    
    15   32    6 1    
    16   33    6 1    
    17    8    7 1    
    18   34    7 1    
    19   35    7 1    
    20    9    8 1    
    21   14    8 1    
    22   36    8 1    
    23   10    9 1    
    24   12    9 1    
    25   37    9 1    
    26   19   10 1    
    27   12   11 1    
    28   13   11 1    
    29   38   11 1    
    30   39   11 1    
    31   23   12 1    
    32   40   12 1    
    33   14   13 1    
    34   17   13 1    
    35   18   13 1    
    36   15   14 1    
    37   41   14 1    
    38   16   15 1    
    39   42   15 1    
    40   43   15 1    
    41   17   16 1    
    42   44   16 1    
    43   45   16 1    
    44   20   17 1    
    45   24   17 1    
    46   48   18 1    
    47   49   18 1    
    48   50   18 1    
    49   51   19 1    
    50   52   19 1    
    51   53   19 1    
    52   21   20 1    
    53   25   20 2    
    54   26   21 1    
    55   46   21 1    
    56   47   21 1    
    57   54   23 1    
    58   55   24 1    
    59   56   26 1    
@<TRIPOS>SUBSTRUCTURE
     1 HCY1375     1 GROUP   
@<TRIPOS>SET

