#    Name: 2a14_SAH_1_INTS_M
#    Modification time : Mon Mar 24 18:13:24 2014

@<TRIPOS>MOLECULE
2a14_SAH_1_INTS_M
   82     0     9     0     0
SMALL
NO_CHARGES


@<TRIPOS>ATOM
      1 O          18.9390   41.4065    6.7135 O.2       1 ALC1        0.0000 
      2 O          18.6650   40.4080    7.5850 O.2       7 ALL1        0.0000 
      3 O          19.2130   42.4050    5.8420 O.2       4 ALP1        0.0000 
      4 O          17.8565   41.1045    8.4405 O.2       1 ALC1        0.0000 
      5 O          17.0480   41.8010    9.2960 O.2       4 ALP1        0.0000 
      6 CA         20.9015   37.7700    7.9635 C.3       3 GLC5        0.0000 
      7 CA         19.8600   39.6850    8.1230 C.3       9 GLL5        0.0000 
      8 CA         21.9430   35.8550    7.8040 C.3       6 GLP5        0.0000 
      9 CA         19.3780   41.6210   10.9265 C.3       3 GLC5        0.0000 
     10 CA         20.8660   41.6720    9.5290 C.3       9 GLL5        0.0000 
     11 CA         17.8900   41.5700   12.3240 C.3       6 GLP5        0.0000 
     12 CA         19.7590   43.4035    8.7820 C.3       3 GLC5        0.0000 
     13 CA         18.6520   45.1350    8.0350 C.3       6 GLP5        0.0000 
     14 CA         24.6315   42.1595    9.5705 C.3       3 GLC5        0.0000 
     15 CA         22.4720   42.3730   10.0020 C.3       9 GLL5        0.0000 
     16 CA         26.7910   41.9460    9.1390 C.3       6 GLP5        0.0000 
     17 CA         22.9735   40.8195   10.6385 C.3       3 GLC5        0.0000 
     18 CA         23.4750   39.2660   11.2750 C.3       6 GLP5        0.0000 
     19 N          17.5050   37.6020   10.0215 N.am      2 SEC2        0.0000 
     20 N          18.2580   38.5000    9.4550 N.am      8 SEL2        0.0000 
     21 N          16.7520   36.7040   10.5880 N.am      5 SEP2        0.0000 
     22 N          21.2280   38.9085   10.8250 N.am      2 SEC2        0.0000 
     23 N          20.3010   38.3090   10.0770 N.am      8 SEL2        0.0000 
     24 N          22.1550   39.5080   11.5730 N.am      5 SEP2        0.0000 
     25 N          20.0100   37.3735   10.9660 N.am      2 SEC2        0.0000 
     26 N          19.7190   36.4380   11.8550 N.am      5 SEP2        0.0000 
     27 CA         20.4570   44.8040    9.5290 C.3       3 GLC5        0.0000 
     28 CA         22.2510   44.1150    9.5370 C.3       9 GLL5        0.0000 
     29 CA         18.6630   45.4930    9.5210 C.3       6 GLP5        0.0000 
     30 CA         21.9850   45.1325   11.2120 C.3       3 GLC5        0.0000 
     31 CA         21.7190   46.1500   12.8870 C.3       6 GLP5        0.0000 
     32 CA         20.4775   44.7570    8.0350 C.3       3 GLC5        0.0000 
     33 CA         22.3030   44.3790    8.0350 C.3       9 GLL5        0.0000 
     34 CA         25.0200   45.4810    8.3850 C.3       3 GLC5        0.0000 
     35 CA         23.6620   44.1040    7.3730 C.3       9 GLL5        0.0000 
     36 CA         26.3780   46.8580    9.3970 C.3       6 GLP5        0.0000 
     37 CA         25.2265   43.0250    8.2560 C.3       3 GLC5        0.0000 
     38 CA         23.2470   42.2605    6.2250 C.3       3 GLC5        0.0000 
     39 CA         22.8320   40.4170    5.0770 C.3       6 GLP5        0.0000 
     40 O          22.8620   43.3945    5.1830 O.2       1 ALC1        0.0000 
     41 O          23.4900   43.1180    6.3710 O.2       7 ALL1        0.0000 
     42 O          22.2340   43.6710    3.9950 O.2       4 ALP1        0.0000 
     43 CA         25.5950   46.2490    7.5110 C.3       3 GLC5        0.0000 
     44 CA         24.0720   45.4500    6.7810 C.3       9 GLL5        0.0000 
     45 CA         27.1180   47.0480    8.2410 C.3       6 GLP5        0.0000 
     46 N          26.0475   45.7030    5.0470 N.am      2 SEC2        0.0000 
     47 N          24.7760   45.3980    5.5510 N.am      8 SEL2        0.0000 
     48 N          27.3190   46.0080    4.5430 N.am      5 SEP2        0.0000 
     49 O          23.5050   44.5345    4.7730 O.2       1 ALC1        0.0000 
     50 O          24.7760   45.3980    5.5510 O.2       7 ALL1        0.0000 
     51 O          24.5550   44.6565    4.4870 O.2       1 ALC1        0.0000 
     52 O          24.3340   43.9150    3.4230 O.2       4 ALP1        0.0000 
     53 CA         20.6745   45.6160    7.3295 C.3       3 GLC5        0.0000 
     54 CA         22.6970   46.0970    6.6240 C.3       9 GLL5        0.0000 
     55 CA         20.8560   51.0480    2.9515 C.3       3 GLC5        0.0000 
     56 CA         21.4630   50.4500    4.8180 C.3       9 GLL5        0.0000 
     57 CA         20.2490   51.6460    1.0850 C.3       6 GLP5        0.0000 
     58 CA         19.5645   51.2515    5.2405 C.3       3 GLC5        0.0000 
     59 CA         17.6660   52.0530    5.6630 C.3       6 GLP5        0.0000 
     60 O          21.3125   52.7760    3.7780 O.2       1 ALC1        0.0000 
     61 O          21.7140   51.7710    4.8460 O.2       7 ALL1        0.0000 
     62 O          20.9110   53.7810    2.7100 O.2       4 ALP1        0.0000 
     63 N          19.4800   50.9265    3.3660 N.am      2 SEC2        0.0000 
     64 N          20.4740   49.9560    4.0020 N.am      8 SEL2        0.0000 
     65 N          18.4860   51.8970    2.7300 N.am      5 SEP2        0.0000 
     66 CA         19.6000   46.4425    4.1450 C.3       3 GLC5        0.0000 
     67 CA         20.1930   48.6000    3.9460 C.3       9 GLL5        0.0000 
     68 CA         19.0070   44.2850    4.3440 C.3       6 GLP5        0.0000 
     69 CA         22.0960   48.5165    3.3555 C.3       3 GLC5        0.0000 
     70 CA         23.9990   48.4330    2.7650 C.3       6 GLP5        0.0000 
     71 CA         19.8080   47.7580    2.3755 C.3       3 GLC5        0.0000 
     72 CA         19.4230   46.9160    0.8050 C.3       6 GLP5        0.0000 
     73 CA         20.2210   50.1230    2.5155 C.3       3 GLC5        0.0000 
     74 CA         18.4910   49.3325    4.1635 C.3       3 GLC5        0.0000 
     75 CA         16.7890   50.0650    4.3810 C.3       6 GLP5        0.0000 
     76 CA         21.6427   40.2848    6.6742 C.3       3 GLC5        0.0000 
     77 CA         21.0470   40.6200    8.4200 C.3       9 GLL5        0.0000 
     78 CA         22.2157   40.2060   10.1248 C.3       3 GLC5        0.0000 
     79 CA         22.9237   48.7645    4.0751 C.3       3 GLC5        0.0000 
     80 CA         22.1770   49.5520    5.6150 C.3       9 GLL5        0.0000 
     81 CA         21.0078   49.9470    6.7106 C.3       3 GLC5        0.0000 
     82 CA         20.1670   50.7980    8.0360 C.3       6 GLP5        0.0000 
@<TRIPOS>BOND
@<TRIPOS>SUBSTRUCTURE
     1 ALC1        1 GROUP        1 X    ALC  0     ROOT ALC X 1
     2 SEC2       19 GROUP        1 X    SEC  0     **** SEC X 2
     3 GLC5        6 GROUP        1 X    GLC  0     **** GLC X 6
     4 ALP1        3 GROUP        1 Y    ALP  0     ROOT ALP Y 8
     5 SEP2       21 GROUP        1 Y    SEP  0     **** SEP Y 9
     6 GLP5        8 GROUP        1 Y    GLP  0     **** GLP Y 13
     7 ALL1        2 GROUP        1 Z    ALL  0     ROOT ALL Z 15
     8 SEL2       20 GROUP        1 Z    SEL  0     **** SEL Z 16
     9 GLL5        7 GROUP        1 Z    GLL  0     **** GLL Z 20
@<TRIPOS>SET

