#    Name: 2a14_SAH_1_ligand
#    Modification time : Mon Mar 24 18:13:24 2014

@<TRIPOS>MOLECULE
2a14_SAH_1_ligand
   46    48     1     0     0
SMALL
NO_CHARGES


@<TRIPOS>ATOM
      1 N          18.6650   40.4080    7.5850 N.4       1 SAH4001     0.0000 
      2 CA         19.8600   39.6850    8.1230 C.3       1 SAH4001     0.0000 
      3 CB         21.0470   40.6200    8.4200 C.3       1 SAH4001     0.0000 
      4 CG         20.8660   41.6720    9.5290 C.3       1 SAH4001     0.0000 
      5 SD         22.4720   42.3730   10.0020 S.3       1 SAH4001     0.0000 
      6 C          19.4580   38.7810    9.3020 C.2       1 SAH4001     0.0000 
      7 O          18.2580   38.5000    9.4550 O.co2     1 SAH4001     0.0000 
      8 OXT        20.3010   38.3090   10.0770 O.co2     1 SAH4001     0.0000 
      9 C5'        22.2510   44.1150    9.5370 C.3       1 SAH4001     0.0000 
     10 C4'        22.3030   44.3790    8.0350 C.3       1 SAH4001     0.0000 
     11 O4'        22.0280   45.7600    7.8240 O.3       1 SAH4001     0.0000 
     12 C3'        23.6620   44.1040    7.3730 C.3       1 SAH4001     0.0000 
     13 O3'        23.4900   43.1180    6.3710 O.3       1 SAH4001     0.0000 
     14 C2'        24.0720   45.4500    6.7810 C.3       1 SAH4001     0.0000 
     15 O2'        24.7760   45.3980    5.5510 O.3       1 SAH4001     0.0000 
     16 C1'        22.6970   46.0970    6.6240 C.3       1 SAH4001     0.0000 
     17 N9         22.7210   47.5470    6.4220 N.pl3     1 SAH4001     0.0000 
     18 C8         23.5110   48.4940    7.0180 C.2       1 SAH4001     0.0000 
     19 N7         23.1790   49.7030    6.5120 N.2       1 SAH4001     0.0000 
     20 C5         22.1770   49.5520    5.6150 C.ar      1 SAH4001     0.0000 
     21 C6         21.4630   50.4500    4.8180 C.ar      1 SAH4001     0.0000 
     22 N6         21.7140   51.7710    4.8460 N.pl3     1 SAH4001     0.0000 
     23 N1         20.4740   49.9560    4.0020 N.ar      1 SAH4001     0.0000 
     24 C2         20.1930   48.6000    3.9460 C.ar      1 SAH4001     0.0000 
     25 N3         20.9050   47.7190    4.7350 N.ar      1 SAH4001     0.0000 
     26 C4         21.8770   48.1910    5.5540 C.ar      1 SAH4001     0.0000 
     27 H          20.2053   38.9854    7.3074 H         1 SAH4001     0.0000 
     28 H          21.3237   41.1477    7.4759 H         1 SAH4001     0.0000 
     29 H          21.9349   39.9919    8.6720 H         1 SAH4001     0.0000 
     30 H          20.5133   41.2652   10.4431 H         1 SAH4001     0.0000 
     31 H          20.3241   42.5280    9.2144 H         1 SAH4001     0.0000 
     32 H          23.0455   44.5997   10.0864 H         1 SAH4001     0.0000 
     33 H          21.2944   44.3496    9.9818 H         1 SAH4001     0.0000 
     34 H          21.5568   43.7754    7.5435 H         1 SAH4001     0.0000 
     35 H          24.3456   43.8381    8.1313 H         1 SAH4001     0.0000 
     36 H          24.5743   45.9990    7.5582 H         1 SAH4001     0.0000 
     37 H          22.2090   45.5990    5.7881 H         1 SAH4001     0.0000 
     38 H          24.1832   48.3186    7.6812 H         1 SAH4001     0.0000 
     39 H          22.4637   52.0639    5.4393 H         1 SAH4001     0.0000 
     40 H          21.1284   52.3424    4.2710 H         1 SAH4001     0.0000 
     41 H          19.4554   48.2534    3.3174 H         1 SAH4001     0.0000 
     42 H          18.8721   40.8824    6.7294 H         1 SAH4001     0.0000 
     43 H          17.9064   39.7838    7.3979 H         1 SAH4001     0.0000 
     44 H          18.3269   41.0959    8.2272 H         1 SAH4001     0.0000 
     45 H          23.0131   43.5858    5.6269 H         1 SAH4001     0.0000 
     46 H          24.2698   44.7424    4.9907 H         1 SAH4001     0.0000 
@<TRIPOS>BOND
     1    2    1 1    
     2   42    1 1    
     3   43    1 1    
     4   44    1 1    
     5    3    2 1    
     6    6    2 1    
     7   27    2 1    
     8    4    3 1    
     9   28    3 1    
    10   29    3 1    
    11    5    4 1    
    12   30    4 1    
    13   31    4 1    
    14    9    5 1    
    15    7    6 ar   
    16    8    6 ar   
    17   10    9 1    
    18   32    9 1    
    19   33    9 1    
    20   11   10 1    
    21   12   10 1    
    22   34   10 1    
    23   16   11 1    
    24   13   12 1    
    25   14   12 1    
    26   35   12 1    
    27   45   13 1    
    28   15   14 1    
    29   16   14 1    
    30   36   14 1    
    31   46   15 1    
    32   17   16 1    
    33   37   16 1    
    34   18   17 1    
    35   26   17 1    
    36   19   18 2    
    37   38   18 1    
    38   20   19 1    
    39   21   20 ar   
    40   26   20 ar   
    41   22   21 1    
    42   23   21 ar   
    43   39   22 1    
    44   40   22 1    
    45   24   23 ar   
    46   25   24 ar   
    47   41   24 1    
    48   26   25 ar   
@<TRIPOS>SUBSTRUCTURE
     1 SAH4001     1 GROUP   
@<TRIPOS>SET

