#    Name: 3ACX_1_CAVITY_N1_6.mol2
#    Modification time : Tue Mar 11 07:51:19 2014

@<TRIPOS>MOLECULE
3ACX_1_CAVITY_N1_6.mol2
   78     0     6     0     0
SMALL
NO_CHARGES


@<TRIPOS>ATOM
      1 CA         57.1233   15.2123   51.4719 C.3       5 GLY6        0.0000 
      2 CA         58.6786   13.2041   52.0181 C.3       5 GLY6        0.0000 
      3 CA         56.9934   13.8341   50.8942 C.3       5 GLY6        0.0000 
      4 CZ         57.1983   13.2433   52.2576 C.ar      4 PHE5        0.0000 
      5 CA         55.5131   13.8732   51.1337 C.3       5 GLY6        0.0000 
      6 DU         55.7181   13.2824   52.4971 H         6 CUB7        0.0000 
      7 CZ         55.9231   12.6916   53.8605 C.ar      4 PHE5        0.0000 
      8 CA         54.0329   13.9124   51.3732 C.3       5 GLY6        0.0000 
      9 CA         54.2379   13.3216   52.7366 C.3       5 GLY6        0.0000 
     10 CZ         54.4428   12.7307   54.1000 C.ar      4 PHE5        0.0000 
     11 CA         52.9626   12.7699   54.3395 C.3       5 GLY6        0.0000 
     12 CZ         53.1675   12.1790   55.7029 C.ar      4 PHE5        0.0000 
     13 CA         58.5487   11.8259   51.4404 C.3       5 GLY6        0.0000 
     14 CZ         58.7536   11.2351   52.8038 C.ar      4 PHE5        0.0000 
     15 N          56.8635   12.4559   50.3165 N.2       2 ALA2        0.0000 
     16 N          57.0684   11.8651   51.6799 N.2       2 ALA2        0.0000 
     17 CZ         57.2734   11.2743   53.0433 C.ar      4 PHE5        0.0000 
     18 CZ         57.4784   10.6834   54.4067 C.ar      4 PHE5        0.0000 
     19 CA         55.3832   12.4951   50.5560 C.3       5 GLY6        0.0000 
     20 N          55.5882   11.9042   51.9194 N.2       2 ALA2        0.0000 
     21 DU         55.7931   11.3134   53.2828 H         6 CUB7        0.0000 
     22 OG         55.9981   10.7226   54.6462 O.2       1 SER1        0.0000 
     23 N          54.1079   11.9434   52.1589 N.2       2 ALA2        0.0000 
     24 DU         54.3129   11.3525   53.5223 H         6 CUB7        0.0000 
     25 OG         54.5179   10.7617   54.8857 O.2       1 SER1        0.0000 
     26 N          52.6277   11.9825   52.3984 N.2       2 ALA2        0.0000 
     27 DU         52.8327   11.3917   53.7618 H         6 CUB7        0.0000 
     28 CZ         53.0376   10.8009   55.1252 C.ar      4 PHE5        0.0000 
     29 CA         51.1475   12.0217   52.6378 C.3       5 GLY6        0.0000 
     30 CA         51.3524   11.4308   54.0013 C.3       5 GLY6        0.0000 
     31 O          58.6237    9.8569   52.2261 O.2       2 ALA2        0.0000 
     32 OG         59.0336    8.6753   54.9530 O.2       1 SER1        0.0000 
     33 N          56.9385   10.4869   51.1022 N.2       2 ALA2        0.0000 
     34 N          57.1435    9.8961   52.4656 N.2       2 ALA2        0.0000 
     35 OG         57.3484    9.3052   53.8290 O.2       1 SER1        0.0000 
     36 OG         57.5534    8.7144   55.1925 O.2       1 SER1        0.0000 
     37 N          55.4583   10.5260   51.3417 N.2       2 ALA2        0.0000 
     38 DU         55.6632    9.9352   52.7051 H         6 CUB7        0.0000 
     39 OG         55.8682    9.3444   54.0685 O.2       1 SER1        0.0000 
     40 N          53.9780   10.5652   51.5812 N.2       2 ALA2        0.0000 
     41 DU         54.1830    9.9744   52.9446 H         6 CUB7        0.0000 
     42 OG         54.3880    9.3835   54.3080 O.2       1 SER1        0.0000 
     43 N          52.4978   10.6043   51.8207 N.2       2 ALA2        0.0000 
     44 DU         52.7028   10.0135   53.1841 H         6 CUB7        0.0000 
     45 DU         52.9077    9.4227   54.5475 H         6 CUB7        0.0000 
     46 N          51.0176   10.6435   52.0602 N.2       2 ALA2        0.0000 
     47 N          51.2225   10.0526   53.4236 N.2       2 ALA2        0.0000 
     48 N          51.4275    9.4618   54.7870 N.2       2 ALA2        0.0000 
     49 N          57.2185    7.9271   53.2513 N.2       2 ALA2        0.0000 
     50 N          57.4235    7.3362   54.6148 N.2       2 ALA2        0.0000 
     51 N          55.3284    9.1479   50.7640 N.2       2 ALA2        0.0000 
     52 N          55.5333    8.5570   52.1274 N.2       2 ALA2        0.0000 
     53 N          55.7383    7.9662   53.4908 N.2       2 ALA2        0.0000 
     54 N          53.6432    9.7778   49.6401 N.2       2 ALA2        0.0000 
     55 N          53.8481    9.1870   51.0035 N.2       2 ALA2        0.0000 
     56 DU         54.0531    8.5962   52.3669 H         6 CUB7        0.0000 
     57 N          54.2581    8.0054   53.7303 N.2       2 ALA2        0.0000 
     58 N          52.1629    9.8170   49.8796 N.2       2 ALA2        0.0000 
     59 NZ         52.3679    9.2262   51.2430 N.2       3 LYS4        0.0000 
     60 NZ         52.5728    8.6353   52.6064 N.2       3 LYS4        0.0000 
     61 CA         52.7778    8.0445   53.9698 C.3       5 GLY6        0.0000 
     62 N          57.2936    5.9581   54.0371 N.2       2 ALA2        0.0000 
     63 N          55.1985    7.7697   50.1863 N.2       2 ALA2        0.0000 
     64 N          55.4034    7.1789   51.5497 N.2       2 ALA2        0.0000 
     65 N          55.6084    6.5880   52.9131 N.2       2 ALA2        0.0000 
     66 N          53.5133    8.3997   49.0624 N.2       2 ALA2        0.0000 
     67 NZ         53.7182    7.8088   50.4258 N.2       3 LYS4        0.0000 
     68 NZ         53.9232    7.2180   51.7892 N.2       3 LYS4        0.0000 
     69 N          54.1281    6.6272   53.1526 N.2       2 ALA2        0.0000 
     70 CA         52.0330    8.4388   49.3019 C.3       5 GLY6        0.0000 
     71 NZ         52.6479    6.6663   53.3921 N.2       3 LYS4        0.0000 
     72 O          55.0685    6.3915   49.6086 O.2       2 ALA2        0.0000 
     73 N          55.2735    5.8007   50.9720 N.2       2 ALA2        0.0000 
     74 N          55.4785    5.2098   52.3354 N.2       2 ALA2        0.0000 
     75 N          55.6834    4.6190   53.6989 N.2       2 ALA2        0.0000 
     76 NZ         53.5883    6.4306   49.8481 N.2       3 LYS4        0.0000 
     77 NZ         53.7933    5.8398   51.2115 N.2       3 LYS4        0.0000 
     78 NZ         53.9982    5.2490   52.5749 N.2       3 LYS4        0.0000 
@<TRIPOS>BOND
@<TRIPOS>SUBSTRUCTURE
     1 SER1       22 GROUP   
     2 ALA2       15 GROUP   
     3 LYS4       59 GROUP   
     4 PHE5        4 GROUP   
     5 GLY6        1 GROUP   
     6 CUB7        6 GROUP   
@<TRIPOS>SET

