#    Name: 3acx_673_1_INTS_M
#    Modification time : Tue Mar 25 11:42:53 2014

@<TRIPOS>MOLECULE
3acx_673_1_INTS_M
   79     0     3     0     0
SMALL
NO_CHARGES


@<TRIPOS>ATOM
      1 CA         56.5860   15.5035   59.2370 C.3       1 GLC5        0.0000 
      2 CA         56.3780   16.2930   57.5430 C.3       3 GLL5        0.0000 
      3 CA         56.7940   14.7140   60.9310 C.3       2 GLP5        0.0000 
      4 CA         57.9255   15.0150   58.1090 C.3       1 GLC5        0.0000 
      5 CA         59.4730   13.7370   58.6750 C.3       2 GLP5        0.0000 
      6 CA         55.6695   17.2345   59.1765 C.3       1 GLC5        0.0000 
      7 CA         54.9610   18.1760   60.8100 C.3       2 GLP5        0.0000 
      8 CA         51.1560    8.6110   55.5125 C.3       1 GLC5        0.0000 
      9 CA         52.6540    8.7070   53.9290 C.3       3 GLL5        0.0000 
     10 CA         49.6580    8.5150   57.0960 C.3       2 GLP5        0.0000 
     11 CA         51.1045    7.5090   53.6645 C.3       1 GLC5        0.0000 
     12 CA         49.5550    6.3110   53.4000 C.3       2 GLP5        0.0000 
     13 CA         50.8940   11.7545   55.1595 C.3       1 GLC5        0.0000 
     14 CA         52.5750   10.8840   55.2050 C.3       3 GLL5        0.0000 
     15 CA         49.2130   12.6250   55.1140 C.3       2 GLP5        0.0000 
     16 CA         51.1165    9.6995   56.1505 C.3       1 GLC5        0.0000 
     17 CA         58.3400   14.6440   56.8025 C.3       1 GLC5        0.0000 
     18 CA         56.9430   15.7410   56.4070 C.3       3 GLL5        0.0000 
     19 CA         59.7370   13.5470   57.1980 C.3       2 GLP5        0.0000 
     20 CA         59.2760   23.6160   54.9000 C.3       1 GLC5        0.0000 
     21 CA         58.2420   22.3580   53.7270 C.3       3 GLL5        0.0000 
     22 CA         60.3100   24.8740   56.0730 C.3       2 GLP5        0.0000 
     23 CA         56.3595   22.8465   51.3195 C.3       1 GLC5        0.0000 
     24 CA         57.4630   22.0760   52.6320 C.3       3 GLL5        0.0000 
     25 CA         55.2560   23.6170   50.0070 C.3       2 GLP5        0.0000 
     26 CA         59.7695   22.4705   55.5815 C.3       1 GLC5        0.0000 
     27 CA         58.5460   21.3310   54.6090 C.3       3 GLL5        0.0000 
     28 CA         60.9930   23.6100   56.5540 C.3       2 GLP5        0.0000 
     29 CA         56.7425   22.0020   50.7870 C.3       1 GLC5        0.0000 
     30 CA         57.0470   20.7730   52.4150 C.3       3 GLL5        0.0000 
     31 CA         56.4380   23.2310   49.1590 C.3       2 GLP5        0.0000 
     32 CA         53.9150   16.3950   52.0100 C.3       1 GLC5        0.0000 
     33 CA         55.8350   16.6960   51.7200 C.3       3 GLL5        0.0000 
     34 CA         51.9950   16.0940   52.3000 C.3       2 GLP5        0.0000 
     35 CA         57.6165   13.9700   55.8650 C.3       1 GLC5        0.0000 
     36 CA         56.2240   15.3030   55.2830 C.3       3 GLL5        0.0000 
     37 CA         59.0090   12.6370   56.4470 C.3       2 GLP5        0.0000 
     38 CA         55.7420   13.8060   56.4285 C.3       1 GLC5        0.0000 
     39 CA         55.2600   12.3090   57.5740 C.3       2 GLP5        0.0000 
     40 CA         54.9305   12.0915   55.3905 C.3       1 GLC5        0.0000 
     41 CA         54.6010   11.8740   53.2070 C.3       3 GLL5        0.0000 
     42 CA         58.1148   17.0375   57.5310 C.3       1 GLC5        0.0000 
     43 CA         59.5690   18.0580   58.0870 C.3       2 GLP5        0.0000 
     44 CA         55.5622   14.6300   57.5865 C.3       1 GLC5        0.0000 
     45 CA         54.4640   13.2430   58.1980 C.3       2 GLP5        0.0000 
     46 CA         55.4793   17.5950   56.3350 C.3       1 GLC5        0.0000 
     47 CA         54.2980   19.1730   55.6950 C.3       2 GLP5        0.0000 
     48 CA         54.0385   10.7043   56.3090 C.3       1 GLC5        0.0000 
     49 CA         55.0820   10.9770   57.8600 C.3       2 GLP5        0.0000 
     50 CA         59.3693   21.3385   52.4692 C.3       1 GLC5        0.0000 
     51 CA         60.8860   20.4600   51.7590 C.3       2 GLP5        0.0000 
     52 CA         59.6100   20.5695   53.1270 C.3       1 GLC5        0.0000 
     53 CA         59.0500   20.3490   52.2968 C.3       1 GLC5        0.0000 
     54 CA         56.0247   19.5190   54.7562 C.3       1 GLC5        0.0000 
     55 CA         57.3810   19.7030   53.2540 C.3       3 GLL5        0.0000 
     56 CA         57.4295   22.0469   55.6127 C.3       1 GLC5        0.0000 
     57 CA         58.1220   20.0270   54.3810 C.3       3 GLL5        0.0000 
     58 CA         56.6010   23.1580   56.9510 C.3       2 GLP5        0.0000 
     59 CA         54.8263   18.7585   51.4855 C.3       1 GLC5        0.0000 
     60 CA         56.3720   17.9780   51.8460 C.3       3 GLL5        0.0000 
     61 CA         53.5490   20.1800   51.1880 C.3       2 GLP5        0.0000 
     62 CA         56.6578   17.2595   50.0945 C.3       1 GLC5        0.0000 
     63 CA         57.2120   17.1820   48.4060 C.3       2 GLP5        0.0000 
     64 CA         57.9222   16.6555   51.8385 C.3       1 GLC5        0.0000 
     65 CA         59.7410   15.9740   51.8940 C.3       2 GLP5        0.0000 
     66 CA         55.5778   18.5625   54.6497 C.3       1 GLC5        0.0000 
     67 CA         56.8940   18.3930   53.0660 C.3       3 GLL5        0.0000 
     68 CA         58.2993   16.9630   52.7493 C.3       1 GLC5        0.0000 
     69 CA         56.8210   17.5110   54.1430 C.3       3 GLL5        0.0000 
     70 CA         55.2750   17.4688   55.1805 C.3       1 GLC5        0.0000 
     71 CA         56.2800   16.2260   54.0490 C.3       3 GLL5        0.0000 
     72 CA         55.1627   13.3733   50.0270 C.3       1 GLC5        0.0000 
     73 CA         55.9130   13.5920   51.9260 C.3       3 GLL5        0.0000 
     74 CA         54.8520   13.7780   48.1830 C.3       2 GLP5        0.0000 
     75 CA         55.3015   19.7477   52.0691 C.3       1 GLC5        0.0000 
     76 CA         57.8910   15.9975   52.6600 C.3       1 GLC5        0.0000 
     77 CA         55.8020   15.8160   52.8030 C.3       3 GLL5        0.0000 
     78 CA         54.1920   16.0046   53.7518 C.3       1 GLC5        0.0000 
     79 CA         52.3570   16.2190   53.7690 C.3       2 GLP5        0.0000 
@<TRIPOS>BOND
@<TRIPOS>SUBSTRUCTURE
     1 GLC5        1 GROUP        1 X    GLC  0     ROOT GLC X 6
     2 GLP5        3 GROUP        1 Y    GLP  0     ROOT GLP Y 13
     3 GLL5        2 GROUP        1 Z    GLL  0     ROOT GLL Z 20
@<TRIPOS>SET

