#    Name: 3acx_673_1_ligand
#    Modification time : Tue Mar 25 11:42:53 2014

@<TRIPOS>MOLECULE
3acx_673_1_ligand
   47    48     1     0     0
SMALL
NO_CHARGES


@<TRIPOS>ATOM
      1 CAA        56.3780   16.2930   57.5430 C.2       1 6731001     0.0000 
      2 CAB        52.6540    8.7070   53.9290 C.3       1 6731001     0.0000 
      3 CAC        52.5750   10.8840   55.2050 C.3       1 6731001     0.0000 
      4 CAD        56.9430   15.7410   56.4070 C.2       1 6731001     0.0000 
      5 CAE        58.2420   22.3580   53.7270 C.ar      1 6731001     0.0000 
      6 CAF        57.4630   22.0760   52.6320 C.ar      1 6731001     0.0000 
      7 CAG        58.5460   21.3310   54.6090 C.ar      1 6731001     0.0000 
      8 CAH        57.0470   20.7730   52.4150 C.ar      1 6731001     0.0000 
      9 CAI        58.1220   20.0270   54.3810 C.ar      1 6731001     0.0000 
     10 CAJ        56.3720   17.9780   51.8460 C.ar      1 6731001     0.0000 
     11 CAK        55.8350   16.6960   51.7200 C.ar      1 6731001     0.0000 
     12 CAL        56.8210   17.5110   54.1430 C.ar      1 6731001     0.0000 
     13 CAM        56.2240   15.3030   55.2830 C.3       1 6731001     0.0000 
     14 CAN        55.0340   12.3450   51.8160 C.3       1 6731001     0.0000 
     15 CAO        54.6010   11.8740   53.2070 C.3       1 6731001     0.0000 
     16 CAP        55.9130   13.5920   51.9260 C.3       1 6731001     0.0000 
     17 NAQ        53.7210   10.7030   53.0610 N.4       1 6731001     0.0000 
     18 OAR        55.2290   14.5830   52.6740 O.3       1 6731001     0.0000 
     19 CAS        57.3810   19.7030   53.2540 C.ar      1 6731001     0.0000 
     20 CAT        56.8940   18.3930   53.0660 C.ar      1 6731001     0.0000 
     21 CAU        56.2800   16.2260   54.0490 C.ar      1 6731001     0.0000 
     22 CAV        55.8020   15.8160   52.8030 C.ar      1 6731001     0.0000 
     23 CAW        53.4150    9.9790   54.3110 C.3       1 6731001     0.0000 
     24 H          57.9996   15.6372   56.3746 H         1 6731001     0.0000 
     25 H          58.5940   23.3030   53.8948 H         1 6731001     0.0000 
     26 H          57.1891   22.8190   51.9782 H         1 6731001     0.0000 
     27 H          59.1041   21.5406   55.4609 H         1 6731001     0.0000 
     28 H          56.4462   20.5693   51.5744 H         1 6731001     0.0000 
     29 H          58.3638   19.2865   55.0641 H         1 6731001     0.0000 
     30 H          56.3805   18.6114   51.0383 H         1 6731001     0.0000 
     31 H          55.4542   16.3921   50.8068 H         1 6731001     0.0000 
     32 H          57.1914   17.8273   55.0738 H         1 6731001     0.0000 
     33 H          55.1350   15.1547   55.5175 H         1 6731001     0.0000 
     34 H          56.5691   14.2911   54.9367 H         1 6731001     0.0000 
     35 H          54.1522   12.5779   51.2260 H         1 6731001     0.0000 
     36 H          55.5939   11.5526   51.3276 H         1 6731001     0.0000 
     37 H          54.0801   12.6903   53.7003 H         1 6731001     0.0000 
     38 H          55.4907   11.6206   53.7772 H         1 6731001     0.0000 
     39 H          56.1405   13.9274   50.9082 H         1 6731001     0.0000 
     40 H          56.8538   13.2929   52.4011 H         1 6731001     0.0000 
     41 H          54.3147    9.7127   54.8112 H         1 6731001     0.0000 
     42 H          53.2014    8.1082   53.3443 H         1 6731001     0.0000 
     43 H          52.3947    8.1734   54.7340 H         1 6731001     0.0000 
     44 H          51.8120    8.9135   53.4306 H         1 6731001     0.0000 
     45 H          53.0683   11.7157   55.4598 H         1 6731001     0.0000 
     46 H          51.7300   11.1710   54.7538 H         1 6731001     0.0000 
     47 H          52.3128   10.4267   56.0548 H         1 6731001     0.0000 
@<TRIPOS>BOND
     1    4    1 2    
     2   23    2 1    
     3   42    2 1    
     4   43    2 1    
     5   44    2 1    
     6   23    3 1    
     7   45    3 1    
     8   46    3 1    
     9   47    3 1    
    10   13    4 1    
    11   24    4 1    
    12    6    5 ar   
    13    7    5 ar   
    14   25    5 1    
    15    8    6 ar   
    16   26    6 1    
    17    9    7 ar   
    18   27    7 1    
    19   19    8 ar   
    20   28    8 1    
    21   19    9 ar   
    22   29    9 1    
    23   11   10 ar   
    24   20   10 ar   
    25   30   10 1    
    26   22   11 ar   
    27   31   11 1    
    28   20   12 ar   
    29   21   12 ar   
    30   32   12 1    
    31   21   13 1    
    32   33   13 1    
    33   34   13 1    
    34   15   14 1    
    35   16   14 1    
    36   35   14 1    
    37   36   14 1    
    38   17   15 1    
    39   37   15 1    
    40   38   15 1    
    41   18   16 1    
    42   39   16 1    
    43   40   16 1    
    44   23   17 1    
    45   22   18 1    
    46   20   19 1    
    47   22   21 ar   
    48   41   23 1    
@<TRIPOS>SUBSTRUCTURE
     1 6731001     1 GROUP   
@<TRIPOS>SET

