#    Name: 3ba8_3B8_2_INTS_M
#    Modification time : Mon Mar 24 19:12:23 2014

@<TRIPOS>MOLECULE
3ba8_3B8_2_INTS_M
   44     0     9     0     0
SMALL
NO_CHARGES


@<TRIPOS>ATOM
      1 CA         23.4550   37.5140   55.6160 C.3       3 GLC5        0.0000 
      2 CA         22.6600   37.7540   53.7940 C.3       9 GLL5        0.0000 
      3 CA         24.2500   37.2740   57.4380 C.3       6 GLP5        0.0000 
      4 CA         22.7465   34.1400   53.2705 C.3       3 GLC5        0.0000 
      5 CA         22.4010   35.5260   52.0760 C.3       9 GLL5        0.0000 
      6 CA         23.0920   32.7540   54.4650 C.3       6 GLP5        0.0000 
      7 CA         19.1425   35.9775   53.3105 C.3       3 GLC5        0.0000 
      8 CA         21.2350   36.1510   52.6270 C.3       9 GLL5        0.0000 
      9 CA         17.0500   35.8040   53.9940 C.3       6 GLP5        0.0000 
     10 N          17.3100   29.7660   48.4395 N.am      2 SEC2        0.0000 
     11 N          17.5830   31.0470   48.6850 N.am      8 SEL2        0.0000 
     12 N          17.0370   28.4850   48.1940 N.am      5 SEP2        0.0000 
     13 N          24.5745   33.9035   50.0950 N.am      2 SEC2        0.0000 
     14 N          23.1740   33.7550   50.6630 N.am      8 SEL2        0.0000 
     15 N          25.9750   34.0520   49.5270 N.am      5 SEP2        0.0000 
     16 O          19.6135   29.3370   47.6610 O.2       1 ALC1        0.0000 
     17 O          19.7550   30.4290   48.6320 O.2       7 ALL1        0.0000 
     18 O          19.4720   28.2450   46.6900 O.2       4 ALP1        0.0000 
     19 CA         17.5745   34.5120   52.2980 C.3       3 GLC5        0.0000 
     20 CA         18.0990   33.2200   50.6020 C.3       9 GLL5        0.0000 
     21 CA         19.0805   33.6605   53.3105 C.3       3 GLC5        0.0000 
     22 CA         19.7580   34.6210   51.5480 C.3       9 GLL5        0.0000 
     23 CA         18.4030   32.7000   55.0730 C.3       6 GLP5        0.0000 
     24 CA         18.4040   35.2125   52.7710 C.3       3 GLC5        0.0000 
     25 N          17.6670   35.3815   52.0310 N.am      2 SEC2        0.0000 
     26 N          18.4370   34.2870   51.3890 N.am      8 SEL2        0.0000 
     27 N          16.8970   36.4760   52.6730 N.am      5 SEP2        0.0000 
     28 O          15.7090   33.9785   51.0385 O.2       1 ALC1        0.0000 
     29 O          16.7400   32.9950   50.5300 O.2       7 ALL1        0.0000 
     30 O          14.6780   34.9620   51.5470 O.2       4 ALP1        0.0000 
     31 CA         23.2052   35.2117   54.1275 C.3       3 GLC5        0.0000 
     32 CA         23.8090   37.1300   53.2500 C.3       9 GLL5        0.0000 
     33 CA         22.6570   33.8490   55.4360 C.3       6 GLP5        0.0000 
     34 CA         22.1411   35.3397   54.2844 C.3       3 GLC5        0.0000 
     35 CA         26.2497   37.6797   53.6740 C.3       3 GLC5        0.0000 
     36 CA         28.0860   37.9930   53.9420 C.3       6 GLP5        0.0000 
     37 CA         25.0408   37.1638   55.2000 C.3       3 GLC5        0.0000 
     38 CA         25.0180   37.6030   53.5620 C.3       9 GLL5        0.0000 
     39 CA         25.6680   36.9610   56.9940 C.3       6 GLP5        0.0000 
     40 CA         18.9094   31.7970   51.8243 C.3       3 GLC5        0.0000 
     41 CA         20.4600   32.7910   50.1030 C.3       9 GLL5        0.0000 
     42 CA         18.2940   30.7860   53.4650 C.3       6 GLP5        0.0000 
     43 CA         21.0400   32.9884   52.4819 C.3       3 GLC5        0.0000 
     44 CA         21.8850   31.9930   53.9320 C.3       6 GLP5        0.0000 
@<TRIPOS>BOND
@<TRIPOS>SUBSTRUCTURE
     1 ALC1       16 GROUP        1 X    ALC  0     ROOT ALC X 1
     2 SEC2       10 GROUP        1 X    SEC  0     **** SEC X 2
     3 GLC5        1 GROUP        1 X    GLC  0     **** GLC X 6
     4 ALP1       18 GROUP        1 Y    ALP  0     ROOT ALP Y 8
     5 SEP2       12 GROUP        1 Y    SEP  0     **** SEP Y 9
     6 GLP5        3 GROUP        1 Y    GLP  0     **** GLP Y 13
     7 ALL1       17 GROUP        1 Z    ALL  0     ROOT ALL Z 15
     8 SEL2       11 GROUP        1 Z    SEL  0     **** SEL Z 16
     9 GLL5        2 GROUP        1 Z    GLL  0     **** GLL Z 20
@<TRIPOS>SET

