#    Name: 3ba8_3B8_2_ligand
#    Modification time : Mon Mar 24 19:12:23 2014

@<TRIPOS>MOLECULE
3ba8_3B8_2_ligand
   28    30     1     0     0
SMALL
NO_CHARGES


@<TRIPOS>ATOM
      1 C5         22.6600   37.7540   53.7940 C.ar      1 3B8501      0.0000 
      2 C6         21.3710   37.2660   53.4830 C.ar      1 3B8501      0.0000 
      3 C3         23.6980   36.0190   52.3880 C.ar      1 3B8501      0.0000 
      4 C2         22.4010   35.5260   52.0760 C.ar      1 3B8501      0.0000 
      5 C1         21.2350   36.1510   52.6270 C.ar      1 3B8501      0.0000 
      6 O11        17.5830   31.0470   48.6850 O.2       1 3B8501      0.0000 
      7 C4         23.8090   37.1300   53.2500 C.ar      1 3B8501      0.0000 
      8 O7         19.9520   35.7190   52.3740 O.3       1 3B8501      0.0000 
      9 C8         22.2120   34.3410   51.1720 C.2       1 3B8501      0.0000 
     10 F9         25.0180   37.6030   53.5620 F         1 3B8501      0.0000 
     11 O10        23.1740   33.7550   50.6630 O.2       1 3B8501      0.0000 
     12 N12        19.7550   30.4290   48.6320 N.am      1 3B8501      0.0000 
     13 C13        18.0990   33.2200   50.6020 C.ar      1 3B8501      0.0000 
     14 C14        19.0800   32.4300   49.9260 C.ar      1 3B8501      0.0000 
     15 C15        20.4600   32.7910   50.1030 C.ar      1 3B8501      0.0000 
     16 C16        20.8040   33.9020   50.9280 C.ar      1 3B8501      0.0000 
     17 C17        19.7580   34.6210   51.5480 C.ar      1 3B8501      0.0000 
     18 N18        18.4370   34.2870   51.3890 N.ar      1 3B8501      0.0000 
     19 N19        16.7400   32.9950   50.5300 N.pl3     1 3B8501      0.0000 
     20 C20        18.7450   31.2570   49.0450 C.2       1 3B8501      0.0000 
     21 H          22.7650   38.5599   54.4135 H         1 3B8501      0.0000 
     22 H          20.5454   37.7157   53.8738 H         1 3B8501      0.0000 
     23 H          24.5190   35.5792   51.9979 H         1 3B8501      0.0000 
     24 H          20.6763   30.6746   48.9334 H         1 3B8501      0.0000 
     25 H          19.4826   29.6514   48.0653 H         1 3B8501      0.0000 
     26 H          21.1840   32.2533   49.6398 H         1 3B8501      0.0000 
     27 H          16.1605   33.6365   51.0326 H         1 3B8501      0.0000 
     28 H          16.4524   32.2098   49.9815 H         1 3B8501      0.0000 
@<TRIPOS>BOND
     1    2    1 ar   
     2    7    1 ar   
     3   21    1 1    
     4    5    2 ar   
     5   22    2 1    
     6    4    3 ar   
     7    7    3 ar   
     8   23    3 1    
     9    5    4 ar   
    10    9    4 1    
    11    8    5 1    
    12   20    6 2    
    13   10    7 1    
    14   17    8 1    
    15   11    9 2    
    16   16    9 1    
    17   20   12 am   
    18   24   12 1    
    19   25   12 1    
    20   14   13 ar   
    21   18   13 ar   
    22   19   13 1    
    23   15   14 ar   
    24   20   14 1    
    25   16   15 ar   
    26   26   15 1    
    27   17   16 ar   
    28   18   17 ar   
    29   27   19 1    
    30   28   19 1    
@<TRIPOS>SUBSTRUCTURE
     1 3B8501      1 GROUP   
@<TRIPOS>SET

