#    Name: 2uz3_TTP_1_INTS_M
#    Modification time : Tue Mar 25 00:32:11 2014

@<TRIPOS>MOLECULE
2uz3_TTP_1_INTS_M
   69     0    12     0     0
SMALL
NO_CHARGES


@<TRIPOS>ATOM
      1 N          41.9160   24.2590   56.4070 N.am      2 SEC2        0.0000 
      2 N          42.6410   22.8170   56.9280 N.am     10 SEL2        0.0000 
      3 N          41.1910   25.7010   55.8860 N.am      6 SEP2        0.0000 
      4 N          40.0160   22.8995   59.2115 N.am      2 SEC2        0.0000 
      5 N          41.3160   21.8250   58.8820 N.am     10 SEL2        0.0000 
      6 N          38.7160   23.9740   59.5410 N.am      6 SEP2        0.0000 
      7 N          39.4080   23.4030   58.2350 N.am      2 SEC2        0.0000 
      8 N          40.1000   22.8320   56.9290 N.am     10 SEL2        0.0000 
      9 NZ         40.8640   24.0385   55.1595 N.4       3 LYC4        0.0000 
     10 NZ         40.5370   22.3760   54.4330 N.4      11 LYL4        0.0000 
     11 NZ         41.1910   25.7010   55.8860 N.4       7 LYP4        0.0000 
     12 N          39.9445   22.6755   52.8960 N.am      2 SEC2        0.0000 
     13 N          40.5370   22.3760   54.4330 N.am     10 SEL2        0.0000 
     14 N          39.3520   22.9750   51.3590 N.am      6 SEP2        0.0000 
     15 NZ         40.0410   24.8780   55.5470 N.4       3 LYC4        0.0000 
     16 NZ         38.8910   24.0550   55.2080 N.4      11 LYL4        0.0000 
     17 N          38.3685   24.3555   54.1440 N.am      2 SEC2        0.0000 
     18 N          38.8910   24.0550   55.2080 N.am     10 SEL2        0.0000 
     19 N          37.8460   24.6560   53.0800 N.am      6 SEP2        0.0000 
     20 N          40.0410   24.8780   55.5470 N.am      2 SEC2        0.0000 
     21 CA         45.8185   24.3705   58.7020 C.3       4 GLC5        0.0000 
     22 CA         45.5190   22.5430   58.8630 C.3      12 GLL5        0.0000 
     23 CA         46.1180   26.1980   58.5410 C.3       8 GLP5        0.0000 
     24 N          47.6180   18.9200   61.4760 N.am      2 SEC2        0.0000 
     25 N          47.1980   19.6590   60.2320 N.am     10 SEL2        0.0000 
     26 N          48.0380   18.1810   62.7200 N.am      6 SEP2        0.0000 
     27 O          46.3205   19.2960   61.2640 O.2       1 ALC1        0.0000 
     28 O          47.1980   19.6590   60.2320 O.2       9 ALL1        0.0000 
     29 O          45.4430   18.9330   62.2960 O.2       5 ALP1        0.0000 
     30 CA         48.8000   20.2680   61.8340 C.3       4 GLC5        0.0000 
     31 CA         47.2990   21.7180   61.5440 C.3      12 GLL5        0.0000 
     32 CA         50.3010   18.8180   62.1240 C.3       8 GLP5        0.0000 
     33 CA         49.5160   22.6960   59.0385 C.3       4 GLC5        0.0000 
     34 CA         48.2560   22.6530   60.8180 C.3      12 GLL5        0.0000 
     35 CA         50.7760   22.7390   57.2590 C.3       8 GLP5        0.0000 
     36 CA         47.8990   22.8080   62.8740 C.3       4 GLC5        0.0000 
     37 CA         47.5420   22.9630   64.9300 C.3       8 GLP5        0.0000 
     38 N          51.6855   22.9470   62.4840 N.am      2 SEC2        0.0000 
     39 N          50.6630   23.4290   61.5920 N.am     10 SEL2        0.0000 
     40 N          52.7080   22.4650   63.3760 N.am      6 SEP2        0.0000 
     41 O          51.3305   25.6215   63.1180 O.2       1 ALC1        0.0000 
     42 O          50.1110   25.4130   62.4820 O.2       9 ALL1        0.0000 
     43 O          52.5500   25.8300   63.7540 O.2       5 ALP1        0.0000 
     44 N          48.9725   28.5125   63.9045 N.am      2 SEC2        0.0000 
     45 N          49.4940   27.3710   63.3680 N.am     10 SEL2        0.0000 
     46 N          48.4510   29.6540   64.4410 N.am      6 SEP2        0.0000 
     47 CA         47.1925   28.3185   64.2155 C.3       4 GLC5        0.0000 
     48 CA         46.6670   27.0330   62.7310 C.3      12 GLL5        0.0000 
     49 CA         47.7180   29.6040   65.7000 C.3       8 GLP5        0.0000 
     50 CA         45.0215   27.5300   63.0745 C.3       4 GLC5        0.0000 
     51 CA         43.3760   28.0270   63.4180 C.3       8 GLP5        0.0000 
     52 CA         45.5730   24.2375   61.9670 C.3       4 GLC5        0.0000 
     53 CA         47.4570   24.8300   61.7690 C.3      12 GLL5        0.0000 
     54 CA         43.6890   23.6450   62.1650 C.3       8 GLP5        0.0000 
     55 CA         44.6845   22.0882   60.2957 C.3       4 GLC5        0.0000 
     56 CA         46.8050   21.7900   59.1720 C.3      12 GLL5        0.0000 
     57 CA         43.2070   22.0100   61.5740 C.3       8 GLP5        0.0000 
     58 CA         45.0825   21.6725   61.2790 C.3       4 GLC5        0.0000 
     59 CA         46.6170   20.9520   60.4240 C.3      12 GLL5        0.0000 
     60 CA         46.9190   21.5395   62.9000 C.3       4 GLC5        0.0000 
     61 CA         46.8800   21.7440   64.8160 C.3       8 GLP5        0.0000 
     62 CA         48.0057   28.4633   62.3582 C.3       4 GLC5        0.0000 
     63 CA         47.7520   26.0320   62.4140 C.3      12 GLL5        0.0000 
     64 CA         48.8020   30.3940   62.1440 C.3       8 GLP5        0.0000 
     65 CA         46.7256   25.9396   60.3559 C.3       4 GLC5        0.0000 
     66 CA         48.3641   26.6716   60.9014 C.3       4 GLC5        0.0000 
     67 CA         49.3950   27.6620   59.6320 C.3       8 GLP5        0.0000 
     68 CA         47.0901   24.9001   63.7154 C.3       4 GLC5        0.0000 
     69 CA         46.8470   24.1190   65.2600 C.3       8 GLP5        0.0000 
@<TRIPOS>BOND
@<TRIPOS>SUBSTRUCTURE
     1 ALC1       27 GROUP        1 X    ALC  0     ROOT ALC X 1
     2 SEC2        1 GROUP        1 X    SEC  0     **** SEC X 2
     3 LYC4        9 GROUP        1 X    LYC  0     **** LYC X 4
     4 GLC5       21 GROUP        1 X    GLC  0     **** GLC X 6
     5 ALP1       29 GROUP        1 Y    ALP  0     ROOT ALP Y 8
     6 SEP2        3 GROUP        1 Y    SEP  0     **** SEP Y 9
     7 LYP4       11 GROUP        1 Y    LYP  0     **** LYP Y 11
     8 GLP5       23 GROUP        1 Y    GLP  0     **** GLP Y 13
     9 ALL1       28 GROUP        1 Z    ALL  0     ROOT ALL Z 15
    10 SEL2        2 GROUP        1 Z    SEL  0     **** SEL Z 16
    11 LYL4       10 GROUP        1 Z    LYL  0     **** LYL Z 18
    12 GLL5       22 GROUP        1 Z    GLL  0     **** GLL Z 20
@<TRIPOS>SET

