#    Name: 2uz3_TTP_1_ligand
#    Modification time : Tue Mar 25 00:32:12 2014

@<TRIPOS>MOLECULE
2uz3_TTP_1_ligand
   42    43     1     0     0
SMALL
NO_CHARGES


@<TRIPOS>ATOM
      1 PA         43.9990   21.9690   56.8230 P.3       1 TTP1220     0.0000 
      2 O1A        43.7880   20.6130   56.1980 O.co2     1 TTP1220     0.0000 
      3 O2A        44.9910   22.7990   56.0230 O.co2     1 TTP1220     0.0000 
      4 O3A        42.6410   22.8170   56.9280 O.3       1 TTP1220     0.0000 
      5 PB         41.3630   21.9750   57.3860 P.3       1 TTP1220     0.0000 
      6 O1B        41.3320   20.6460   56.6770 O.co2     1 TTP1220     0.0000 
      7 O2B        41.3160   21.8250   58.8820 O.co2     1 TTP1220     0.0000 
      8 O3B        40.1000   22.8320   56.9290 O.3       1 TTP1220     0.0000 
      9 PG         39.4800   22.6960   55.4720 P.3       1 TTP1220     0.0000 
     10 O1G        40.5370   22.3760   54.4330 O.co2     1 TTP1220     0.0000 
     11 O2G        38.8910   24.0550   55.2080 O.co2     1 TTP1220     0.0000 
     12 O3G        38.4130   21.6360   55.5040 O.co2     1 TTP1220     0.0000 
     13 O5'        44.5060   21.6960   58.3290 O.3       1 TTP1220     0.0000 
     14 C5'        45.5190   22.5430   58.8630 C.3       1 TTP1220     0.0000 
     15 C4'        46.8050   21.7900   59.1720 C.3       1 TTP1220     0.0000 
     16 O4'        47.8250   22.7520   59.4540 O.3       1 TTP1220     0.0000 
     17 C3'        46.6170   20.9520   60.4240 C.3       1 TTP1220     0.0000 
     18 O3'        47.1980   19.6590   60.2320 O.3       1 TTP1220     0.0000 
     19 C2'        47.2990   21.7180   61.5440 C.3       1 TTP1220     0.0000 
     20 C1'        48.2560   22.6530   60.8180 C.3       1 TTP1220     0.0000 
     21 N1         48.4520   23.9610   61.4920 N.am      1 TTP1220     0.0000 
     22 C2         49.7800   24.2700   61.8630 C.2       1 TTP1220     0.0000 
     23 O2         50.6630   23.4290   61.5920 O.2       1 TTP1220     0.0000 
     24 N3         50.1110   25.4130   62.4820 N.am      1 TTP1220     0.0000 
     25 C4         49.1740   26.3140   62.7810 C.2       1 TTP1220     0.0000 
     26 O4         49.4940   27.3710   63.3680 O.2       1 TTP1220     0.0000 
     27 C5         47.7520   26.0320   62.4140 C.2       1 TTP1220     0.0000 
     28 C5M        46.6670   27.0330   62.7310 C.3       1 TTP1220     0.0000 
     29 C6         47.4570   24.8300   61.7690 C.2       1 TTP1220     0.0000 
     30 H          45.1852   23.0326   59.8002 H         1 TTP1220     0.0000 
     31 H          45.7725   23.3633   58.1614 H         1 TTP1220     0.0000 
     32 H          47.0574   21.1664   58.3612 H         1 TTP1220     0.0000 
     33 H          45.5687   20.9041   60.6347 H         1 TTP1220     0.0000 
     34 H          47.8478   21.0482   62.1596 H         1 TTP1220     0.0000 
     35 H          46.5816   22.2856   62.0842 H         1 TTP1220     0.0000 
     36 H          49.2472   22.1153   60.8217 H         1 TTP1220     0.0000 
     37 H          51.1129   25.5961   62.7308 H         1 TTP1220     0.0000 
     38 H          46.4785   24.6263   61.5142 H         1 TTP1220     0.0000 
     39 H          46.6032   27.2132   63.7126 H         1 TTP1220     0.0000 
     40 H          46.8294   27.9115   62.2816 H         1 TTP1220     0.0000 
     41 H          45.7678   26.7130   62.4327 H         1 TTP1220     0.0000 
     42 H          46.4863   19.0123   60.5062 H         1 TTP1220     0.0000 
@<TRIPOS>BOND
     1    2    1 ar   
     2    3    1 ar   
     3    4    1 1    
     4   13    1 1    
     5    5    4 1    
     6    6    5 ar   
     7    7    5 ar   
     8    8    5 1    
     9    9    8 1    
    10   10    9 ar   
    11   11    9 ar   
    12   12    9 ar   
    13   14   13 1    
    14   15   14 1    
    15   30   14 1    
    16   31   14 1    
    17   16   15 1    
    18   17   15 1    
    19   32   15 1    
    20   20   16 1    
    21   18   17 1    
    22   19   17 1    
    23   33   17 1    
    24   42   18 1    
    25   20   19 1    
    26   34   19 1    
    27   35   19 1    
    28   21   20 1    
    29   36   20 1    
    30   22   21 1    
    31   29   21 1    
    32   23   22 2    
    33   24   22 1    
    34   25   24 1    
    35   37   24 1    
    36   26   25 2    
    37   27   25 1    
    38   28   27 1    
    39   29   27 2    
    40   39   28 1    
    41   40   28 1    
    42   41   28 1    
    43   38   29 1    
@<TRIPOS>SUBSTRUCTURE
     1 TTP1220     1 GROUP   
@<TRIPOS>SET

