#    Name: 4J22_2_CAVITY_N1_6.mol2
#    Modification time : Tue Mar 11 07:02:03 2014

@<TRIPOS>MOLECULE
4J22_2_CAVITY_N1_6.mol2
   80     0     6     0     0
SMALL
NO_CHARGES


@<TRIPOS>ATOM
      1 N          38.3406   -3.0081  -26.2411 N.2       2 ALA2        0.0000 
      2 N          36.9320   -2.8701  -25.7444 N.2       2 ALA2        0.0000 
      3 N          38.5956   -4.7365  -25.0380 N.2       2 ALA2        0.0000 
      4 N          37.1870   -4.5985  -24.5412 N.2       2 ALA2        0.0000 
      5 CA         35.7784   -4.4606  -24.0445 C.3       5 GLY6        0.0000 
      6 CZ         38.3815   -6.2079  -25.2363 C.ar      4 PHE5        0.0000 
      7 CA         36.9729   -6.0699  -24.7395 C.3       5 GLY6        0.0000 
      8 CA         35.5643   -5.9319  -24.2427 C.3       5 GLY6        0.0000 
      9 CZ         38.1675   -7.6792  -25.4346 C.ar      4 PHE5        0.0000 
     10 CZ         36.7589   -7.5413  -24.9378 C.ar      4 PHE5        0.0000 
     11 CA         35.3503   -7.4033  -24.4410 C.3       5 GLY6        0.0000 
     12 CZ         36.5449   -9.0126  -25.1361 C.ar      4 PHE5        0.0000 
     13 O          35.1362   -8.8746  -24.6393 O.2       2 ALA2        0.0000 
     14 CA         37.7394  -10.6219  -25.8311 C.3       5 GLY6        0.0000 
     15 CA         36.3308  -10.4840  -25.3344 C.3       5 GLY6        0.0000 
     16 N          39.0646   -4.9936  -23.6366 N.2       2 ALA2        0.0000 
     17 N          37.6560   -4.8556  -23.1398 N.2       2 ALA2        0.0000 
     18 CA         36.2474   -4.7177  -22.6431 C.3       5 GLY6        0.0000 
     19 CZ         38.8506   -6.4649  -23.8349 C.ar      4 PHE5        0.0000 
     20 CA         37.4420   -6.3270  -23.3381 C.3       5 GLY6        0.0000 
     21 CZ         37.2279   -7.7983  -23.5364 C.ar      4 PHE5        0.0000 
     22 CA         37.0139   -9.2697  -23.7347 C.3       5 GLY6        0.0000 
     23 O          35.6053   -9.1317  -23.2379 O.2       2 ALA2        0.0000 
     24 N          39.5337   -5.2507  -22.2352 N.2       2 ALA2        0.0000 
     25 N          38.1251   -5.1127  -21.7385 N.2       2 ALA2        0.0000 
     26 CA         36.7165   -4.9747  -21.2417 C.3       5 GLY6        0.0000 
     27 CZ         39.3196   -6.7220  -22.4335 C.ar      4 PHE5        0.0000 
     28 CA         37.9110   -6.5841  -21.9367 C.3       5 GLY6        0.0000 
     29 CA         36.5024   -6.4461  -21.4400 C.3       5 GLY6        0.0000 
     30 CA         37.6970   -8.0554  -22.1350 C.3       5 GLY6        0.0000 
     31 CA         36.2884   -7.9175  -21.6382 C.3       5 GLY6        0.0000 
     32 CZ         30.5705   -1.5993  -16.9599 C.ar      4 PHE5        0.0000 
     33 CA         37.3995   -3.7605  -19.6420 C.3       5 GLY6        0.0000 
     34 OG         30.3565   -3.0707  -17.1581 O.2       1 SER1        0.0000 
     35 N          38.5941   -5.3698  -20.3371 N.2       2 ALA2        0.0000 
     36 CA         37.1855   -5.2318  -19.8403 C.3       5 GLY6        0.0000 
     37 CZ         35.7769   -5.0939  -19.3435 C.ar      4 PHE5        0.0000 
     38 OG         39.7887   -6.9791  -21.0321 O.2       1 SER1        0.0000 
     39 DU         38.3801   -6.8412  -20.5353 H         6 CUB7        0.0000 
     40 CA         36.9715   -6.7032  -20.0386 C.3       5 GLY6        0.0000 
     41 CZ         35.5629   -6.5652  -19.5418 C.ar      4 PHE5        0.0000 
     42 CA         38.1660   -8.3125  -20.7336 C.3       5 GLY6        0.0000 
     43 CZ         36.7574   -8.1745  -20.2368 C.ar      4 PHE5        0.0000 
     44 CZ         32.4482   -1.9944  -16.0552 C.ar      4 PHE5        0.0000 
     45 NZ         31.0396   -1.8564  -15.5585 N.2       3 LYS4        0.0000 
     46 CA         29.6310   -1.7184  -15.0617 C.3       5 GLY6        0.0000 
     47 CA         37.8686   -4.0176  -18.2406 C.3       5 GLY6        0.0000 
     48 CA         36.4600   -3.8796  -17.7438 C.3       5 GLY6        0.0000 
     49 CZ         35.0514   -3.7416  -17.2471 C.ar      4 PHE5        0.0000 
     50 OG         32.2342   -3.4657  -16.2535 O.2       1 SER1        0.0000 
     51 OG         30.8256   -3.3277  -15.7567 O.2       1 SER1        0.0000 
     52 OG         29.4169   -3.1898  -15.2600 O.2       1 SER1        0.0000 
     53 N          39.0632   -5.6269  -18.9357 N.2       2 ALA2        0.0000 
     54 DU         37.6546   -5.4889  -18.4389 H         6 CUB7        0.0000 
     55 CZ         36.2460   -5.3510  -17.9421 C.ar      4 PHE5        0.0000 
     56 CZ         34.8373   -5.2130  -17.4453 C.ar      4 PHE5        0.0000 
     57 N          38.8491   -7.0982  -19.1339 N.2       2 ALA2        0.0000 
     58 N          37.4405   -6.9603  -18.6372 N.2       2 ALA2        0.0000 
     59 CZ         36.0319   -6.8223  -18.1404 C.ar      4 PHE5        0.0000 
     60 N          37.2265   -8.4316  -18.8355 N.2       2 ALA2        0.0000 
     61 CZ         34.1118   -3.8608  -15.3489 C.ar      4 PHE5        0.0000 
     62 NZ         32.7032   -3.7228  -14.8521 N.2       3 LYS4        0.0000 
     63 N          38.1236   -5.7460  -17.0375 N.2       2 ALA2        0.0000 
     64 CA         36.7150   -5.6080  -16.5407 C.3       5 GLY6        0.0000 
     65 CZ         35.3064   -5.4701  -16.0440 C.ar      4 PHE5        0.0000 
     66 CZ         33.8978   -5.3321  -15.5472 C.ar      4 PHE5        0.0000 
     67 N          37.9096   -7.2174  -17.2358 N.2       2 ALA2        0.0000 
     68 CZ         36.5010   -7.0794  -16.7390 C.ar      4 PHE5        0.0000 
     69 NZ         34.5809   -4.1178  -13.9475 N.2       3 LYS4        0.0000 
     70 N          37.1840   -5.8651  -15.1393 N.2       2 ALA2        0.0000 
     71 CA         35.7754   -5.7272  -14.6426 C.3       5 GLY6        0.0000 
     72 CZ         34.3668   -5.5892  -14.1458 C.ar      4 PHE5        0.0000 
     73 N          38.3786   -7.4744  -15.8344 N.2       2 ALA2        0.0000 
     74 N          36.9700   -7.3365  -15.3376 N.2       2 ALA2        0.0000 
     75 CZ         35.5614   -7.1985  -14.8408 C.ar      4 PHE5        0.0000 
     76 N          36.7560   -8.8078  -15.5359 N.2       2 ALA2        0.0000 
     77 N          37.6531   -6.1222  -13.7379 N.2       2 ALA2        0.0000 
     78 CA         36.2445   -5.9842  -13.2412 C.3       5 GLY6        0.0000 
     79 OG         37.4391   -7.5936  -13.9362 O.2       1 SER1        0.0000 
     80 OG         36.0304   -7.4556  -13.4394 O.2       1 SER1        0.0000 
@<TRIPOS>BOND
@<TRIPOS>SUBSTRUCTURE
     1 SER1       34 GROUP   
     2 ALA2        1 GROUP   
     3 LYS4       45 GROUP   
     4 PHE5        6 GROUP   
     5 GLY6        5 GROUP   
     6 CUB7       39 GROUP   
@<TRIPOS>SET

