#    Name: 4j22_AJ7_2_INTS_M
#    Modification time : Tue Mar 25 05:14:34 2014

@<TRIPOS>MOLECULE
4j22_AJ7_2_INTS_M
   58     0     9     0     0
SMALL
NO_CHARGES


@<TRIPOS>ATOM
      1 CA         40.1955   -8.4995  -27.6710 C.3       3 GLC5        0.0000 
      2 CA         39.9730   -8.1430  -29.6210 C.3       9 GLL5        0.0000 
      3 CA         40.4180   -8.8560  -25.7210 C.3       6 GLP5        0.0000 
      4 CA         41.7810   -9.0265  -27.6555 C.3       3 GLC5        0.0000 
      5 CA         42.4380   -8.0710  -29.1710 C.3       9 GLL5        0.0000 
      6 CA         41.1240   -9.9820  -26.1400 C.3       6 GLP5        0.0000 
      7 CA         33.6130   -6.0910  -15.3425 C.3       3 GLC5        0.0000 
      8 CA         34.6330   -4.6440  -14.8180 C.3       9 GLL5        0.0000 
      9 CA         32.5930   -7.5380  -15.8670 C.3       6 GLP5        0.0000 
     10 CA         36.1225   -8.5685  -13.4855 C.3       3 GLC5        0.0000 
     11 CA         36.3050   -6.5240  -14.3620 C.3       9 GLL5        0.0000 
     12 CA         35.9400  -10.6130  -12.6090 C.3       6 GLP5        0.0000 
     13 N          38.7420   -9.3085  -14.3810 N.am      2 SEC2        0.0000 
     14 N          37.8610   -8.2470  -14.0280 N.am      8 SEL2        0.0000 
     15 N          39.6230  -10.3700  -14.7340 N.am      5 SEP2        0.0000 
     16 N          37.7995   -8.7925  -12.7760 N.am      2 SEC2        0.0000 
     17 N          37.7380   -9.3380  -11.5240 N.am      5 SEP2        0.0000 
     18 O          38.1275   -8.6715  -16.6860 O.2       1 ALC1        0.0000 
     19 O          37.6200   -7.5660  -16.1140 O.2       7 ALL1        0.0000 
     20 O          38.6350   -9.7770  -17.2580 O.2       4 ALP1        0.0000 
     21 CA         41.3560   -7.8010  -27.0500 C.3       3 GLC5        0.0000 
     22 CA         42.2940   -6.7460  -28.3790 C.3       9 GLL5        0.0000 
     23 CA         43.4960   -5.3680  -27.4130 C.3       3 GLC5        0.0000 
     24 CA         44.6980   -3.9900  -26.4470 C.3       6 GLP5        0.0000 
     25 CA         38.1170  -10.1385  -20.0775 C.3       3 GLC5        0.0000 
     26 CA         36.6000   -8.9840  -20.7750 C.3       9 GLL5        0.0000 
     27 CA         39.6340  -11.2930  -19.3800 C.3       6 GLP5        0.0000 
     28 CA         37.5050  -10.2705  -21.4720 C.3       3 GLC5        0.0000 
     29 CA         38.4100  -11.5570  -22.1690 C.3       6 GLP5        0.0000 
     30 CA         35.8795   -9.4125  -19.1435 C.3       3 GLC5        0.0000 
     31 CA         35.1590   -9.8410  -17.5120 C.3       6 GLP5        0.0000 
     32 CA         35.5565  -10.1855  -21.7250 C.3       3 GLC5        0.0000 
     33 CA         34.5130  -11.3870  -22.6750 C.3       6 GLP5        0.0000 
     34 CA         37.2657   -3.1545  -21.8740 C.3       3 GLC5        0.0000 
     35 CA         37.4080   -5.0540  -21.6070 C.3       9 GLL5        0.0000 
     36 CA         37.0510   -1.2210  -21.4580 C.3       6 GLP5        0.0000 
     37 CA         35.7332   -5.6285  -22.2665 C.3       3 GLC5        0.0000 
     38 CA         33.9860   -6.1690  -22.2430 C.3       6 GLP5        0.0000 
     39 CA         37.7278   -9.5262  -22.1950 C.3       3 GLC5        0.0000 
     40 CA         36.9590   -7.4680  -21.5350 C.3       9 GLL5        0.0000 
     41 CA         35.6305   -6.5510  -22.7597 C.3       3 GLC5        0.0000 
     42 CA         37.1320   -7.5230  -22.9070 C.3       9 GLL5        0.0000 
     43 CA         34.7867   -7.3150  -15.4345 C.3       3 GLC5        0.0000 
     44 CA         35.7000   -5.6620  -15.2760 C.3       9 GLL5        0.0000 
     45 CA         33.5710   -8.5370  -16.0500 C.3       6 GLP5        0.0000 
     46 CA         36.5794   -4.2588  -14.9582 C.3       3 GLC5        0.0000 
     47 CA         37.4230   -2.6790  -15.2120 C.3       6 GLP5        0.0000 
     48 CA         39.9637   -7.2075  -26.5180 C.3       3 GLC5        0.0000 
     49 CA         38.7250   -5.5740  -27.2300 C.3       9 GLL5        0.0000 
     50 CA         35.3828   -7.1975  -21.6990 C.3       3 GLC5        0.0000 
     51 CA         36.0240   -3.2622  -19.2620 C.3       3 GLC5        0.0000 
     52 CA         35.8820   -5.1470  -19.0360 C.3       9 GLL5        0.0000 
     53 CA         36.3550   -1.4650  -20.1420 C.3       6 GLP5        0.0000 
     54 CA         35.2095   -5.9100  -20.9116 C.3       3 GLC5        0.0000 
     55 CA         36.6065   -4.0277  -16.2135 C.3       3 GLC5        0.0000 
     56 CA         35.5040   -4.9720  -17.7280 C.3       9 GLL5        0.0000 
     57 CA         35.9038   -8.0751  -17.3696 C.3       3 GLC5        0.0000 
     58 CA         36.0760   -5.7810  -16.7020 C.3       9 GLL5        0.0000 
@<TRIPOS>BOND
@<TRIPOS>SUBSTRUCTURE
     1 ALC1       18 GROUP        1 X    ALC  0     ROOT ALC X 1
     2 SEC2       13 GROUP        1 X    SEC  0     **** SEC X 2
     3 GLC5        1 GROUP        1 X    GLC  0     **** GLC X 6
     4 ALP1       20 GROUP        1 Y    ALP  0     ROOT ALP Y 8
     5 SEP2       15 GROUP        1 Y    SEP  0     **** SEP Y 9
     6 GLP5        3 GROUP        1 Y    GLP  0     **** GLP Y 13
     7 ALL1       19 GROUP        1 Z    ALL  0     ROOT ALL Z 15
     8 SEL2       14 GROUP        1 Z    SEL  0     **** SEL Z 16
     9 GLL5        2 GROUP        1 Z    GLL  0     **** GLL Z 20
@<TRIPOS>SET

