#    Name: 4j22_AJ7_2_ligand
#    Modification time : Tue Mar 25 05:14:34 2014

@<TRIPOS>MOLECULE
4j22_AJ7_2_ligand
   55    58     1     0     0
SMALL
NO_CHARGES


@<TRIPOS>ATOM
      1 C4         37.2870   -7.4860  -14.8080 C.2       1 AJ71204     0.0000 
      2 C8         37.0370   -6.7600  -17.0790 C.ar      1 AJ71204     0.0000 
      3 C10        36.8530   -6.0930  -19.3940 C.ar      1 AJ71204     0.0000 
      4 C13        37.5530   -5.1220  -22.9730 C.ar      1 AJ71204     0.0000 
      5 C15        37.5790   -6.4680  -25.1320 C.2       1 AJ71204     0.0000 
      6 C21        40.1670   -6.6130  -29.7610 C.3       1 AJ71204     0.0000 
      7 C22        39.9730   -8.1430  -29.6210 C.3       1 AJ71204     0.0000 
      8 C24        42.4380   -8.0710  -29.1710 C.3       1 AJ71204     0.0000 
      9 C26        37.1320   -7.5230  -22.9070 C.ar      1 AJ71204     0.0000 
     10 C1         34.6330   -4.6440  -14.8180 C.3       1 AJ71204     0.0000 
     11 C2         35.7000   -5.6620  -15.2760 C.2       1 AJ71204     0.0000 
     12 C3         36.3050   -6.5240  -14.3620 C.2       1 AJ71204     0.0000 
     13 O5         37.8610   -8.2470  -14.0280 O.2       1 AJ71204     0.0000 
     14 N6         37.6200   -7.5660  -16.1140 N.am      1 AJ71204     0.0000 
     15 C9         37.4050   -6.9150  -18.4260 C.ar      1 AJ71204     0.0000 
     16 C11        37.1150   -6.2170  -20.8550 C.ar      1 AJ71204     0.0000 
     17 C12        37.4080   -5.0540  -21.6070 C.ar      1 AJ71204     0.0000 
     18 C14        37.4180   -6.3430  -23.6460 C.ar      1 AJ71204     0.0000 
     19 O16        36.9470   -7.4020  -25.6870 O.2       1 AJ71204     0.0000 
     20 N17        38.3810   -5.5820  -25.7790 N.am      1 AJ71204     0.0000 
     21 C18        38.7250   -5.5740  -27.2300 C.3       1 AJ71204     0.0000 
     22 C19        40.2940   -5.5440  -27.4000 C.3       1 AJ71204     0.0000 
     23 N20        40.9930   -6.0440  -28.6440 N.4       1 AJ71204     0.0000 
     24 O23        41.1920   -8.8270  -29.2290 O.3       1 AJ71204     0.0000 
     25 C25        42.2940   -6.7460  -28.3790 C.3       1 AJ71204     0.0000 
     26 C27        36.9590   -7.4680  -21.5350 C.ar      1 AJ71204     0.0000 
     27 CL         36.6000   -8.9840  -20.7750 Cl        1 AJ71204     0.0000 
     28 C29        35.8820   -5.1470  -19.0360 C.ar      1 AJ71204     0.0000 
     29 C30        35.5040   -4.9720  -17.7280 C.ar      1 AJ71204     0.0000 
     30 C31        36.0760   -5.7810  -16.7020 C.ar      1 AJ71204     0.0000 
     31 H          37.7638   -4.2695  -23.5187 H         1 AJ71204     0.0000 
     32 H          39.1783   -6.1426  -29.7751 H         1 AJ71204     0.0000 
     33 H          40.6497   -6.4160  -30.7239 H         1 AJ71204     0.0000 
     34 H          39.5994   -8.5172  -30.5893 H         1 AJ71204     0.0000 
     35 H          39.1690   -8.3065  -28.8834 H         1 AJ71204     0.0000 
     36 H          42.7930   -7.8140  -30.1822 H         1 AJ71204     0.0000 
     37 H          43.2359   -8.6586  -28.6887 H         1 AJ71204     0.0000 
     38 H          37.0564   -8.4159  -23.4106 H         1 AJ71204     0.0000 
     39 H          36.0687   -6.4930  -13.3696 H         1 AJ71204     0.0000 
     40 H          38.3466   -8.2604  -16.4257 H         1 AJ71204     0.0000 
     41 H          38.0844   -7.6409  -18.6836 H         1 AJ71204     0.0000 
     42 H          37.5102   -4.1567  -21.1099 H         1 AJ71204     0.0000 
     43 H          38.8389   -4.7853  -25.2309 H         1 AJ71204     0.0000 
     44 H          38.3264   -4.6949  -27.7196 H         1 AJ71204     0.0000 
     45 H          38.3601   -6.4666  -27.7214 H         1 AJ71204     0.0000 
     46 H          40.7244   -6.0866  -26.4937 H         1 AJ71204     0.0000 
     47 H          40.6163   -4.4673  -27.2053 H         1 AJ71204     0.0000 
     48 H          41.3925   -4.9961  -29.1338 H         1 AJ71204     0.0000 
     49 H          43.1351   -6.0936  -28.6500 H         1 AJ71204     0.0000 
     50 H          42.3855   -6.9766  -27.3090 H         1 AJ71204     0.0000 
     51 H          35.4474   -4.5733  -19.7850 H         1 AJ71204     0.0000 
     52 H          34.8096   -4.2634  -17.4632 H         1 AJ71204     0.0000 
     53 H          34.9970   -4.0033  -14.1419 H         1 AJ71204     0.0000 
     54 H          34.2875   -4.0990  -15.5820 H         1 AJ71204     0.0000 
     55 H          33.8447   -5.0951  -14.3996 H         1 AJ71204     0.0000 
@<TRIPOS>BOND
     1   12    1 1    
     2   13    1 2    
     3   14    1 am   
     4   14    2 1    
     5   15    2 ar   
     6   30    2 ar   
     7   15    3 ar   
     8   16    3 1    
     9   28    3 ar   
    10   17    4 ar   
    11   18    4 ar   
    12   31    4 1    
    13   18    5 1    
    14   19    5 2    
    15   20    5 am   
    16    7    6 1    
    17   23    6 1    
    18   32    6 1    
    19   33    6 1    
    20   24    7 1    
    21   34    7 1    
    22   35    7 1    
    23   24    8 1    
    24   25    8 1    
    25   36    8 1    
    26   37    8 1    
    27   18    9 ar   
    28   26    9 ar   
    29   38    9 1    
    30   11   10 1    
    31   53   10 1    
    32   54   10 1    
    33   55   10 1    
    34   12   11 2    
    35   30   11 1    
    36   39   12 1    
    37   40   14 1    
    38   41   15 1    
    39   17   16 ar   
    40   26   16 ar   
    41   42   17 1    
    42   21   20 1    
    43   43   20 1    
    44   22   21 1    
    45   44   21 1    
    46   45   21 1    
    47   23   22 1    
    48   46   22 1    
    49   47   22 1    
    50   25   23 1    
    51   48   23 1    
    52   49   25 1    
    53   50   25 1    
    54   27   26 1    
    55   29   28 ar   
    56   51   28 1    
    57   30   29 ar   
    58   52   29 1    
@<TRIPOS>SUBSTRUCTURE
     1 AJ71204     1 GROUP   
@<TRIPOS>SET

