#    Name: 4fv1_EK4_1_INTS_M
#    Modification time : Mon Mar 24 20:49:32 2014

@<TRIPOS>MOLECULE
4fv1_EK4_1_INTS_M
   78     0     9     0     0
SMALL
NO_CHARGES


@<TRIPOS>ATOM
      1 N          14.5720    3.9355   18.9115 N.am      2 SEC2        0.0000 
      2 N          15.4180    3.8000   17.8120 N.am      8 SEL2        0.0000 
      3 N          13.7260    4.0710   20.0110 N.am      5 SEP2        0.0000 
      4 CA         12.0710    9.8660   19.9335 C.3       3 GLC5        0.0000 
      5 CA         13.7430    9.0130   18.8470 C.3       9 GLL5        0.0000 
      6 CA         10.3990   10.7190   21.0200 C.3       6 GLP5        0.0000 
      7 CA         11.1200    8.8555   19.5390 C.3       3 GLC5        0.0000 
      8 CA         12.7090    8.1230   18.6420 C.3       9 GLL5        0.0000 
      9 CA          9.5310    9.5880   20.4360 C.3       6 GLP5        0.0000 
     10 O          13.2850    5.2780   12.8305 O.2       1 ALC1        0.0000 
     11 O          14.1420    5.5880   13.7100 O.2       7 ALL1        0.0000 
     12 O          12.4280    4.9680   11.9510 O.2       4 ALP1        0.0000 
     13 CA         18.1065    2.0735   16.7305 C.3       3 GLC5        0.0000 
     14 CA         17.5780    4.1160   16.8770 C.3       9 GLL5        0.0000 
     15 CA         18.6350    0.0310   16.5840 C.3       6 GLP5        0.0000 
     16 CA         16.5870    3.3635   15.0035 C.3       3 GLC5        0.0000 
     17 CA         15.5960    2.6110   13.1300 C.3       6 GLP5        0.0000 
     18 O          17.7940    2.5695   18.8770 O.2       1 ALC1        0.0000 
     19 O          18.1730    3.2640   17.7760 O.2       7 ALL1        0.0000 
     20 O          17.4150    1.8750   19.9780 O.2       4 ALP1        0.0000 
     21 CA         21.4025    3.2035   18.2600 C.3       3 GLC5        0.0000 
     22 CA         19.4850    3.1900   17.4180 C.3       9 GLL5        0.0000 
     23 CA         23.3200    3.2170   19.1020 C.3       6 GLP5        0.0000 
     24 CA         19.7060    1.5260   18.7115 C.3       3 GLC5        0.0000 
     25 CA         19.9270   -0.1380   20.0050 C.3       6 GLP5        0.0000 
     26 CA         22.1710    3.6935   17.4185 C.3       3 GLC5        0.0000 
     27 CA         21.0220    4.1700   15.7350 C.3       9 GLL5        0.0000 
     28 CA         20.2440    2.9435   14.5920 C.3       3 GLC5        0.0000 
     29 CA         19.4660    1.7170   13.4490 C.3       6 GLP5        0.0000 
     30 O          22.4770    1.9285   16.5425 O.2       1 ALC1        0.0000 
     31 O          22.0620    3.3660   16.0500 O.2       7 ALL1        0.0000 
     32 O          22.8920    0.4910   17.0350 O.2       4 ALP1        0.0000 
     33 N          24.1955    2.7705   14.9015 N.am      2 SEC2        0.0000 
     34 N          23.2140    3.7050   15.4100 N.am      8 SEL2        0.0000 
     35 N          25.1770    1.8360   14.3930 N.am      5 SEP2        0.0000 
     36 CA         20.5750    7.1865   16.8330 C.3       3 GLC5        0.0000 
     37 CA         20.1820    7.2370   14.8310 C.3       9 GLL5        0.0000 
     38 CA         20.9680    7.1360   18.8350 C.3       6 GLP5        0.0000 
     39 CA         19.9670    7.0125   10.5135 C.3       3 GLC5        0.0000 
     40 CA         20.8230    7.7640   12.1890 C.3       9 GLL5        0.0000 
     41 CA         19.1110    6.2610    8.8380 C.3       6 GLP5        0.0000 
     42 CA         21.2350    9.1690   10.5960 C.3       3 GLC5        0.0000 
     43 CA         21.6470   10.5740    9.0030 C.3       6 GLP5        0.0000 
     44 CA         21.2235    9.3990   15.6610 C.3       3 GLC5        0.0000 
     45 CA         19.0740    9.7470   16.0190 C.3       9 GLL5        0.0000 
     46 CA         23.3730    9.0510   15.3030 C.3       6 GLP5        0.0000 
     47 CA         12.7587    4.7167   15.1385 C.3       3 GLC5        0.0000 
     48 CA         14.2420    5.7330   16.1400 C.3       9 GLL5        0.0000 
     49 CA         11.4620    3.3590   14.7920 C.3       6 GLP5        0.0000 
     50 CA         15.0450    6.4805   18.9913 C.3       3 GLC5        0.0000 
     51 CA         14.1200    6.7750   17.2320 C.3       9 GLL5        0.0000 
     52 CA         15.4440    5.7530   20.6140 C.3       6 GLP5        0.0000 
     53 CA         16.8438    8.0972   18.4062 C.3       3 GLC5        0.0000 
     54 CA         15.1720    7.6410   17.5050 C.3       9 GLL5        0.0000 
     55 CA         18.6120    7.9940   18.9110 C.3       6 GLP5        0.0000 
     56 CA         14.0020   10.9062   18.0132 C.3       3 GLC5        0.0000 
     57 CA         14.9790    8.7600   18.2980 C.3       9 GLL5        0.0000 
     58 CA         13.6430   12.9260   17.4540 C.3       6 GLP5        0.0000 
     59 CA         14.2205    9.8148   20.3918 C.3       3 GLC5        0.0000 
     60 CA         14.0800   10.7430   22.2110 C.3       6 GLP5        0.0000 
     61 CA         14.9025    7.3197   19.5932 C.3       3 GLC5        0.0000 
     62 CA         14.1233    6.6597   19.4275 C.3       3 GLC5        0.0000 
     63 CA         18.3295    6.1740   17.6713 C.3       3 GLC5        0.0000 
     64 CA         19.1288    1.8053   16.7245 C.3       3 GLC5        0.0000 
     65 CA         19.7600    3.9690   16.3120 C.3       9 GLL5        0.0000 
     66 CA         19.3888    2.7261   15.1163 C.3       3 GLC5        0.0000 
     67 CA         20.6451    5.5054   17.5675 C.3       3 GLC5        0.0000 
     68 CA         22.3400    7.4100   14.8920 C.3       3 GLC5        0.0000 
     69 CA         21.5830    5.1670   14.8180 C.3       9 GLL5        0.0000 
     70 CA         20.2120    4.7260   13.2165 C.3       3 GLC5        0.0000 
     71 CA         21.0310    6.3710   14.1440 C.3       9 GLL5        0.0000 
     72 CA         19.1170    3.6830   11.9520 C.3       6 GLP5        0.0000 
     73 CA         20.1017    5.4440   12.2278 C.3       3 GLC5        0.0000 
     74 CA         21.3500    6.6460   12.8180 C.3       9 GLL5        0.0000 
     75 CA         19.7491   11.1816   15.7519 C.3       3 GLC5        0.0000 
     76 CA         20.7780   12.6500   16.2210 C.3       6 GLP5        0.0000 
     77 CA         18.4069    8.4883   17.1442 C.3       3 GLC5        0.0000 
     78 CA         21.9413    8.3763   14.2011 C.3       3 GLC5        0.0000 
@<TRIPOS>BOND
@<TRIPOS>SUBSTRUCTURE
     1 ALC1       10 GROUP        1 X    ALC  0     ROOT ALC X 1
     2 SEC2        1 GROUP        1 X    SEC  0     **** SEC X 2
     3 GLC5        4 GROUP        1 X    GLC  0     **** GLC X 6
     4 ALP1       12 GROUP        1 Y    ALP  0     ROOT ALP Y 8
     5 SEP2        3 GROUP        1 Y    SEP  0     **** SEP Y 9
     6 GLP5        6 GROUP        1 Y    GLP  0     **** GLP Y 13
     7 ALL1       11 GROUP        1 Z    ALL  0     ROOT ALL Z 15
     8 SEL2        2 GROUP        1 Z    SEL  0     **** SEL Z 16
     9 GLL5        5 GROUP        1 Z    GLL  0     **** GLL Z 20
@<TRIPOS>SET

