#    Name: 4fv1_EK4_1_ligand
#    Modification time : Mon Mar 24 20:49:32 2014

@<TRIPOS>MOLECULE
4fv1_EK4_1_ligand
   51    54     1     0     0
SMALL
NO_CHARGES


@<TRIPOS>ATOM
      1 O1         15.4180    3.8000   17.8120 O.2       1 EK4401      0.0000 
      2 C15        16.1060    4.3530   16.9520 C.2       1 EK4401      0.0000 
      3 N4         15.5890    5.1800   16.0290 N.am      1 EK4401      0.0000 
      4 C16        14.2420    5.7330   16.1400 C.3       1 EK4401      0.0000 
      5 C18        14.1200    6.7750   17.2320 C.ar      1 EK4401      0.0000 
      6 C23        15.1720    7.6410   17.5050 C.ar      1 EK4401      0.0000 
      7 C22        14.9790    8.7600   18.2980 C.ar      1 EK4401      0.0000 
      8 C21        13.7430    9.0130   18.8470 C.ar      1 EK4401      0.0000 
      9 C20        12.7090    8.1230   18.6420 C.ar      1 EK4401      0.0000 
     10 C19        12.8960    7.0100   17.8400 C.ar      1 EK4401      0.0000 
     11 C17        13.8690    6.4160   14.8300 C.3       1 EK4401      0.0000 
     12 O2         14.1420    5.5880   13.7100 O.3       1 EK4401      0.0000 
     13 C13        17.5780    4.1160   16.8770 C.2       1 EK4401      0.0000 
     14 C12        18.5160    4.5920   15.9860 C.2       1 EK4401      0.0000 
     15 N3         18.1730    3.2640   17.7760 N.pl3     1 EK4401      0.0000 
     16 C14        19.4850    3.1900   17.4180 C.2       1 EK4401      0.0000 
     17 C11        19.7600    3.9690   16.3120 C.2       1 EK4401      0.0000 
     18 C10        21.0220    4.1700   15.7350 C.2       1 EK4401      0.0000 
     19 N2         22.0620    3.3660   16.0500 N.pl3     1 EK4401      0.0000 
     20 N1         23.2140    3.7050   15.4100 N.2       1 EK4401      0.0000 
     21 C9         22.9220    4.7750   14.6850 C.2       1 EK4401      0.0000 
     22 C8         21.5830    5.1670   14.8180 C.2       1 EK4401      0.0000 
     23 C4         21.0310    6.3710   14.1440 C.ar      1 EK4401      0.0000 
     24 C3         20.1820    7.2370   14.8310 C.ar      1 EK4401      0.0000 
     25 C5         21.3500    6.6460   12.8180 C.ar      1 EK4401      0.0000 
     26 C6         20.8230    7.7640   12.1890 C.ar      1 EK4401      0.0000 
     27 C7         19.9620    8.6050   12.8750 C.ar      1 EK4401      0.0000 
     28 C2         19.6250    8.3460   14.1980 C.ar      1 EK4401      0.0000 
     29 C1         18.6090    9.1850   14.9130 C.3       1 EK4401      0.0000 
     30 F1         18.1240   10.1740   14.1800 F         1 EK4401      0.0000 
     31 F2         19.0740    9.7470   16.0190 F         1 EK4401      0.0000 
     32 F3         17.5620    8.4990   15.2890 F         1 EK4401      0.0000 
     33 H          16.1295    5.4675   15.1844 H         1 EK4401      0.0000 
     34 H          13.5161    4.9572   16.3190 H         1 EK4401      0.0000 
     35 H          16.1081    7.4461   17.1109 H         1 EK4401      0.0000 
     36 H          15.7671    9.4034   18.4752 H         1 EK4401      0.0000 
     37 H          13.5887    9.8628   19.4089 H         1 EK4401      0.0000 
     38 H          11.7915    8.2855   19.0873 H         1 EK4401      0.0000 
     39 H          12.1160    6.3470   17.6924 H         1 EK4401      0.0000 
     40 H          14.4290    7.3683   14.7802 H         1 EK4401      0.0000 
     41 H          12.7978    6.6844   14.8881 H         1 EK4401      0.0000 
     42 H          18.3916    5.2060   15.2902 H         1 EK4401      0.0000 
     43 H          17.7505    2.8220   18.4954 H         1 EK4401      0.0000 
     44 H          20.1593    2.6523   17.8824 H         1 EK4401      0.0000 
     45 H          21.9967    2.6034   16.6841 H         1 EK4401      0.0000 
     46 H          23.5487    5.2701   14.1030 H         1 EK4401      0.0000 
     47 H          19.9626    7.0535   15.8246 H         1 EK4401      0.0000 
     48 H          21.9811    6.0147   12.3024 H         1 EK4401      0.0000 
     49 H          21.0724    7.9688   11.2106 H         1 EK4401      0.0000 
     50 H          19.5657    9.4330   12.4002 H         1 EK4401      0.0000 
     51 H          13.3022    5.6018   13.1673 H         1 EK4401      0.0000 
@<TRIPOS>BOND
     1    2    1 2    
     2    3    2 am   
     3   13    2 1    
     4    4    3 1    
     5   33    3 1    
     6    5    4 1    
     7   11    4 1    
     8   34    4 1    
     9    6    5 ar   
    10   10    5 ar   
    11    7    6 ar   
    12   35    6 1    
    13    8    7 ar   
    14   36    7 1    
    15    9    8 ar   
    16   37    8 1    
    17   10    9 ar   
    18   38    9 1    
    19   39   10 1    
    20   12   11 1    
    21   40   11 1    
    22   41   11 1    
    23   51   12 1    
    24   14   13 2    
    25   15   13 1    
    26   17   14 1    
    27   42   14 1    
    28   16   15 1    
    29   43   15 1    
    30   17   16 2    
    31   44   16 1    
    32   18   17 1    
    33   19   18 1    
    34   22   18 2    
    35   20   19 1    
    36   45   19 1    
    37   21   20 2    
    38   22   21 1    
    39   46   21 1    
    40   23   22 1    
    41   24   23 ar   
    42   25   23 ar   
    43   28   24 ar   
    44   47   24 1    
    45   26   25 ar   
    46   48   25 1    
    47   27   26 ar   
    48   49   26 1    
    49   28   27 ar   
    50   50   27 1    
    51   29   28 1    
    52   30   29 1    
    53   31   29 1    
    54   32   29 1    
@<TRIPOS>SUBSTRUCTURE
     1 EK4401      1 GROUP   
@<TRIPOS>SET

