#    Name: 4ajm_3A6_1_INTS_M
#    Modification time : Tue Mar 25 05:36:53 2014

@<TRIPOS>MOLECULE
4ajm_3A6_1_INTS_M
   60     0     6     0     0
SMALL
NO_CHARGES


@<TRIPOS>ATOM
      1 CA         17.3955   41.5145   16.9380 C.3       2 GLC5        0.0000 
      2 CA         17.2690   39.5270   17.8170 C.3       6 GLL5        0.0000 
      3 CA         17.5220   43.5020   16.0590 C.3       4 GLP5        0.0000 
      4 CA         15.5205   38.4195   17.5450 C.3       2 GLC5        0.0000 
      5 CA         13.7720   37.3120   17.2730 C.3       4 GLP5        0.0000 
      6 CA         21.7985   37.7315   23.0990 C.3       2 GLC5        0.0000 
      7 CA         22.3500   37.2260   21.2510 C.3       6 GLL5        0.0000 
      8 CA         21.2470   38.2370   24.9470 C.3       4 GLP5        0.0000 
      9 CA         21.5750   39.3955   19.2275 C.3       2 GLC5        0.0000 
     10 CA         21.4780   37.5790   20.2340 C.3       6 GLL5        0.0000 
     11 CA         21.6720   41.2120   18.2210 C.3       4 GLP5        0.0000 
     12 CA         28.6525   35.0790   21.9880 C.3       2 GLC5        0.0000 
     13 CA         28.2610   35.8160   23.7210 C.3       6 GLL5        0.0000 
     14 CA         29.0440   34.3420   20.2550 C.3       4 GLP5        0.0000 
     15 CA         28.3095   36.4670   21.4690 C.3       2 GLC5        0.0000 
     16 CA         27.2230   36.0710   22.8550 C.3       6 GLL5        0.0000 
     17 CA         29.3960   36.8630   20.0830 C.3       4 GLP5        0.0000 
     18 CA         27.4715   34.9850   21.7085 C.3       2 GLC5        0.0000 
     19 CA         25.8990   35.6280   23.1620 C.3       6 GLL5        0.0000 
     20 N          25.2025   36.1850   21.0285 N.am      1 SEC2        0.0000 
     21 N          24.8770   35.8660   22.3290 N.am      5 SEL2        0.0000 
     22 N          25.5280   36.5040   19.7280 N.am      3 SEP2        0.0000 
     23 CA         30.3725   35.9620   26.1985 C.3       2 GLC5        0.0000 
     24 CA         29.0840   34.8080   25.7530 C.3       6 GLL5        0.0000 
     25 CA         31.6610   37.1160   26.6440 C.3       4 GLP5        0.0000 
     26 CA         24.0245   28.8120   27.6020 C.3       2 GLC5        0.0000 
     27 CA         23.0410   30.3910   27.5910 C.3       6 GLL5        0.0000 
     28 CA         25.0080   27.2330   27.6130 C.3       4 GLP5        0.0000 
     29 CA         19.1445   39.6080   16.5448 C.3       2 GLC5        0.0000 
     30 CA         18.1990   38.3730   17.5460 C.3       6 GLL5        0.0000 
     31 CA         20.5550   40.2660   15.4080 C.3       4 GLP5        0.0000 
     32 CA         20.0307   38.8700   16.9285 C.3       2 GLC5        0.0000 
     33 CA         19.0340   37.9810   18.5660 C.3       6 GLL5        0.0000 
     34 CA         18.7770   35.4315   15.0813 C.3       2 GLC5        0.0000 
     35 CA         19.0610   36.7380   16.1310 C.3       6 GLL5        0.0000 
     36 CA         18.0290   34.3300   13.5600 C.3       4 GLP5        0.0000 
     37 CA         20.0400   38.3995   16.0053 C.3       2 GLC5        0.0000 
     38 CA         22.6825   33.4627   19.3970 C.3       2 GLC5        0.0000 
     39 CA         21.2190   35.2500   19.6610 C.3       6 GLL5        0.0000 
     40 CA         23.7190   31.8540   18.6220 C.3       4 GLP5        0.0000 
     41 CA         20.6245   33.6957   20.2140 C.3       2 GLC5        0.0000 
     42 CA         22.0730   34.8930   20.6830 C.3       6 GLL5        0.0000 
     43 CA         19.6030   32.3200   20.2560 C.3       4 GLP5        0.0000 
     44 CA         23.5050   36.8550   23.5542 C.3       2 GLC5        0.0000 
     45 CA         22.6560   35.8790   21.4870 C.3       6 GLL5        0.0000 
     46 CA         23.8700   38.0160   25.0900 C.3       4 GLP5        0.0000 
     47 CA         24.3328   33.4875   22.6093 C.3       2 GLC5        0.0000 
     48 CA         23.6240   35.5090   22.5500 C.3       6 GLL5        0.0000 
     49 CA         25.2340   31.8350   22.0880 C.3       4 GLP5        0.0000 
     50 CA         24.2882   36.3796   24.6791 C.3       2 GLC5        0.0000 
     51 CA         25.6590   34.8900   24.3640 C.3       6 GLL5        0.0000 
     52 CA         26.3485   36.6595   25.2548 C.3       2 GLC5        0.0000 
     53 CA         26.7550   34.6440   25.2320 C.3       6 GLL5        0.0000 
     54 CA         25.3020   38.4560   25.4380 C.3       4 GLP5        0.0000 
     55 CA         26.0613   37.1209   24.3315 C.3       2 GLC5        0.0000 
     56 CA         25.5566   33.4870   23.0509 C.3       2 GLC5        0.0000 
     57 CA         27.8128   35.3768   26.9711 C.3       2 GLC5        0.0000 
     58 CA         27.3860   35.9180   28.5300 C.3       4 GLP5        0.0000 
     59 CA         29.8805   33.9592   24.7417 C.3       2 GLC5        0.0000 
     60 CA         31.1450   32.7900   24.4490 C.3       4 GLP5        0.0000 
@<TRIPOS>BOND
@<TRIPOS>SUBSTRUCTURE
     1 SEC2       20 GROUP        1 X    SEC  0     ROOT SEC X 2
     2 GLC5        1 GROUP        1 X    GLC  0     **** GLC X 6
     3 SEP2       22 GROUP        1 Y    SEP  0     ROOT SEP Y 9
     4 GLP5        3 GROUP        1 Y    GLP  0     **** GLP Y 13
     5 SEL2       21 GROUP        1 Z    SEL  0     ROOT SEL Z 16
     6 GLL5        2 GROUP        1 Z    GLL  0     **** GLL Z 20
@<TRIPOS>SET

