#    Name: 4ajm_3A6_1_ligand
#    Modification time : Tue Mar 25 05:36:53 2014

@<TRIPOS>MOLECULE
4ajm_3A6_1_ligand
   51    54     1     0     0
SMALL
NO_CHARGES


@<TRIPOS>ATOM
      1 C1         17.2690   39.5270   17.8170 C.3       1 3A61769     0.0000 
      2 C2         18.1990   38.3730   17.5460 C.ar      1 3A61769     0.0000 
      3 C3         19.0340   37.9810   18.5660 C.ar      1 3A61769     0.0000 
      4 C4         19.9790   36.9670   18.3320 C.ar      1 3A61769     0.0000 
      5 C5         19.9890   36.3280   17.0740 C.ar      1 3A61769     0.0000 
      6 C6         19.0610   36.7380   16.1310 C.ar      1 3A61769     0.0000 
      7 N7         18.2050   37.7300   16.3780 N.ar      1 3A61769     0.0000 
      8 C8         20.9190   36.5890   19.4210 C.ar      1 3A61769     0.0000 
      9 C9         21.2190   35.2500   19.6610 C.ar      1 3A61769     0.0000 
     10 C10        22.0730   34.8930   20.6830 C.ar      1 3A61769     0.0000 
     11 C11        22.6560   35.8790   21.4870 C.ar      1 3A61769     0.0000 
     12 C12        22.3500   37.2260   21.2510 C.ar      1 3A61769     0.0000 
     13 C13        21.4780   37.5790   20.2340 C.ar      1 3A61769     0.0000 
     14 C14        23.6240   35.5090   22.5500 C.ar      1 3A61769     0.0000 
     15 C15        23.2390   34.7710   23.7110 C.ar      1 3A61769     0.0000 
     16 C16        24.2690   34.4220   24.6340 C.ar      1 3A61769     0.0000 
     17 C17        25.6590   34.8900   24.3640 C.ar      1 3A61769     0.0000 
     18 C18        26.7550   34.6440   25.2320 C.ar      1 3A61769     0.0000 
     19 C19        28.0350   35.0820   24.9110 C.ar      1 3A61769     0.0000 
     20 C20        28.2610   35.8160   23.7210 C.ar      1 3A61769     0.0000 
     21 C21        27.2230   36.0710   22.8550 C.ar      1 3A61769     0.0000 
     22 C22        25.8990   35.6280   23.1620 C.ar      1 3A61769     0.0000 
     23 N23        24.8770   35.8660   22.3290 N.ar      1 3A61769     0.0000 
     24 F24        29.0840   34.8080   25.7530 F         1 3A61769     0.0000 
     25 C25        23.9480   33.8890   25.9670 C.2       1 3A61769     0.0000 
     26 O26        23.8950   34.7060   26.8790 O.2       1 3A61769     0.0000 
     27 N27        23.7340   32.5970   26.2330 N.pl3     1 3A61769     0.0000 
     28 S28        23.4040   32.1530   27.8060 S.o2      1 3A61769     0.0000 
     29 O29        24.6070   32.3320   28.5550 O.2       1 3A61769     0.0000 
     30 O30        22.2260   32.8650   28.1800 O.2       1 3A61769     0.0000 
     31 C31        23.0410   30.3910   27.5910 C.3       1 3A61769     0.0000 
     32 N32        21.8950   34.4210   23.9380 N.pl3     1 3A61769     0.0000 
     33 H          18.9788   38.4150   19.4918 H         1 3A61769     0.0000 
     34 H          20.6577   35.5949   16.8788 H         1 3A61769     0.0000 
     35 H          19.0492   36.2413   15.2059 H         1 3A61769     0.0000 
     36 H          20.7937   34.5209   19.0631 H         1 3A61769     0.0000 
     37 H          22.2879   33.9023   20.8623 H         1 3A61769     0.0000 
     38 H          22.7797   37.9528   21.8412 H         1 3A61769     0.0000 
     39 H          21.2392   38.5650   20.0733 H         1 3A61769     0.0000 
     40 H          26.5863   34.1320   26.1104 H         1 3A61769     0.0000 
     41 H          29.2122   36.1522   23.5195 H         1 3A61769     0.0000 
     42 H          27.3758   36.5811   21.9763 H         1 3A61769     0.0000 
     43 H          23.7380   31.8161   25.6234 H         1 3A61769     0.0000 
     44 H          21.2461   34.6794   23.2223 H         1 3A61769     0.0000 
     45 H          21.7034   33.9437   24.7956 H         1 3A61769     0.0000 
     46 H          17.7696   40.3603   18.0516 H         1 3A61769     0.0000 
     47 H          16.7006   39.7404   17.0224 H         1 3A61769     0.0000 
     48 H          16.6490   39.3337   18.5774 H         1 3A61769     0.0000 
     49 H          23.8177   29.8968   27.2005 H         1 3A61769     0.0000 
     50 H          22.8192   29.9488   28.4600 H         1 3A61769     0.0000 
     51 H          22.2629   30.2439   26.9803 H         1 3A61769     0.0000 
@<TRIPOS>BOND
     1    2    1 1    
     2   46    1 1    
     3   47    1 1    
     4   48    1 1    
     5    3    2 ar   
     6    7    2 ar   
     7    4    3 ar   
     8   33    3 1    
     9    5    4 ar   
    10    8    4 1    
    11    6    5 ar   
    12   34    5 1    
    13    7    6 ar   
    14   35    6 1    
    15    9    8 ar   
    16   13    8 ar   
    17   10    9 ar   
    18   36    9 1    
    19   11   10 ar   
    20   37   10 1    
    21   12   11 ar   
    22   14   11 1    
    23   13   12 ar   
    24   38   12 1    
    25   39   13 1    
    26   15   14 ar   
    27   23   14 ar   
    28   16   15 ar   
    29   32   15 1    
    30   17   16 ar   
    31   25   16 1    
    32   18   17 ar   
    33   22   17 ar   
    34   19   18 ar   
    35   40   18 1    
    36   20   19 ar   
    37   24   19 1    
    38   21   20 ar   
    39   41   20 1    
    40   22   21 ar   
    41   42   21 1    
    42   23   22 ar   
    43   26   25 2    
    44   27   25 am   
    45   28   27 1    
    46   43   27 1    
    47   29   28 2    
    48   30   28 2    
    49   31   28 1    
    50   49   31 1    
    51   50   31 1    
    52   51   31 1    
    53   44   32 1    
    54   45   32 1    
@<TRIPOS>SUBSTRUCTURE
     1 3A61769     1 GROUP   
@<TRIPOS>SET

