#    Name: 4g5d_NDP_2_INTS_M
#    Modification time : Mon Mar 24 21:24:43 2014

@<TRIPOS>MOLECULE
4g5d_NDP_2_INTS_M
  118     0    12     0     0
SMALL
NO_CHARGES


@<TRIPOS>ATOM
      1 N           1.4580   12.0760   38.9230 N.am      2 SEC2        0.0000 
      2 N           1.1370   12.8530   37.7940 N.am     10 SEL2        0.0000 
      3 N           1.7790   11.2990   40.0520 N.am      6 SEP2        0.0000 
      4 N           1.0920   14.2020   38.4685 N.am      2 SEC2        0.0000 
      5 N           1.0470   15.5510   39.1430 N.am      6 SEP2        0.0000 
      6 N           2.2655   10.8795   34.5310 N.am      2 SEC2        0.0000 
      7 N           1.9640   11.6020   35.6580 N.am     10 SEL2        0.0000 
      8 N           2.5670   10.1570   33.4040 N.am      6 SEP2        0.0000 
      9 CA          2.9310   14.2065   32.9805 C.3       4 GLC5        0.0000 
     10 CA          3.2420   14.3430   35.0010 C.3      12 GLL5        0.0000 
     11 CA          2.6200   14.0700   30.9600 C.3       8 GLP5        0.0000 
     12 CA          4.6275   16.0525   37.0520 C.3       4 GLC5        0.0000 
     13 CA          4.2670   15.4610   35.1840 C.3      12 GLL5        0.0000 
     14 CA          4.9880   16.6440   38.9200 C.3       8 GLP5        0.0000 
     15 CA          3.6940   15.0295   32.4020 C.3       4 GLC5        0.0000 
     16 CA          4.7680   15.9890   33.8440 C.3      12 GLL5        0.0000 
     17 CA          5.7915   15.8605   36.9915 C.3       4 GLC5        0.0000 
     18 CA          6.5950   15.0770   35.0630 C.3      12 GLL5        0.0000 
     19 N           7.5380   10.1150   35.0825 N.am      2 SEC2        0.0000 
     20 N           7.8100   11.6220   35.3100 N.am     10 SEL2        0.0000 
     21 N           7.2660    8.6080   34.8550 N.am      6 SEP2        0.0000 
     22 CA          7.1695   11.5930   36.8660 C.3       4 GLC5        0.0000 
     23 CA          8.8260   12.2700   35.9250 C.3      12 GLL5        0.0000 
     24 CA          5.5130   10.9160   37.8070 C.3       8 GLP5        0.0000 
     25 CA          9.6440   10.8810   38.2425 C.3       4 GLC5        0.0000 
     26 CA         10.0950   11.8730   36.5620 C.3      12 GLL5        0.0000 
     27 CA          9.1930    9.8890   39.9230 C.3       8 GLP5        0.0000 
     28 CA         10.9110   12.0150   34.9025 C.3       4 GLC5        0.0000 
     29 CA         11.7270   12.1570   33.2430 C.3       8 GLP5        0.0000 
     30 O          11.5340   10.0580   37.4295 O.2       1 ALC1        0.0000 
     31 O          10.4430   10.5720   36.6330 O.2       9 ALL1        0.0000 
     32 O          12.6250    9.5440   38.2260 O.2       5 ALP1        0.0000 
     33 O           9.7190    9.4225   36.4550 O.2       1 ALC1        0.0000 
     34 O           8.9950    8.2730   36.2770 O.2       5 ALP1        0.0000 
     35 N          11.8840   12.3310   37.9800 N.am      2 SEC2        0.0000 
     36 N          10.8750   12.8390   37.0840 N.am     10 SEL2        0.0000 
     37 N          12.8930   11.8230   38.8760 N.am      6 SEP2        0.0000 
     38 CA          9.2945   14.1805   38.2780 C.3       4 GLC5        0.0000 
     39 CA         10.5310   14.1420   37.0240 C.3      12 GLL5        0.0000 
     40 CA          8.0580   14.2190   39.5320 C.3       8 GLP5        0.0000 
     41 CA         10.8015   13.8270   35.0885 C.3       4 GLC5        0.0000 
     42 CA         11.0720   13.5120   33.1530 C.3       8 GLP5        0.0000 
     43 N          -2.3700   14.5340   36.5520 N.am      2 SEC2        0.0000 
     44 N          -1.7210   14.5660   35.4690 N.am     10 SEL2        0.0000 
     45 N          -3.0190   14.5020   37.6350 N.am      6 SEP2        0.0000 
     46 N          -2.2090   11.8205   36.3685 N.am      2 SEC2        0.0000 
     47 N          -1.4830   12.0860   35.1130 N.am     10 SEL2        0.0000 
     48 N          -2.9350   11.5550   37.6240 N.am      6 SEP2        0.0000 
     49 CA         -1.5085   11.6815   36.3065 C.3       4 GLC5        0.0000 
     50 CA         -1.0690   10.9490   34.3380 C.3      12 GLL5        0.0000 
     51 CA         -1.9480   12.4140   38.2750 C.3       8 GLP5        0.0000 
     52 CA         -0.7945   10.3970   36.1060 C.3       4 GLC5        0.0000 
     53 CA         -0.5200    9.8450   37.8740 C.3       8 GLP5        0.0000 
     54 CA          0.5885    9.6515   34.6645 C.3       4 GLC5        0.0000 
     55 CA          2.2460    8.3540   34.9910 C.3       8 GLP5        0.0000 
     56 CA         -3.1435    8.7615   33.5400 C.3       4 GLC5        0.0000 
     57 CA         -2.1770   10.4710   33.3950 C.3      12 GLL5        0.0000 
     58 CA         -4.1100    7.0520   33.6850 C.3       8 GLP5        0.0000 
     59 N          -1.8050   12.2605   30.0090 N.am      2 SEC2        0.0000 
     60 N          -1.4850   11.7270   31.4000 N.am     10 SEL2        0.0000 
     61 N          -2.1250   12.7940   28.6180 N.am      6 SEP2        0.0000 
     62 CA         -4.8145   11.4415   30.0365 C.3       4 GLC5        0.0000 
     63 CA         -3.8100   11.0200   31.8250 C.3      12 GLL5        0.0000 
     64 CA         -5.8190   11.8630   28.2480 C.3       8 GLP5        0.0000 
     65 O          -4.5000    8.9900   30.7520 O.2       1 ALC1        0.0000 
     66 O          -3.5390    9.8910   30.9630 O.2       9 ALL1        0.0000 
     67 O          -5.4610    8.0890   30.5410 O.2       5 ALP1        0.0000 
     68 CA         -5.0380   10.3760   34.8780 C.3       4 GLC5        0.0000 
     69 CA         -4.4830   10.5670   33.1130 C.3      12 GLL5        0.0000 
     70 CA         -5.5930   10.1850   36.6430 C.3       8 GLP5        0.0000 
     71 CA         -7.8430   10.1450   32.2395 C.3       4 GLC5        0.0000 
     72 CA         -6.7050   11.3600   33.6470 C.3      12 GLL5        0.0000 
     73 CA         -8.9810    8.9300   30.8320 C.3       8 GLP5        0.0000 
     74 N         -10.2125   12.9395   32.7505 N.am      2 SEC2        0.0000 
     75 N          -9.8490   12.9220   34.3150 N.am     10 SEL2        0.0000 
     76 N         -10.5760   12.9570   31.1860 N.am      6 SEP2        0.0000 
     77 N         -11.0420   12.6865   35.0995 N.am      2 SEC2        0.0000 
     78 N         -12.2350   12.4510   35.8840 N.am      6 SEP2        0.0000 
     79 O         -10.5265   10.0745   34.4605 O.2       1 ALC1        0.0000 
     80 O          -9.5060   10.7030   33.9720 O.2       9 ALL1        0.0000 
     81 O         -11.5470    9.4460   34.9490 O.2       5 ALP1        0.0000 
     82 O          -8.5550    9.5940   33.9260 O.2       1 ALC1        0.0000 
     83 O          -7.6040    8.4850   33.8800 O.2       5 ALP1        0.0000 
     84 CA         -4.2325   13.4710   32.0960 C.3       4 GLC5        0.0000 
     85 CA         -4.9140   12.7940   34.0780 C.3      12 GLL5        0.0000 
     86 CA         -3.5510   14.1480   30.1140 C.3       8 GLP5        0.0000 
     87 NZ          9.4695   15.5345   32.3850 N.4       3 LYC4        0.0000 
     88 NZ          8.5600   14.8540   31.4190 N.4      11 LYL4        0.0000 
     89 NZ         11.4870   15.7990   33.9600 N.4       7 LYP4        0.0000 
     90 N           8.4955   13.5180   31.0380 N.am      2 SEC2        0.0000 
     91 N           8.5600   14.8540   31.4190 N.am     10 SEL2        0.0000 
     92 N           8.4310   12.1820   30.6570 N.am      6 SEP2        0.0000 
     93 N           9.4910   15.2220   30.4625 N.am      2 SEC2        0.0000 
     94 N          10.4220   15.5900   29.5060 N.am      6 SEP2        0.0000 
     95 N           9.4695   15.5345   32.3850 N.am      2 SEC2        0.0000 
     96 N          10.3790   16.2150   33.3510 N.am      6 SEP2        0.0000 
     97 NZ          4.8795   15.6615   30.4060 N.4       3 LYC4        0.0000 
     98 NZ          6.1250   15.1580   30.7230 N.4      11 LYL4        0.0000 
     99 NZ          3.6340   16.1650   30.0890 N.4       7 LYP4        0.0000 
    100 N           4.8795   15.6615   30.4060 N.am      2 SEC2        0.0000 
    101 N           6.1250   15.1580   30.7230 N.am     10 SEL2        0.0000 
    102 N           3.6340   16.1650   30.0890 N.am      6 SEP2        0.0000 
    103 N           6.4335   14.1240   29.6230 N.am      2 SEC2        0.0000 
    104 N           6.7420   13.0900   28.5230 N.am      6 SEP2        0.0000 
    105 CA          2.5473   15.6550   36.5378 C.3       4 GLC5        0.0000 
    106 CA          1.3400   16.4080   37.9830 C.3       8 GLP5        0.0000 
    107 CA          9.8685   13.2488   34.5348 C.3       4 GLC5        0.0000 
    108 CA          8.5040   13.7010   35.9080 C.3      12 GLL5        0.0000 
    109 CA          8.5201   13.5526   37.8039 C.3       4 GLC5        0.0000 
    110 CA         -3.3548   12.7135   31.1067 C.3       4 GLC5        0.0000 
    111 CA         -2.5070   11.5380   32.3740 C.3      12 GLL5        0.0000 
    112 CA         -0.1460   11.4825   32.4806 C.3       4 GLC5        0.0000 
    113 CA          1.7730   11.8410   31.8410 C.3       8 GLP5        0.0000 
    114 CA         -1.8145    9.8686   31.3484 C.3       4 GLC5        0.0000 
    115 CA         -0.5530    8.7250   30.3420 C.3       8 GLP5        0.0000 
    116 CA         -4.1282    8.9228   33.0770 C.3       4 GLC5        0.0000 
    117 CA         -6.3778   11.0065   35.2595 C.3       4 GLC5        0.0000 
    118 CA         -5.6431   11.7235   35.4876 C.3       4 GLC5        0.0000 
@<TRIPOS>BOND
@<TRIPOS>SUBSTRUCTURE
     1 ALC1       30 GROUP        1 X    ALC  0     ROOT ALC X 1
     2 SEC2        1 GROUP        1 X    SEC  0     **** SEC X 2
     3 LYC4       87 GROUP        1 X    LYC  0     **** LYC X 4
     4 GLC5        9 GROUP        1 X    GLC  0     **** GLC X 6
     5 ALP1       32 GROUP        1 Y    ALP  0     ROOT ALP Y 8
     6 SEP2        3 GROUP        1 Y    SEP  0     **** SEP Y 9
     7 LYP4       89 GROUP        1 Y    LYP  0     **** LYP Y 11
     8 GLP5       11 GROUP        1 Y    GLP  0     **** GLP Y 13
     9 ALL1       31 GROUP        1 Z    ALL  0     ROOT ALL Z 15
    10 SEL2        2 GROUP        1 Z    SEL  0     **** SEL Z 16
    11 LYL4       88 GROUP        1 Z    LYL  0     **** LYL Z 18
    12 GLL5       10 GROUP        1 Z    GLL  0     **** GLL Z 20
@<TRIPOS>SET

