#    Name: 4g5d_NDP_2_ligand
#    Modification time : Mon Mar 24 21:24:43 2014

@<TRIPOS>MOLECULE
4g5d_NDP_2_ligand
   74    78     1     0     0
SMALL
NO_CHARGES


@<TRIPOS>ATOM
      1 PA          1.5860   12.8690   36.3550 P.3       1 NDP301      0.0000 
      2 O1A         1.1370   12.8530   37.7940 O.co2     1 NDP301      0.0000 
      3 O2A         1.9640   11.6020   35.6580 O.co2     1 NDP301      0.0000 
      4 O5B         2.8140   13.9040   36.2880 O.3       1 NDP301      0.0000 
      5 C5B         3.2420   14.3430   35.0010 C.3       1 NDP301      0.0000 
      6 C4B         4.2670   15.4610   35.1840 C.3       1 NDP301      0.0000 
      7 O4B         5.4190   14.9750   35.8850 O.3       1 NDP301      0.0000 
      8 C3B         4.7680   15.9890   33.8440 C.3       1 NDP301      0.0000 
      9 O3B         4.9580   17.4090   33.9980 O.3       1 NDP301      0.0000 
     10 C2B         6.0940   15.2670   33.6370 C.3       1 NDP301      0.0000 
     11 O2B         6.9790   16.0740   32.8680 O.3       1 NDP301      0.0000 
     12 C1B         6.5950   15.0770   35.0630 C.3       1 NDP301      0.0000 
     13 N9A         7.3290   13.8060   35.2780 N.pl3     1 NDP301      0.0000 
     14 C8A         6.9090   12.5650   34.9340 C.2       1 NDP301      0.0000 
     15 N7A         7.8100   11.6220   35.3100 N.2       1 NDP301      0.0000 
     16 C5A         8.8260   12.2700   35.9250 C.ar      1 NDP301      0.0000 
     17 C6A        10.0950   11.8730   36.5620 C.ar      1 NDP301      0.0000 
     18 N6A        10.4430   10.5720   36.6330 N.pl3     1 NDP301      0.0000 
     19 N1A        10.8750   12.8390   37.0840 N.ar      1 NDP301      0.0000 
     20 C2A        10.5310   14.1420   37.0240 C.ar      1 NDP301      0.0000 
     21 N3A         9.3880   14.5810   36.4520 N.ar      1 NDP301      0.0000 
     22 C4A         8.5040   13.7010   35.9080 C.ar      1 NDP301      0.0000 
     23 O3          0.5160   13.7880   35.5860 O.3       1 NDP301      0.0000 
     24 PN         -0.8510   13.5370   34.7700 P.3       1 NDP301      0.0000 
     25 O1N        -1.7210   14.5660   35.4690 O.co2     1 NDP301      0.0000 
     26 O2N        -0.5660   13.7380   33.2850 O.co2     1 NDP301      0.0000 
     27 O5D        -1.4830   12.0860   35.1130 O.3       1 NDP301      0.0000 
     28 C5D        -1.0690   10.9490   34.3380 C.3       1 NDP301      0.0000 
     29 C4D        -2.1770   10.4710   33.3950 C.3       1 NDP301      0.0000 
     30 O4D        -3.4300   10.3300   34.0560 O.3       1 NDP301      0.0000 
     31 C3D        -2.5070   11.5380   32.3740 C.3       1 NDP301      0.0000 
     32 O3D        -1.4850   11.7270   31.4000 O.3       1 NDP301      0.0000 
     33 C2D        -3.8100   11.0200   31.8250 C.3       1 NDP301      0.0000 
     34 O2D        -3.5390    9.8910   30.9630 O.3       1 NDP301      0.0000 
     35 C1D        -4.4830   10.5670   33.1130 C.3       1 NDP301      0.0000 
     36 N1N        -5.3860   11.6120   33.6300 N.pl3     1 NDP301      0.0000 
     37 C2N        -6.7050   11.3600   33.6470 C.2       1 NDP301      0.0000 
     38 C3N        -7.6200   12.2960   34.1050 C.2       1 NDP301      0.0000 
     39 C7N        -9.0810   11.9780   34.1230 C.2       1 NDP301      0.0000 
     40 O7N        -9.8490   12.9220   34.3150 O.2       1 NDP301      0.0000 
     41 N7N        -9.5060   10.7030   33.9720 N.am      1 NDP301      0.0000 
     42 C4N        -7.1950   13.6470   34.6150 C.3       1 NDP301      0.0000 
     43 C5N        -5.7500   13.8130   34.5580 C.2       1 NDP301      0.0000 
     44 C6N        -4.9140   12.7940   34.0780 C.2       1 NDP301      0.0000 
     45 P2B         7.3540   15.7680   31.3280 P.3       1 NDP301      0.0000 
     46 O1X         8.5600   14.8540   31.4190 O.co2     1 NDP301      0.0000 
     47 O2X         7.6690   17.1840   30.8600 O.co2     1 NDP301      0.0000 
     48 O3X         6.1250   15.1580   30.7230 O.co2     1 NDP301      0.0000 
     49 H           2.4153   14.7410   34.4095 H         1 NDP301      0.0000 
     50 H           3.7193   13.5415   34.4339 H         1 NDP301      0.0000 
     51 H           3.8112   16.2746   35.7164 H         1 NDP301      0.0000 
     52 H           4.0923   15.7258   33.1005 H         1 NDP301      0.0000 
     53 H           5.8928   14.3192   33.2202 H         1 NDP301      0.0000 
     54 H           7.1779   15.9082   35.3553 H         1 NDP301      0.0000 
     55 H           6.0651   12.3716   34.4737 H         1 NDP301      0.0000 
     56 H          11.4240   10.3795   36.6562 H         1 NDP301      0.0000 
     57 H           9.6891    9.9155   36.6562 H         1 NDP301      0.0000 
     58 H          11.1916   14.8605   37.4477 H         1 NDP301      0.0000 
     59 H          -0.7928   10.0999   34.9856 H         1 NDP301      0.0000 
     60 H          -0.1844   11.1828   33.7219 H         1 NDP301      0.0000 
     61 H          -1.8946    9.5949   32.8885 H         1 NDP301      0.0000 
     62 H          -2.7355   12.4396   32.9342 H         1 NDP301      0.0000 
     63 H          -4.3438   11.7868   31.3984 H         1 NDP301      0.0000 
     64 H          -5.0221    9.6668   32.9110 H         1 NDP301      0.0000 
     65 H          -7.0714   10.4372   33.3092 H         1 NDP301      0.0000 
     66 H          -8.7939   10.0161   33.8267 H         1 NDP301      0.0000 
     67 H         -10.4946   10.5602   34.0191 H         1 NDP301      0.0000 
     68 H          -7.5568   13.7606   35.6508 H         1 NDP301      0.0000 
     69 H          -7.6975   14.4230   34.0133 H         1 NDP301      0.0000 
     70 H          -5.3559   14.7038   34.8814 H         1 NDP301      0.0000 
     71 H          -3.8779   12.9811   34.0764 H         1 NDP301      0.0000 
     72 H           5.9118   17.5713   33.7452 H         1 NDP301      0.0000 
     73 H          -0.9195   12.4694   31.7592 H         1 NDP301      0.0000 
     74 H          -4.3934    9.3720   30.9402 H         1 NDP301      0.0000 
@<TRIPOS>BOND
     1    2    1 ar   
     2    3    1 ar   
     3    4    1 1    
     4   23    1 1    
     5    5    4 1    
     6    6    5 1    
     7   49    5 1    
     8   50    5 1    
     9    7    6 1    
    10    8    6 1    
    11   51    6 1    
    12   12    7 1    
    13    9    8 1    
    14   10    8 1    
    15   52    8 1    
    16   72    9 1    
    17   11   10 1    
    18   12   10 1    
    19   53   10 1    
    20   45   11 1    
    21   13   12 1    
    22   54   12 1    
    23   14   13 1    
    24   22   13 1    
    25   15   14 2    
    26   55   14 1    
    27   16   15 1    
    28   17   16 ar   
    29   22   16 ar   
    30   18   17 1    
    31   19   17 ar   
    32   56   18 1    
    33   57   18 1    
    34   20   19 ar   
    35   21   20 ar   
    36   58   20 1    
    37   22   21 ar   
    38   24   23 1    
    39   25   24 ar   
    40   26   24 ar   
    41   27   24 1    
    42   28   27 1    
    43   29   28 1    
    44   59   28 1    
    45   60   28 1    
    46   30   29 1    
    47   31   29 1    
    48   61   29 1    
    49   35   30 1    
    50   32   31 1    
    51   33   31 1    
    52   62   31 1    
    53   73   32 1    
    54   34   33 1    
    55   35   33 1    
    56   63   33 1    
    57   74   34 1    
    58   36   35 1    
    59   64   35 1    
    60   37   36 1    
    61   44   36 1    
    62   38   37 2    
    63   65   37 1    
    64   39   38 1    
    65   42   38 1    
    66   40   39 2    
    67   41   39 am   
    68   66   41 1    
    69   67   41 1    
    70   43   42 1    
    71   68   42 1    
    72   69   42 1    
    73   44   43 2    
    74   70   43 1    
    75   71   44 1    
    76   46   45 ar   
    77   47   45 ar   
    78   48   45 ar   
@<TRIPOS>SUBSTRUCTURE
     1 NDP301      1 GROUP   
@<TRIPOS>SET

