#    Name: 2pnu_ENM_1_INTS_M
#    Modification time : Mon Mar 24 19:14:53 2014

@<TRIPOS>MOLECULE
2pnu_ENM_1_INTS_M
  101     0     9     0     0
SMALL
NO_CHARGES


@<TRIPOS>ATOM
      1 CA         32.0750    2.9235   10.3470 C.3       3 GLC5        0.0000 
      2 CA         30.5150    2.1340   11.4970 C.3       9 GLL5        0.0000 
      3 CA         33.6350    3.7130    9.1970 C.3       6 GLP5        0.0000 
      4 CA         30.4470    5.1830   13.6465 C.3       3 GLC5        0.0000 
      5 CA         30.3230    3.2570   13.6150 C.3       9 GLL5        0.0000 
      6 CA         30.5710    7.1090   13.6780 C.3       6 GLP5        0.0000 
      7 CA         29.4350    3.2505   15.4760 C.3       3 GLC5        0.0000 
      8 CA         28.5470    3.2440   17.3370 C.3       6 GLP5        0.0000 
      9 CA         29.3305    2.1990    9.3200 C.3       3 GLC5        0.0000 
     10 CA         30.5500    1.0170    9.3300 C.3       9 GLL5        0.0000 
     11 CA         28.1110    3.3810    9.3100 C.3       6 GLP5        0.0000 
     12 CA         32.0925    2.3650    9.2635 C.3       3 GLC5        0.0000 
     13 CA         29.0920    2.0025    8.1700 C.3       3 GLC5        0.0000 
     14 CA         30.0730    0.6240    7.0300 C.3       9 GLL5        0.0000 
     15 CA         29.5595    2.2395    2.3925 C.3       3 GLC5        0.0000 
     16 CA         29.6980    1.8150    4.3850 C.3       9 GLL5        0.0000 
     17 CA         29.4210    2.6640    0.4000 C.3       6 GLP5        0.0000 
     18 CA         31.3745    2.5595    3.6840 C.3       3 GLC5        0.0000 
     19 CA         33.0510    3.3040    2.9830 C.3       6 GLP5        0.0000 
     20 CA         29.7200    4.5145    5.4605 C.3       3 GLC5        0.0000 
     21 CA         28.7030    2.8900    4.9300 C.3       9 GLL5        0.0000 
     22 CA         30.7370    6.1390    5.9910 C.3       6 GLP5        0.0000 
     23 CA         28.6300    3.7015    6.7655 C.3       3 GLC5        0.0000 
     24 CA         28.5570    4.5130    8.6010 C.3       6 GLP5        0.0000 
     25 CA         28.3565    2.7060    2.3355 C.3       3 GLC5        0.0000 
     26 CA         27.2920    2.7480    4.2710 C.3       9 GLL5        0.0000 
     27 CA         27.2935    4.1090    7.4400 C.3       3 GLC5        0.0000 
     28 CA         26.0300    3.7050    6.2790 C.3       9 GLL5        0.0000 
     29 CA         25.4920    2.0520    7.3610 C.3       3 GLC5        0.0000 
     30 CA         24.9540    0.3990    8.4430 C.3       6 GLP5        0.0000 
     31 CA         24.8690    4.7520    7.3100 C.3       3 GLC5        0.0000 
     32 CA         23.7080    5.7990    8.3410 C.3       6 GLP5        0.0000 
     33 CA         28.7865    5.6925    5.2065 C.3       3 GLC5        0.0000 
     34 CA         26.8360    5.2460    4.4220 C.3       9 GLL5        0.0000 
     35 CA         26.6815    8.1610    5.5250 C.3       3 GLC5        0.0000 
     36 CA         25.8350    6.3820    4.7490 C.3       9 GLL5        0.0000 
     37 CA         27.5280    9.9400    6.3010 C.3       6 GLP5        0.0000 
     38 CA         24.7715    6.0905    6.5450 C.3       3 GLC5        0.0000 
     39 CA         23.7855    5.2460    6.3035 C.3       3 GLC5        0.0000 
     40 CA         23.8630    4.6930    4.2660 C.3       9 GLL5        0.0000 
     41 CA         22.1245    5.8575    3.9200 C.3       3 GLC5        0.0000 
     42 CA         20.3860    7.0220    3.5740 C.3       6 GLP5        0.0000 
     43 CA         23.8165    4.8260    2.4210 C.3       3 GLC5        0.0000 
     44 CA         23.7700    4.9590    0.5760 C.3       6 GLP5        0.0000 
     45 CA         22.2405    1.6955    3.6725 C.3       3 GLC5        0.0000 
     46 CA         24.3570    2.2040    4.1700 C.3       9 GLL5        0.0000 
     47 CA         20.1240    1.1870    3.1750 C.3       6 GLP5        0.0000 
     48 CA         23.2395    0.7835    4.9880 C.3       3 GLC5        0.0000 
     49 CA         22.1220   -0.6370    5.8060 C.3       6 GLP5        0.0000 
     50 CA         24.8495    0.2290    1.9005 C.3       3 GLC5        0.0000 
     51 CA         25.3720    1.1440    3.7050 C.3       9 GLL5        0.0000 
     52 CA         24.3270   -0.6860    0.0960 C.3       6 GLP5        0.0000 
     53 CA         24.2805   -0.6225    4.0360 C.3       3 GLC5        0.0000 
     54 CA         23.1890   -2.3890    4.3670 C.3       6 GLP5        0.0000 
     55 CA         25.8395    0.8460    6.4465 C.3       3 GLC5        0.0000 
     56 CA         26.7250    1.2930    4.4500 C.3       9 GLL5        0.0000 
     57 CA         26.2205   -1.6825    2.3455 C.3       3 GLC5        0.0000 
     58 CA         27.4240   -1.1820    3.9250 C.3       9 GLL5        0.0000 
     59 CA         25.0170   -2.1830    0.7660 C.3       6 GLP5        0.0000 
     60 CA         25.3065   -1.7855    4.1460 C.3       3 GLC5        0.0000 
     61 CA         30.2225   -3.2010    2.6970 C.3       3 GLC5        0.0000 
     62 CA         28.8020   -1.8630    3.7130 C.3       9 GLL5        0.0000 
     63 CA         31.6430   -4.5390    1.6810 C.3       6 GLP5        0.0000 
     64 N          30.7190   -2.0990    5.8865 N.am      2 SEC2        0.0000 
     65 N          30.9900   -1.2100    4.6580 N.am      8 SEL2        0.0000 
     66 N          30.4480   -2.9880    7.1150 N.am      5 SEP2        0.0000 
     67 O          31.9135   -0.2695    4.3060 O.2       1 ALC1        0.0000 
     68 O          30.9900   -1.2100    4.6580 O.2       7 ALL1        0.0000 
     69 O          32.8370    0.6710    3.9540 O.2       4 ALP1        0.0000 
     70 CA         31.3730    1.7337   13.8524 C.3       3 GLC5        0.0000 
     71 CA         32.4550    0.7530   14.8200 C.3       6 GLP5        0.0000 
     72 CA         28.0868    3.2091   13.4209 C.3       3 GLC5        0.0000 
     73 CA         30.0030    2.2100   12.8120 C.3       9 GLL5        0.0000 
     74 CA         26.5290    4.4400   13.5930 C.3       6 GLP5        0.0000 
     75 CA         30.6975    0.7223   13.8430 C.3       3 GLC5        0.0000 
     76 CA         29.1260    1.2230   13.2840 C.3       9 GLL5        0.0000 
     77 CA         26.8915   -1.5688   12.4485 C.3       3 GLC5        0.0000 
     78 CA         27.8780   -0.7670   12.8900 C.3       9 GLL5        0.0000 
     79 CA         25.4670   -2.8340   12.2280 C.3       6 GLP5        0.0000 
     80 CA         27.5265   -0.4356   10.4213 C.3       3 GLC5        0.0000 
     81 CA         28.7540    0.1600   12.4480 C.3       9 GLL5        0.0000 
     82 CA         26.2650   -0.7590    8.9370 C.3       6 GLP5        0.0000 
     83 CA         29.2085   -1.8556   12.5042 C.3       3 GLC5        0.0000 
     84 CA         29.2600    0.0790   11.1420 C.3       9 GLL5        0.0000 
     85 CA         29.6290   -3.5990   13.1030 C.3       6 GLP5        0.0000 
     86 CA         31.4660   -0.6976   10.2548 C.3       3 GLC5        0.0000 
     87 CA         32.8080   -2.1900   10.3940 C.3       6 GLP5        0.0000 
     88 CA         27.8843   -0.2050    7.7637 C.3       3 GLC5        0.0000 
     89 CA         29.3658   -1.6930    6.8918 C.3       3 GLC5        0.0000 
     90 CA         28.9340    0.0740    6.1510 C.3       9 GLL5        0.0000 
     91 CA         29.2280   -3.7350    7.1930 C.3       6 GLP5        0.0000 
     92 CA         26.8278    6.9190    3.1027 C.3       3 GLC5        0.0000 
     93 CA         27.3200    8.0240    1.6200 C.3       6 GLP5        0.0000 
     94 CA         23.9247    3.2963    2.3348 C.3       3 GLC5        0.0000 
     95 CA         24.9320    3.6210    3.9550 C.3       9 GLL5        0.0000 
     96 CA         23.2050    3.6800    0.6070 C.3       6 GLP5        0.0000 
     97 CA         27.6765   -3.3773    3.2720 C.3       3 GLC5        0.0000 
     98 CA         27.2400   -5.2320    2.7250 C.3       6 GLP5        0.0000 
     99 CA         29.6355   -1.5805    1.8625 C.3       3 GLC5        0.0000 
    100 CA         29.9420   -1.8600   -0.0910 C.3       6 GLP5        0.0000 
    101 CA         29.2785   -2.5180    5.5045 C.3       3 GLC5        0.0000 
@<TRIPOS>BOND
@<TRIPOS>SUBSTRUCTURE
     1 ALC1       67 GROUP        1 X    ALC  0     ROOT ALC X 1
     2 SEC2       64 GROUP        1 X    SEC  0     **** SEC X 2
     3 GLC5        1 GROUP        1 X    GLC  0     **** GLC X 6
     4 ALP1       69 GROUP        1 Y    ALP  0     ROOT ALP Y 8
     5 SEP2       66 GROUP        1 Y    SEP  0     **** SEP Y 9
     6 GLP5        3 GROUP        1 Y    GLP  0     **** GLP Y 13
     7 ALL1       68 GROUP        1 Z    ALL  0     ROOT ALL Z 15
     8 SEL2       65 GROUP        1 Z    SEL  0     **** SEL Z 16
     9 GLL5        2 GROUP        1 Z    GLL  0     **** GLL Z 20
@<TRIPOS>SET

