#    Name: 2pnu_ENM_1_ligand
#    Modification time : Mon Mar 24 19:14:54 2014

@<TRIPOS>MOLECULE
2pnu_ENM_1_ligand
   68    72     1     0     0
SMALL
NO_CHARGES


@<TRIPOS>ATOM
      1 C23        30.5150    2.1340   11.4970 C.ar      1 ENM302      0.0000 
      2 C24        30.0030    2.2100   12.8120 C.ar      1 ENM302      0.0000 
      3 F2         30.3230    3.2570   13.6150 F         1 ENM302      0.0000 
      4 C25        29.1260    1.2230   13.2840 C.ar      1 ENM302      0.0000 
      5 C26        28.7540    0.1600   12.4480 C.ar      1 ENM302      0.0000 
      6 F1         27.8780   -0.7670   12.8900 F         1 ENM302      0.0000 
      7 C27        29.2600    0.0790   11.1420 C.ar      1 ENM302      0.0000 
      8 C22        30.1360    1.0660   10.6600 C.ar      1 ENM302      0.0000 
      9 C21        30.5500    1.0170    9.3300 C.3       1 ENM302      0.0000 
     10 O03        29.6860    0.3710    8.3840 O.3       1 ENM302      0.0000 
     11 C20        30.0730    0.6240    7.0300 C.3       1 ENM302      0.0000 
     12 C19        28.9340    0.0740    6.1510 C.3       1 ENM302      0.0000 
     13 C12        29.1160    0.4020    4.6250 C.3       1 ENM302      0.0000 
     14 C13        29.6980    1.8150    4.3850 C.3       1 ENM302      0.0000 
     15 C14        28.7030    2.8900    4.9300 C.3       1 ENM302      0.0000 
     16 C10        27.2920    2.7480    4.2710 C.3       1 ENM302      0.0000 
     17 C05        26.2700    3.8310    4.7490 C.3       1 ENM302      0.0000 
     18 C18        26.0300    3.7050    6.2790 C.3       1 ENM302      0.0000 
     19 C06        26.8360    5.2460    4.4220 C.3       1 ENM302      0.0000 
     20 C01        25.8350    6.3820    4.7490 C.3       1 ENM302      0.0000 
     21 C02        24.4670    6.0960    4.1150 C.2       1 ENM302      0.0000 
     22 O02        23.8740    6.9730    3.4850 O.2       1 ENM302      0.0000 
     23 C03        23.8630    4.6930    4.2660 C.3       1 ENM302      0.0000 
     24 C04        24.9320    3.6210    3.9550 C.3       1 ENM302      0.0000 
     25 C07        24.3570    2.2040    4.1700 C.3       1 ENM302      0.0000 
     26 C08        25.3720    1.1440    3.7050 C.3       1 ENM302      0.0000 
     27 C09        26.7250    1.2930    4.4500 C.3       1 ENM302      0.0000 
     28 C11        27.7730    0.3070    3.8960 C.3       1 ENM302      0.0000 
     29 C15        27.4240   -1.1820    3.9250 C.3       1 ENM302      0.0000 
     30 C16        28.8020   -1.8630    3.7130 C.3       1 ENM302      0.0000 
     31 C17        29.8560   -0.7390    3.9190 C.3       1 ENM302      0.0000 
     32 O01        30.9900   -1.2100    4.6580 O.3       1 ENM302      0.0000 
     33 H          31.1561    2.8503   11.1571 H         1 ENM302      0.0000 
     34 H          28.7576    1.2780   14.2376 H         1 ENM302      0.0000 
     35 H          28.9900   -0.7032   10.5362 H         1 ENM302      0.0000 
     36 H          31.5837    0.5312    9.2619 H         1 ENM302      0.0000 
     37 H          30.7696    2.0742    8.9517 H         1 ENM302      0.0000 
     38 H          30.9798    0.1040    6.7593 H         1 ENM302      0.0000 
     39 H          30.1706    1.6791    6.8223 H         1 ENM302      0.0000 
     40 H          27.9828    0.4999    6.4804 H         1 ENM302      0.0000 
     41 H          28.8809   -1.0120    6.2625 H         1 ENM302      0.0000 
     42 H          29.8353    1.9722    3.3280 H         1 ENM302      0.0000 
     43 H          30.6350    1.9113    4.9081 H         1 ENM302      0.0000 
     44 H          29.0954    3.8758    4.7105 H         1 ENM302      0.0000 
     45 H          28.6040    2.7663    6.0018 H         1 ENM302      0.0000 
     46 H          27.4310    2.8928    3.1796 H         1 ENM302      0.0000 
     47 H          27.0856    5.2857    3.3603 H         1 ENM302      0.0000 
     48 H          27.7495    5.3989    4.9993 H         1 ENM302      0.0000 
     49 H          26.2252    7.3165    4.3601 H         1 ENM302      0.0000 
     50 H          25.7261    6.4548    5.8259 H         1 ENM302      0.0000 
     51 H          23.0377    4.5794    3.5747 H         1 ENM302      0.0000 
     52 H          23.5132    4.5584    5.2816 H         1 ENM302      0.0000 
     53 H          25.1799    3.7070    2.8805 H         1 ENM302      0.0000 
     54 H          23.4440    2.1011    3.5972 H         1 ENM302      0.0000 
     55 H          24.1480    2.0620    5.2228 H         1 ENM302      0.0000 
     56 H          25.5451    1.2557    2.6377 H         1 ENM302      0.0000 
     57 H          24.9714    0.1525    3.9002 H         1 ENM302      0.0000 
     58 H          26.5868    1.1144    5.4889 H         1 ENM302      0.0000 
     59 H          27.9862    0.5674    2.8422 H         1 ENM302      0.0000 
     60 H          26.7894   -1.4224    3.1188 H         1 ENM302      0.0000 
     61 H          27.0463   -1.4485    4.8719 H         1 ENM302      0.0000 
     62 H          28.8673   -2.2297    2.7194 H         1 ENM302      0.0000 
     63 H          28.9420   -2.6164    4.4471 H         1 ENM302      0.0000 
     64 H          30.1263   -0.3876    2.9301 H         1 ENM302      0.0000 
     65 H          26.8753    3.8282    6.7989 H         1 ENM302      0.0000 
     66 H          25.3797    4.3886    6.6105 H         1 ENM302      0.0000 
     67 H          25.6629    2.8079    6.5247 H         1 ENM302      0.0000 
     68 H          31.7318   -0.5825    4.4214 H         1 ENM302      0.0000 
@<TRIPOS>BOND
     1    2    1 ar   
     2    8    1 ar   
     3   33    1 1    
     4    3    2 1    
     5    4    2 ar   
     6    5    4 ar   
     7   34    4 1    
     8    6    5 1    
     9    7    5 ar   
    10    8    7 ar   
    11   35    7 1    
    12    9    8 1    
    13   10    9 1    
    14   36    9 1    
    15   37    9 1    
    16   11   10 1    
    17   12   11 1    
    18   38   11 1    
    19   39   11 1    
    20   13   12 1    
    21   40   12 1    
    22   41   12 1    
    23   14   13 1    
    24   28   13 1    
    25   31   13 1    
    26   15   14 1    
    27   42   14 1    
    28   43   14 1    
    29   16   15 1    
    30   44   15 1    
    31   45   15 1    
    32   17   16 1    
    33   27   16 1    
    34   46   16 1    
    35   18   17 1    
    36   19   17 1    
    37   24   17 1    
    38   65   18 1    
    39   66   18 1    
    40   67   18 1    
    41   20   19 1    
    42   47   19 1    
    43   48   19 1    
    44   21   20 1    
    45   49   20 1    
    46   50   20 1    
    47   22   21 2    
    48   23   21 1    
    49   24   23 1    
    50   51   23 1    
    51   52   23 1    
    52   25   24 1    
    53   53   24 1    
    54   26   25 1    
    55   54   25 1    
    56   55   25 1    
    57   27   26 1    
    58   56   26 1    
    59   57   26 1    
    60   28   27 1    
    61   58   27 1    
    62   29   28 1    
    63   59   28 1    
    64   30   29 1    
    65   60   29 1    
    66   61   29 1    
    67   31   30 1    
    68   62   30 1    
    69   63   30 1    
    70   32   31 1    
    71   64   31 1    
    72   68   32 1    
@<TRIPOS>SUBSTRUCTURE
     1 ENM302      1 GROUP   
@<TRIPOS>SET

