#    Name: 1wbt_WBT_1_INTS_M
#    Modification time : Tue Mar 25 08:53:46 2014

@<TRIPOS>MOLECULE
1wbt_WBT_1_INTS_M
  104     0     9     0     0
SMALL
NO_CHARGES


@<TRIPOS>ATOM
      1 CA          9.7720   18.1630   38.8520 C.3       3 GLC5        0.0000 
      2 CA          8.5170   17.8710   37.3420 C.3       9 GLL5        0.0000 
      3 CA         11.0270   18.4550   40.3620 C.3       6 GLP5        0.0000 
      4 CA          9.2115   17.5130   39.6885 C.3       3 GLC5        0.0000 
      5 CA          7.3960   16.5710   39.0150 C.3       9 GLL5        0.0000 
      6 CA          6.5845   12.5930   38.7465 C.3       3 GLC5        0.0000 
      7 CA          6.2390   14.5840   38.3830 C.3       9 GLL5        0.0000 
      8 CA          6.9300   10.6020   39.1100 C.3       6 GLP5        0.0000 
      9 CA          4.4405   13.4435   38.7635 C.3       3 GLC5        0.0000 
     10 CA          2.6420   12.3030   39.1440 C.3       6 GLP5        0.0000 
     11 N           4.0300   13.6685   36.9630 N.am      2 SEC2        0.0000 
     12 N           5.1920   13.1170   36.2150 N.am      8 SEL2        0.0000 
     13 N           2.8680   14.2200   37.7110 N.am      5 SEP2        0.0000 
     14 O           7.7550   14.8350   34.0200 O.2       1 ALC1        0.0000 
     15 O           6.8640   13.7400   34.8010 O.2       7 ALL1        0.0000 
     16 O           8.6460   15.9300   33.2390 O.2       4 ALP1        0.0000 
     17 CA          9.2285   12.8345   32.3475 C.3       3 GLC5        0.0000 
     18 CA          7.6230   11.9270   33.3830 C.3       9 GLL5        0.0000 
     19 CA         10.8340   13.7420   31.3120 C.3       6 GLP5        0.0000 
     20 CA          9.1630   11.1770   31.4840 C.3       3 GLC5        0.0000 
     21 CA          7.4470   10.9740   32.4070 C.3       9 GLL5        0.0000 
     22 CA         10.8790   11.3800   30.5610 C.3       6 GLP5        0.0000 
     23 CA          3.4155   10.5935   28.7970 C.3       3 GLC5        0.0000 
     24 CA          4.3930   10.5140   30.5030 C.3       9 GLL5        0.0000 
     25 CA          2.4380   10.6730   27.0910 C.3       6 GLP5        0.0000 
     26 CA          2.8765   12.6830   29.4115 C.3       3 GLC5        0.0000 
     27 CA          2.8020   12.2720   31.4770 C.3       9 GLL5        0.0000 
     28 CA          2.9510   13.0940   27.3460 C.3       6 GLP5        0.0000 
     29 CA          1.3095   13.2450   31.3705 C.3       3 GLC5        0.0000 
     30 CA         -0.1830   14.2180   31.2640 C.3       6 GLP5        0.0000 
     31 CA          1.7350   11.3835   34.8570 C.3       3 GLC5        0.0000 
     32 CA          2.0160   11.7110   32.6740 C.3       9 GLL5        0.0000 
     33 CA          1.4540   11.0560   37.0400 C.3       6 GLP5        0.0000 
     34 CA          0.5865   12.8120   32.5680 C.3       3 GLC5        0.0000 
     35 CA         -0.8430   13.9130   32.4620 C.3       6 GLP5        0.0000 
     36 CA         -0.9970    9.8925   32.6285 C.3       3 GLC5        0.0000 
     37 CA          0.6300    9.9180   31.5660 C.3       9 GLL5        0.0000 
     38 CA         -2.6240    9.8670   33.6910 C.3       6 GLP5        0.0000 
     39 CA          0.3495    6.8695   30.0885 C.3       3 GLC5        0.0000 
     40 CA          0.3780    8.5670   31.3380 C.3       9 GLL5        0.0000 
     41 CA          0.3210    5.1720   28.8390 C.3       6 GLP5        0.0000 
     42 CA         -0.5810    7.7305   32.5750 C.3       3 GLC5        0.0000 
     43 CA         -1.5400    6.8940   33.8120 C.3       6 GLP5        0.0000 
     44 N           0.4500    6.4180   32.2975 N.am      2 SEC2        0.0000 
     45 N           1.1140    7.6290   31.9090 N.am      8 SEL2        0.0000 
     46 N          -0.2140    5.2070   32.6860 N.am      5 SEP2        0.0000 
     47 CA          1.8345    5.9705   32.1400 C.3       3 GLC5        0.0000 
     48 CA          2.1390    7.9340   32.7000 C.3       9 GLL5        0.0000 
     49 CA          1.5300    4.0070   31.5800 C.3       6 GLP5        0.0000 
     50 CA          0.2995    7.4140   33.2560 C.3       3 GLC5        0.0000 
     51 CA          6.5435   12.2330   40.1895 C.3       3 GLC5        0.0000 
     52 CA          6.1570   13.8640   41.2690 C.3       9 GLL5        0.0000 
     53 CA          4.3995   13.0835   40.2065 C.3       3 GLC5        0.0000 
     54 CA          4.0245   15.2205   42.5760 C.3       3 GLC5        0.0000 
     55 CA          5.3990   13.8950   42.5930 C.3       9 GLL5        0.0000 
     56 CA          2.6500   16.5460   42.5590 C.3       6 GLP5        0.0000 
     57 CA          3.7005   13.4720   42.9485 C.3       3 GLC5        0.0000 
     58 CA          2.0020   13.0490   43.3040 C.3       6 GLP5        0.0000 
     59 CA          6.0350   15.9945   45.0575 C.3       3 GLC5        0.0000 
     60 CA          6.2140   16.0430   43.1350 C.3       9 GLL5        0.0000 
     61 CA          5.8560   15.9460   46.9800 C.3       6 GLP5        0.0000 
     62 CA          8.5968   14.5768   37.2448 C.3       3 GLC5        0.0000 
     63 CA          7.7780   16.7860   37.6800 C.3       9 GLL5        0.0000 
     64 CA          9.6160   12.8070   37.3040 C.3       6 GLP5        0.0000 
     65 CA          5.5275   16.6408   38.0127 C.3       3 GLC5        0.0000 
     66 CA          3.4680   16.6030   37.6780 C.3       6 GLP5        0.0000 
     67 CA          4.9523   15.8090   38.2858 C.3       3 GLC5        0.0000 
     68 CA          6.6340   15.4460   39.4040 C.3       9 GLL5        0.0000 
     69 CA          8.0180   13.7487   37.5053 C.3       3 GLC5        0.0000 
     70 CA          5.2285   15.9775   37.2692 C.3       3 GLC5        0.0000 
     71 CA          6.6010   14.7970   37.0300 C.3       9 GLL5        0.0000 
     72 CA          9.1141   16.6484   35.8305 C.3       3 GLC5        0.0000 
     73 CA          7.3770   15.9070   36.6910 C.3       9 GLL5        0.0000 
     74 CA         10.4660   16.6790   34.5600 C.3       6 GLP5        0.0000 
     75 CA          7.0877   13.4527   32.0883 C.3       3 GLC5        0.0000 
     76 CA          6.6040   12.8000   33.7920 C.3       9 GLL5        0.0000 
     77 CA          7.0620   14.5420   30.5890 C.3       6 GLP5        0.0000 
     78 CA          8.8407   12.7982   34.2943 C.3       3 GLC5        0.0000 
     79 CA         10.5680   13.2330   35.0010 C.3       6 GLP5        0.0000 
     80 CA          6.9460   12.7427   31.3355 C.3       3 GLC5        0.0000 
     81 CA          6.5226   10.8714   34.6066 C.3       3 GLC5        0.0000 
     82 CA          5.7650   10.0740   36.2160 C.3       6 GLP5        0.0000 
     83 CA          4.3122    8.8187   30.0572 C.3       3 GLC5        0.0000 
     84 CA          5.6640   10.0750   30.6820 C.3       9 GLL5        0.0000 
     85 CA          3.5960    7.3430   29.5220 C.3       6 GLP5        0.0000 
     86 CA          5.9972   11.5157   29.4002 C.3       3 GLC5        0.0000 
     87 CA          6.9660   12.7370   28.2080 C.3       6 GLP5        0.0000 
     88 CA          5.4482    8.9962   31.9932 C.3       3 GLC5        0.0000 
     89 CA          5.8680    7.6980   33.3940 C.3       6 GLP5        0.0000 
     90 CA          2.0500    8.2927   30.4870 C.3       3 GLC5        0.0000 
     91 CA          2.9467    7.9683   31.1812 C.3       3 GLC5        0.0000 
     92 CA          4.0827    8.1457   33.1172 C.3       3 GLC5        0.0000 
     93 CA          6.1705   13.4185   31.6182 C.3       3 GLC5        0.0000 
     94 CA          5.1780   11.8210   32.1440 C.3       9 GLL5        0.0000 
     95 CA          5.5220   11.1845   34.4318 C.3       3 GLC5        0.0000 
     96 CA          5.3800   12.7690   33.1510 C.3       9 GLL5        0.0000 
     97 CA          5.9360    9.5401   32.7535 C.3       3 GLC5        0.0000 
     98 CA          7.7355   13.4923   42.6190 C.3       3 GLC5        0.0000 
     99 CA          9.6930   13.1050   43.3070 C.3       6 GLP5        0.0000 
    100 CA          6.3245   12.0883   42.5775 C.3       3 GLC5        0.0000 
    101 CA          6.8710   10.2970   43.2240 C.3       6 GLP5        0.0000 
    102 CA          7.8320   16.9080   43.7848 C.3       3 GLC5        0.0000 
    103 CA          9.1810   17.6950   45.1410 C.3       6 GLP5        0.0000 
    104 CA          4.5665   16.3335   42.4937 C.3       3 GLC5        0.0000 
@<TRIPOS>BOND
@<TRIPOS>SUBSTRUCTURE
     1 ALC1       14 GROUP        1 X    ALC  0     ROOT ALC X 1
     2 SEC2       11 GROUP        1 X    SEC  0     **** SEC X 2
     3 GLC5        1 GROUP        1 X    GLC  0     **** GLC X 6
     4 ALP1       16 GROUP        1 Y    ALP  0     ROOT ALP Y 8
     5 SEP2       13 GROUP        1 Y    SEP  0     **** SEP Y 9
     6 GLP5        3 GROUP        1 Y    GLP  0     **** GLP Y 13
     7 ALL1       15 GROUP        1 Z    ALL  0     ROOT ALL Z 15
     8 SEL2       12 GROUP        1 Z    SEL  0     **** SEL Z 16
     9 GLL5        2 GROUP        1 Z    GLL  0     **** GLL Z 20
@<TRIPOS>SET

