#    Name: 1wbt_WBT_1_ligand
#    Modification time : Tue Mar 25 08:53:46 2014

@<TRIPOS>MOLECULE
1wbt_WBT_1_ligand
   58    62     1     0     0
SMALL
NO_CHARGES


@<TRIPOS>ATOM
      1 F1          8.5170   17.8710   37.3420 F         1 WBT1355     0.0000 
      2 C2          7.7780   16.7860   37.6800 C.ar      1 WBT1355     0.0000 
      3 C3          7.3960   16.5710   39.0150 C.ar      1 WBT1355     0.0000 
      4 C4          6.6340   15.4460   39.4040 C.ar      1 WBT1355     0.0000 
      5 C5          6.2390   14.5840   38.3830 C.ar      1 WBT1355     0.0000 
      6 C6          6.6010   14.7970   37.0300 C.ar      1 WBT1355     0.0000 
      7 C7          7.3770   15.9070   36.6910 C.ar      1 WBT1355     0.0000 
      8 C8          6.1690   13.8200   35.9850 C.2       1 WBT1355     0.0000 
      9 O9          5.1920   13.1170   36.2150 O.2       1 WBT1355     0.0000 
     10 N10         6.8640   13.7400   34.8010 N.am      1 WBT1355     0.0000 
     11 C11         6.6040   12.8000   33.7920 C.ar      1 WBT1355     0.0000 
     12 C12         7.6230   11.9270   33.3830 C.ar      1 WBT1355     0.0000 
     13 C13         7.4470   10.9740   32.4070 C.ar      1 WBT1355     0.0000 
     14 C14         6.2130   10.9130   31.7570 C.ar      1 WBT1355     0.0000 
     15 C15         5.6640   10.0750   30.6820 C.2       1 WBT1355     0.0000 
     16 C16         4.3930   10.5140   30.5030 C.2       1 WBT1355     0.0000 
     17 N17         4.0860   11.5530   31.3690 N.pl3     1 WBT1355     0.0000 
     18 C18         2.8020   12.2720   31.4770 C.3       1 WBT1355     0.0000 
     19 C19         2.0160   11.7110   32.6740 C.3       1 WBT1355     0.0000 
     20 C20         1.6870   10.2690   32.4170 C.ar      1 WBT1355     0.0000 
     21 C21         0.6300    9.9180   31.5660 C.ar      1 WBT1355     0.0000 
     22 C22         0.3780    8.5670   31.3380 C.ar      1 WBT1355     0.0000 
     23 N23         1.1140    7.6290   31.9090 N.ar      1 WBT1355     0.0000 
     24 C24         2.1390    7.9340   32.7000 C.ar      1 WBT1355     0.0000 
     25 C25         2.4560    9.2530   32.9810 C.ar      1 WBT1355     0.0000 
     26 C26         5.1780   11.8210   32.1440 C.ar      1 WBT1355     0.0000 
     27 C27         5.3800   12.7690   33.1510 C.ar      1 WBT1355     0.0000 
     28 N28         6.1980   15.2360   40.7580 N.3       1 WBT1355     0.0000 
     29 C29         6.1570   13.8640   41.2690 C.3       1 WBT1355     0.0000 
     30 C30         5.3990   13.8950   42.5930 C.3       1 WBT1355     0.0000 
     31 O31         6.0730   14.6950   43.5610 O.3       1 WBT1355     0.0000 
     32 C32         6.2140   16.0430   43.1350 C.3       1 WBT1355     0.0000 
     33 C33         6.7520   16.1990   41.7220 C.3       1 WBT1355     0.0000 
     34 H           7.6799   17.2560   39.7389 H         1 WBT1355     0.0000 
     35 H           5.6580   13.7525   38.6121 H         1 WBT1355     0.0000 
     36 H           7.6445   16.0638   35.7135 H         1 WBT1355     0.0000 
     37 H           7.6503   14.4290   34.6284 H         1 WBT1355     0.0000 
     38 H           8.5594   12.0141   33.8505 H         1 WBT1355     0.0000 
     39 H           8.1912   10.3256   32.1581 H         1 WBT1355     0.0000 
     40 H           6.1394    9.4078   30.2607 H         1 WBT1355     0.0000 
     41 H           3.7602   10.1543   29.8504 H         1 WBT1355     0.0000 
     42 H           2.2048   12.1342   30.5809 H         1 WBT1355     0.0000 
     43 H           2.9651   13.3326   31.6418 H         1 WBT1355     0.0000 
     44 H           1.1059   12.2873   32.7940 H         1 WBT1355     0.0000 
     45 H           2.6260   11.8030   33.5652 H         1 WBT1355     0.0000 
     46 H           0.0618   10.6368   31.1265 H         1 WBT1355     0.0000 
     47 H          -0.4147    8.3224   30.6986 H         1 WBT1355     0.0000 
     48 H           2.7297    7.1838   33.1283 H         1 WBT1355     0.0000 
     49 H           3.2422    9.4815   33.5930 H         1 WBT1355     0.0000 
     50 H           4.6374   13.4190   33.4014 H         1 WBT1355     0.0000 
     51 H           7.1542   13.4860   41.4507 H         1 WBT1355     0.0000 
     52 H           5.6324   13.2094   40.5860 H         1 WBT1355     0.0000 
     53 H           5.2846   12.8521   42.9361 H         1 WBT1355     0.0000 
     54 H           4.3836   14.2757   42.3869 H         1 WBT1355     0.0000 
     55 H           6.8936   16.6129   43.8141 H         1 WBT1355     0.0000 
     56 H           5.2388   16.5859   43.1811 H         1 WBT1355     0.0000 
     57 H           6.5455   17.2369   41.3859 H         1 WBT1355     0.0000 
     58 H           7.8578   16.1067   41.7608 H         1 WBT1355     0.0000 
@<TRIPOS>BOND
     1    2    1 1    
     2    3    2 ar   
     3    7    2 ar   
     4    4    3 ar   
     5   34    3 1    
     6    5    4 ar   
     7   28    4 1    
     8    6    5 ar   
     9   35    5 1    
    10    7    6 ar   
    11    8    6 1    
    12   36    7 1    
    13    9    8 2    
    14   10    8 am   
    15   11   10 1    
    16   37   10 1    
    17   12   11 ar   
    18   27   11 ar   
    19   13   12 ar   
    20   38   12 1    
    21   14   13 ar   
    22   39   13 1    
    23   15   14 1    
    24   26   14 ar   
    25   16   15 2    
    26   40   15 1    
    27   17   16 1    
    28   41   16 1    
    29   18   17 1    
    30   26   17 1    
    31   19   18 1    
    32   42   18 1    
    33   43   18 1    
    34   20   19 1    
    35   44   19 1    
    36   45   19 1    
    37   21   20 ar   
    38   25   20 ar   
    39   22   21 ar   
    40   46   21 1    
    41   23   22 ar   
    42   47   22 1    
    43   24   23 ar   
    44   25   24 ar   
    45   48   24 1    
    46   49   25 1    
    47   27   26 ar   
    48   50   27 1    
    49   29   28 1    
    50   33   28 1    
    51   30   29 1    
    52   51   29 1    
    53   52   29 1    
    54   31   30 1    
    55   53   30 1    
    56   54   30 1    
    57   32   31 1    
    58   33   32 1    
    59   55   32 1    
    60   56   32 1    
    61   57   33 1    
    62   58   33 1    
@<TRIPOS>SUBSTRUCTURE
     1 WBT1355     1 GROUP   
@<TRIPOS>SET

