#    Name: 4jv3_N32_1_INTS_M
#    Modification time : Tue Mar 25 06:32:12 2014

@<TRIPOS>MOLECULE
4jv3_N32_1_INTS_M
   53     0     9     0     0
SMALL
NO_CHARGES


@<TRIPOS>ATOM
      1 N           8.7775   -5.3960    9.7315 N.am      2 SEC2        0.0000 
      2 N           9.1080   -6.2150   10.8630 N.am      8 SEL2        0.0000 
      3 N           8.4470   -4.5770    8.6000 N.am      5 SEP2        0.0000 
      4 N          11.3740   -3.6880   11.8555 N.am      2 SEC2        0.0000 
      5 N          10.8450   -3.2820   13.1480 N.am      8 SEL2        0.0000 
      6 N          11.9030   -4.0940   10.5630 N.am      5 SEP2        0.0000 
      7 O           9.2770   -3.9655   16.1560 O.2       1 ALC1        0.0000 
      8 O          10.2790   -3.4950   15.3190 O.2       7 ALL1        0.0000 
      9 O           8.2750   -4.4360   16.9930 O.2       4 ALP1        0.0000 
     10 CA          7.8935   -3.4480   14.9550 C.3       3 GLC5        0.0000 
     11 CA          9.0270   -4.7200   13.6240 C.3       9 GLL5        0.0000 
     12 CA          6.7600   -2.1760   16.2860 C.3       6 GLP5        0.0000 
     13 CA          7.8315   -4.4715   11.9160 C.3       3 GLC5        0.0000 
     14 CA          6.6360   -4.2230   10.2080 C.3       6 GLP5        0.0000 
     15 CA         10.9375   -5.7950   11.9670 C.3       3 GLC5        0.0000 
     16 CA          9.6680   -6.1150   13.5700 C.3       9 GLL5        0.0000 
     17 CA         12.2070   -5.4750   10.3640 C.3       6 GLP5        0.0000 
     18 CA         11.0950   -9.6760   13.4370 C.3       3 GLC5        0.0000 
     19 CA          9.6080   -8.5230   12.9680 C.3       9 GLL5        0.0000 
     20 CA         12.5820  -10.8290   13.9060 C.3       6 GLP5        0.0000 
     21 N          16.8760   -3.4660   15.5705 N.am      2 SEC2        0.0000 
     22 N          15.2910   -3.8920   15.2910 N.am      8 SEL2        0.0000 
     23 N          18.4610   -3.0400   15.8500 N.am      5 SEP2        0.0000 
     24 N          16.3155   -0.8495   15.8205 N.am      2 SEC2        0.0000 
     25 N          16.0640   -2.1060   16.3170 N.am      8 SEL2        0.0000 
     26 N          16.5670    0.4070   15.3240 N.am      5 SEP2        0.0000 
     27 N          17.2625   -2.5730   16.0835 N.am      2 SEC2        0.0000 
     28 CA         12.6245   -3.6585   17.2640 C.3       3 GLC5        0.0000 
     29 CA         13.7040   -2.3320   16.1140 C.3       9 GLL5        0.0000 
     30 CA         11.5450   -4.9850   18.4140 C.3       6 GLP5        0.0000 
     31 CA          9.6150   -1.4765   15.0605 C.3       3 GLC5        0.0000 
     32 CA         11.3270   -2.6790   15.8100 C.3       9 GLL5        0.0000 
     33 CA          7.9030   -0.2740   14.3110 C.3       6 GLP5        0.0000 
     34 CA         11.4360   -3.8320   17.1120 C.3       3 GLC5        0.0000 
     35 CA          6.8298   -7.3550   17.2115 C.3       3 GLC5        0.0000 
     36 CA          7.7270   -7.7380   15.2930 C.3       9 GLL5        0.0000 
     37 CA          6.4580   -6.4670   18.9030 C.3       6 GLP5        0.0000 
     38 CA          6.6713   -6.0062   10.7763 C.3       3 GLC5        0.0000 
     39 CA          6.2510   -8.1040   11.7170 C.3       9 GLL5        0.0000 
     40 CA          5.6490   -7.2900   17.3438 C.3       3 GLC5        0.0000 
     41 CA          5.3190   -8.2400   15.3450 C.3       9 GLL5        0.0000 
     42 CA          8.3636   -9.2340   16.7852 C.3       3 GLC5        0.0000 
     43 CA          9.6640   -9.3220   18.3160 C.3       6 GLP5        0.0000 
     44 CA         14.7543   -0.2895   15.4215 C.3       3 GLC5        0.0000 
     45 CA         15.9290    1.1680   14.3820 C.3       6 GLP5        0.0000 
     46 CA         13.2295    1.1610   16.8648 C.3       3 GLC5        0.0000 
     47 CA         13.4550   -1.1620   16.8080 C.3       9 GLL5        0.0000 
     48 CA         13.6590    3.2760   16.8220 C.3       6 GLP5        0.0000 
     49 CA         13.4255   -0.2030   18.5362 C.3       3 GLC5        0.0000 
     50 CA         12.1450   -0.7460   17.0070 C.3       9 GLL5        0.0000 
     51 CA         14.0510    0.5480   20.1650 C.3       6 GLP5        0.0000 
     52 CA         12.1245   -2.4710   18.1487 C.3       3 GLC5        0.0000 
     53 CA         11.4490   -3.9880   19.3900 C.3       6 GLP5        0.0000 
@<TRIPOS>BOND
@<TRIPOS>SUBSTRUCTURE
     1 ALC1        7 GROUP        1 X    ALC  0     ROOT ALC X 1
     2 SEC2        1 GROUP        1 X    SEC  0     **** SEC X 2
     3 GLC5       10 GROUP        1 X    GLC  0     **** GLC X 6
     4 ALP1        9 GROUP        1 Y    ALP  0     ROOT ALP Y 8
     5 SEP2        3 GROUP        1 Y    SEP  0     **** SEP Y 9
     6 GLP5       12 GROUP        1 Y    GLP  0     **** GLP Y 13
     7 ALL1        8 GROUP        1 Z    ALL  0     ROOT ALL Z 15
     8 SEL2        2 GROUP        1 Z    SEL  0     **** SEL Z 16
     9 GLL5       11 GROUP        1 Z    GLL  0     **** GLL Z 20
@<TRIPOS>SET

