#    Name: 4jv3_N32_1_ligand
#    Modification time : Tue Mar 25 06:32:13 2014

@<TRIPOS>MOLECULE
4jv3_N32_1_ligand
   55    58     1     0     0
SMALL
NO_CHARGES


@<TRIPOS>ATOM
      1 C1          6.6760   -8.7480   15.7470 C.3       1 N32500      0.0000 
      2 O19         9.1080   -6.2150   10.8630 O.2       1 N32500      0.0000 
      3 O20        10.8450   -3.2820   13.1480 O.2       1 N32500      0.0000 
      4 N28        10.2790   -3.4950   15.3190 N.am      1 N32500      0.0000 
      5 C11        10.1280   -3.7570   14.0130 C.2       1 N32500      0.0000 
      6 C2          9.0270   -4.7200   13.6240 C.3       1 N32500      0.0000 
      7 C3          9.6680   -6.1150   13.5700 C.3       1 N32500      0.0000 
      8 C4          8.7720   -7.2280   12.9980 C.3       1 N32500      0.0000 
      9 C5          8.4030   -6.9210   11.5620 C.2       1 N32500      0.0000 
     10 C6          7.1620   -7.4750   10.9720 C.2       1 N32500      0.0000 
     11 C7          6.2510   -8.1040   11.7170 C.2       1 N32500      0.0000 
     12 C8          6.4390   -8.3390   13.2040 C.3       1 N32500      0.0000 
     13 C9          7.4680   -7.3630   13.8210 C.3       1 N32500      0.0000 
     14 C10         7.7270   -7.7380   15.2930 C.3       1 N32500      0.0000 
     15 C14         5.0980   -8.0470   13.8710 C.3       1 N32500      0.0000 
     16 C15         5.3190   -8.2400   15.3450 C.2       1 N32500      0.0000 
     17 C17         4.3610   -7.9860   16.2240 C.2       1 N32500      0.0000 
     18 C18         9.6080   -8.5230   12.9680 C.3       1 N32500      0.0000 
     19 C28         6.7780   -9.8130   13.4790 C.3       1 N32500      0.0000 
     20 C29         6.9250  -10.0490   14.9890 C.3       1 N32500      0.0000 
     21 O30         9.8290   -1.0700   16.7540 O.2       1 N32500      0.0000 
     22 O31        12.9220   -4.2600   14.9450 O.2       1 N32500      0.0000 
     23 O32        15.2910   -3.8920   15.2910 O.co2     1 N32500      0.0000 
     24 O33        16.0640   -2.1060   16.3170 O.co2     1 N32500      0.0000 
     25 C21        15.1090   -2.7960   15.8920 C.2       1 N32500      0.0000 
     26 C22        13.7040   -2.3320   16.1140 C.2       1 N32500      0.0000 
     27 C23        12.6480   -3.0940   15.6190 C.2       1 N32500      0.0000 
     28 C24        11.3270   -2.6790   15.8100 C.3       1 N32500      0.0000 
     29 C25        11.0890   -1.5000   16.5200 C.2       1 N32500      0.0000 
     30 C26        12.1450   -0.7460   17.0070 C.3       1 N32500      0.0000 
     31 C27        13.4550   -1.1620   16.8080 C.2       1 N32500      0.0000 
     32 H           6.7358   -8.9066   16.7722 H         1 N32500      0.0000 
     33 H           9.6152   -3.8928   16.0267 H         1 N32500      0.0000 
     34 H           8.6441   -4.4703   12.6550 H         1 N32500      0.0000 
     35 H           8.2542   -4.7157   14.3661 H         1 N32500      0.0000 
     36 H           9.9802   -6.4026   14.5914 H         1 N32500      0.0000 
     37 H          10.5917   -6.0586   12.9642 H         1 N32500      0.0000 
     38 H           7.0571   -7.3383    9.9496 H         1 N32500      0.0000 
     39 H           5.3591   -8.4735   11.3387 H         1 N32500      0.0000 
     40 H           6.9819   -6.3600   13.8344 H         1 N32500      0.0000 
     41 H           8.7117   -8.1751   15.3782 H         1 N32500      0.0000 
     42 H           7.6615   -6.8471   15.9012 H         1 N32500      0.0000 
     43 H           4.3644   -8.7408   13.5116 H         1 N32500      0.0000 
     44 H           4.8137   -7.0338   13.6677 H         1 N32500      0.0000 
     45 H           7.7099  -10.0631   12.9850 H         1 N32500      0.0000 
     46 H           5.9819  -10.4401   13.0943 H         1 N32500      0.0000 
     47 H           6.2039  -10.7954   15.3040 H         1 N32500      0.0000 
     48 H           7.9287  -10.4031   15.1974 H         1 N32500      0.0000 
     49 H          11.3668   -1.9546   14.5731 H         1 N32500      0.0000 
     50 H          11.9813   -0.5613   18.1419 H         1 N32500      0.0000 
     51 H          12.0373    0.3435   16.6194 H         1 N32500      0.0000 
     52 H          14.2337   -0.6013   17.1757 H         1 N32500      0.0000 
     53 H          10.4205   -8.4273   12.3929 H         1 N32500      0.0000 
     54 H           9.9238   -8.7824   13.8807 H         1 N32500      0.0000 
     55 H           9.0839   -9.2952   12.6087 H         1 N32500      0.0000 
@<TRIPOS>BOND
     1   14    1 1    
     2   16    1 1    
     3   20    1 1    
     4   32    1 1    
     5    9    2 2    
     6    5    3 2    
     7    5    4 am   
     8   28    4 1    
     9   33    4 1    
    10    6    5 1    
    11    7    6 1    
    12   34    6 1    
    13   35    6 1    
    14    8    7 1    
    15   36    7 1    
    16   37    7 1    
    17    9    8 1    
    18   13    8 1    
    19   18    8 1    
    20   10    9 1    
    21   11   10 2    
    22   38   10 1    
    23   12   11 1    
    24   39   11 1    
    25   13   12 1    
    26   15   12 1    
    27   19   12 1    
    28   14   13 1    
    29   40   13 1    
    30   41   14 1    
    31   42   14 1    
    32   16   15 1    
    33   43   15 1    
    34   44   15 1    
    35   17   16 2    
    36   53   18 1    
    37   54   18 1    
    38   55   18 1    
    39   20   19 1    
    40   45   19 1    
    41   46   19 1    
    42   47   20 1    
    43   48   20 1    
    44   29   21 2    
    45   27   22 2    
    46   25   23 ar   
    47   25   24 ar   
    48   26   25 1    
    49   27   26 1    
    50   31   26 2    
    51   28   27 1    
    52   29   28 1    
    53   49   28 1    
    54   30   29 1    
    55   31   30 1    
    56   50   30 1    
    57   51   30 1    
    58   52   31 1    
@<TRIPOS>SUBSTRUCTURE
     1 N32500      1 GROUP   
@<TRIPOS>SET

