#    Name: 3w0i_O11_1_INTS_M
#    Modification time : Tue Mar 25 01:55:49 2014

@<TRIPOS>MOLECULE
3w0i_O11_1_INTS_M
  105     0     6     0     0
SMALL
NO_CHARGES


@<TRIPOS>ATOM
      1 CA         14.1435   31.8365   16.9930 C.3       2 GLC5        0.0000 
      2 CA         14.0020   29.6950   17.3240 C.3       6 GLL5        0.0000 
      3 CA         14.2850   33.9780   16.6620 C.3       4 GLP5        0.0000 
      4 CA         12.7625   30.9360   17.9795 C.3       2 GLC5        0.0000 
      5 CA         11.5230   32.1770   18.6350 C.3       4 GLP5        0.0000 
      6 CA         12.2535   29.1475   16.1355 C.3       2 GLC5        0.0000 
      7 CA         10.5050   28.6000   14.9470 C.3       4 GLP5        0.0000 
      8 CA         16.1605   30.4910   24.4080 C.3       2 GLC5        0.0000 
      9 CA         15.2790   28.5770   23.8460 C.3       6 GLL5        0.0000 
     10 CA         17.0420   32.4050   24.9700 C.3       4 GLP5        0.0000 
     11 CA         12.8330   29.0820   20.0680 C.3       2 GLC5        0.0000 
     12 CA         14.8630   29.1820   19.6490 C.3       6 GLL5        0.0000 
     13 CA         10.8030   28.9820   20.4870 C.3       4 GLP5        0.0000 
     14 CA         14.6860   31.2955   20.2755 C.3       2 GLC5        0.0000 
     15 CA         14.5090   33.4090   20.9020 C.3       4 GLP5        0.0000 
     16 CA         16.7085   27.4630   23.2625 C.3       2 GLC5        0.0000 
     17 CA         14.9050   27.3670   24.3760 C.3       6 GLL5        0.0000 
     18 CA         18.5120   27.5590   22.1490 C.3       4 GLP5        0.0000 
     19 N          14.8825   28.0855   15.7005 N.am      1 SEC2        0.0000 
     20 N          14.3950   29.7250   15.9570 N.am      5 SEL2        0.0000 
     21 N          15.3700   26.4460   15.4440 N.am      3 SEP2        0.0000 
     22 N          14.9015   26.9470   16.7245 N.am      1 SEC2        0.0000 
     23 N          14.4330   27.4480   18.0050 N.am      5 SEL2        0.0000 
     24 CA         12.2340   27.5565   22.0370 C.3       2 GLC5        0.0000 
     25 CA         14.0580   26.7550   22.2460 C.3       6 GLL5        0.0000 
     26 CA         10.4100   28.3580   21.8280 C.3       4 GLP5        0.0000 
     27 CA         12.6175   27.8105   23.2815 C.3       2 GLC5        0.0000 
     28 CA         14.3010   26.4580   23.5500 C.3       6 GLL5        0.0000 
     29 CA         10.9340   29.1630   23.0130 C.3       4 GLP5        0.0000 
     30 CA         17.0225   28.2120   26.1210 C.3       2 GLC5        0.0000 
     31 CA         15.1910   27.0450   25.8140 C.3       6 GLL5        0.0000 
     32 CA         18.8540   29.3790   26.4280 C.3       4 GLP5        0.0000 
     33 CA         11.6370   29.0905   26.6205 C.3       2 GLC5        0.0000 
     34 CA         13.7820   28.8410   26.7990 C.3       6 GLL5        0.0000 
     35 CA          9.4920   29.3400   26.4420 C.3       4 GLP5        0.0000 
     36 CA         13.5555   30.8115   27.0410 C.3       2 GLC5        0.0000 
     37 CA         13.3290   32.7820   27.2830 C.3       4 GLP5        0.0000 
     38 CA         17.8820   27.5245   26.6695 C.3       2 GLC5        0.0000 
     39 CA         16.6090   26.5370   25.8790 C.3       6 GLL5        0.0000 
     40 CA         19.1550   28.5120   27.4600 C.3       4 GLP5        0.0000 
     41 CA         17.4815   25.6795   27.5835 C.3       2 GLC5        0.0000 
     42 CA         18.3540   24.8220   29.2880 C.3       4 GLP5        0.0000 
     43 CA         16.0775   24.4090   23.1640 C.3       2 GLC5        0.0000 
     44 CA         16.9170   25.3360   25.0220 C.3       6 GLL5        0.0000 
     45 CA         15.2380   23.4820   21.3060 C.3       4 GLP5        0.0000 
     46 CA         18.3145   24.3140   24.0035 C.3       2 GLC5        0.0000 
     47 CA         19.7120   23.2920   22.9850 C.3       4 GLP5        0.0000 
     48 CA         10.8485   26.6285   27.6400 C.3       2 GLC5        0.0000 
     49 CA         12.0270   25.2240   26.6540 C.3       6 GLL5        0.0000 
     50 CA          9.6700   28.0330   28.6260 C.3       4 GLP5        0.0000 
     51 CA         16.4890   25.0475   28.3700 C.3       2 GLC5        0.0000 
     52 CA         14.6240   25.2730   27.4520 C.3       6 GLL5        0.0000 
     53 CA          9.2335   25.2635   27.3310 C.3       2 GLC5        0.0000 
     54 CA         10.2590   23.3700   27.8380 C.3       6 GLL5        0.0000 
     55 CA          8.2080   27.1570   26.8240 C.3       4 GLP5        0.0000 
     56 CA         10.4145   23.4495   25.7810 C.3       2 GLC5        0.0000 
     57 CA         10.5700   23.5290   23.7240 C.3       4 GLP5        0.0000 
     58 CA          9.3680   24.5255   29.3985 C.3       2 GLC5        0.0000 
     59 CA          8.4770   25.6810   30.9590 C.3       4 GLP5        0.0000 
     60 N          11.1950   21.2440   29.3915 N.am      1 SEC2        0.0000 
     61 N          10.6790   21.0610   27.9970 N.am      5 SEL2        0.0000 
     62 N          11.7110   21.4270   30.7860 N.am      3 SEP2        0.0000 
     63 N          11.6515   20.1420   27.8495 N.am      1 SEC2        0.0000 
     64 N          12.6240   19.2230   27.7020 N.am      3 SEP2        0.0000 
     65 CA          9.6775   22.1640   25.0855 C.3       2 GLC5        0.0000 
     66 CA          8.7850   20.7990   26.4470 C.3       6 GLL5        0.0000 
     67 CA          8.4765   18.7745   27.3475 C.3       2 GLC5        0.0000 
     68 CA          8.1680   16.7500   28.2480 C.3       4 GLP5        0.0000 
     69 CA          9.6975   19.5155   25.1155 C.3       2 GLC5        0.0000 
     70 CA         10.6100   18.2320   23.7840 C.3       4 GLP5        0.0000 
     71 CA          6.2315   23.0540   28.4350 C.3       2 GLC5        0.0000 
     72 CA          7.7720   22.8970   27.3010 C.3       6 GLL5        0.0000 
     73 CA          4.6910   23.2110   29.5690 C.3       4 GLP5        0.0000 
     74 CA          7.9900   25.0270   27.0625 C.3       2 GLC5        0.0000 
     75 CA          6.6660   23.4930   25.9245 C.3       2 GLC5        0.0000 
     76 CA          5.5600   24.0890   24.5480 C.3       4 GLP5        0.0000 
     77 CA          6.1730   21.9900   29.0735 C.3       2 GLC5        0.0000 
     78 CA          7.6550   20.7690   28.5780 C.3       6 GLL5        0.0000 
     79 CA          7.9115   18.7595   28.4130 C.3       2 GLC5        0.0000 
     80 CA          7.9030   20.3830   30.7065 C.3       2 GLC5        0.0000 
     81 CA          8.1510   19.9970   32.8350 C.3       4 GLP5        0.0000 
     82 CA          5.7470   20.5225   27.9320 C.3       2 GLC5        0.0000 
     83 CA          3.8390   20.2760   27.2860 C.3       4 GLP5        0.0000 
     84 CA         16.2523   29.5757   16.6777 C.3       2 GLC5        0.0000 
     85 CA         14.8870   28.7940   18.1710 C.3       6 GLL5        0.0000 
     86 CA         18.0600   29.9070   15.6080 C.3       4 GLP5        0.0000 
     87 CA         12.8651   28.7527   22.7330 C.3       2 GLC5        0.0000 
     88 CA         15.0400   28.8810   22.5320 C.3       6 GLL5        0.0000 
     89 CA         16.6541   27.9507   22.3010 C.3       2 GLC5        0.0000 
     90 CA         14.4330   27.9560   21.7170 C.3       6 GLL5        0.0000 
     91 CA         14.7088   25.0442   22.1020 C.3       2 GLC5        0.0000 
     92 CA         15.9143   29.6467   27.2808 C.3       2 GLC5        0.0000 
     93 CA         15.1590   28.3040   26.6300 C.3       6 GLL5        0.0000 
     94 CA         17.3580   30.7210   27.8470 C.3       4 GLP5        0.0000 
     95 CA         14.3138   28.4457   28.6268 C.3       2 GLC5        0.0000 
     96 CA         14.1570   28.3190   30.5390 C.3       4 GLP5        0.0000 
     97 CA         17.6375   26.7477   23.7998 C.3       2 GLC5        0.0000 
     98 CA         14.0427   25.4430   29.6653 C.3       2 GLC5        0.0000 
     99 CA         13.9070   26.0410   31.5780 C.3       4 GLP5        0.0000 
    100 CA         12.5065   23.5015   29.6427 C.3       2 GLC5        0.0000 
    101 CA         13.7330   24.4170   28.0530 C.3       6 GLL5        0.0000 
    102 CA         11.9330   22.5970   31.4330 C.3       4 GLP5        0.0000 
    103 CA         11.5105   24.2746   25.3654 C.3       2 GLC5        0.0000 
    104 CA         12.4270   24.3950   27.6520 C.3       6 GLL5        0.0000 
    105 CA         10.9707   22.6528   29.7595 C.3       2 GLC5        0.0000 
@<TRIPOS>BOND
@<TRIPOS>SUBSTRUCTURE
     1 SEC2       19 GROUP        1 X    SEC  0     ROOT SEC X 2
     2 GLC5        1 GROUP        1 X    GLC  0     **** GLC X 6
     3 SEP2       21 GROUP        1 Y    SEP  0     ROOT SEP Y 9
     4 GLP5        3 GROUP        1 Y    GLP  0     **** GLP Y 13
     5 SEL2       20 GROUP        1 Z    SEL  0     ROOT SEL Z 16
     6 GLL5        2 GROUP        1 Z    GLL  0     **** GLL Z 20
@<TRIPOS>SET

