#    Name: 3w0i_O11_1_ligand
#    Modification time : Tue Mar 25 01:55:49 2014

@<TRIPOS>MOLECULE
3w0i_O11_1_ligand
   69    70     1     0     0
SMALL
NO_CHARGES


@<TRIPOS>ATOM
      1 C14        12.9230   26.0670   26.0690 C.ar      1 O11501      0.0000 
      2 C13        14.2260   26.1060   26.4460 C.ar      1 O11501      0.0000 
      3 C1         14.0020   29.6950   17.3240 C.3       1 O11501      0.0000 
      4 C6         15.2790   28.5770   23.8460 C.ar      1 O11501      0.0000 
      5 C5         15.0400   28.8810   22.5320 C.ar      1 O11501      0.0000 
      6 C4         14.4330   27.9560   21.7170 C.ar      1 O11501      0.0000 
      7 C3         14.8630   29.1820   19.6490 C.3       1 O11501      0.0000 
      8 C2         14.8870   28.7940   18.1710 C.3       1 O11501      0.0000 
      9 C7         14.9050   27.3670   24.3760 C.ar      1 O11501      0.0000 
     10 O01        14.3950   29.7250   15.9570 O.3       1 O11501      0.0000 
     11 O02        14.4330   27.4480   18.0050 O.3       1 O11501      0.0000 
     12 O03        14.1650   28.2190   20.4170 O.3       1 O11501      0.0000 
     13 C9         14.0580   26.7550   22.2460 C.ar      1 O11501      0.0000 
     14 C8         14.3010   26.4580   23.5500 C.ar      1 O11501      0.0000 
     15 C10        15.1910   27.0450   25.8140 C.3       1 O11501      0.0000 
     16 C11        15.1590   28.3040   26.6300 C.3       1 O11501      0.0000 
     17 C25        13.7820   28.8410   26.7990 C.3       1 O11501      0.0000 
     18 C12        16.6090   26.5370   25.8790 C.3       1 O11501      0.0000 
     19 C26        16.9170   25.3360   25.0220 C.3       1 O11501      0.0000 
     20 C15        12.0270   25.2240   26.6540 C.ar      1 O11501      0.0000 
     21 C18        14.6240   25.2730   27.4520 C.ar      1 O11501      0.0000 
     22 C17        13.7330   24.4170   28.0530 C.ar      1 O11501      0.0000 
     23 C16        12.4270   24.3950   27.6520 C.ar      1 O11501      0.0000 
     24 O04        11.5680   23.5530   28.2420 O.3       1 O11501      0.0000 
     25 C19        10.2590   23.3700   27.8380 C.3       1 O11501      0.0000 
     26 C20         9.7580   22.0470   28.3340 C.3       1 O11501      0.0000 
     27 O05        10.6790   21.0610   27.9970 O.3       1 O11501      0.0000 
     28 C21         8.4850   21.6300   27.6620 C.3       1 O11501      0.0000 
     29 C22         8.7850   20.7990   26.4470 C.3       1 O11501      0.0000 
     30 C23         7.7720   22.8970   27.3010 C.3       1 O11501      0.0000 
     31 C24         7.6550   20.7690   28.5780 C.3       1 O11501      0.0000 
     32 H          12.5924   26.7067   25.3015 H         1 O11501      0.0000 
     33 H          14.0282   30.7089   17.7755 H         1 O11501      0.0000 
     34 H          12.9567   29.3386   17.4374 H         1 O11501      0.0000 
     35 H          15.7539   29.2769   24.4565 H         1 O11501      0.0000 
     36 H          15.3144   29.8019   22.1530 H         1 O11501      0.0000 
     37 H          14.3994   30.1805   19.7206 H         1 O11501      0.0000 
     38 H          15.9102   29.2912   19.9786 H         1 O11501      0.0000 
     39 H          15.9068   28.8927   17.8097 H         1 O11501      0.0000 
     40 H          13.5771   26.0551   21.6376 H         1 O11501      0.0000 
     41 H          14.0252   25.5267   23.9299 H         1 O11501      0.0000 
     42 H          15.7956   29.0642   26.1450 H         1 O11501      0.0000 
     43 H          15.6018   28.1028   27.6209 H         1 O11501      0.0000 
     44 H          16.8560   26.2952   26.9393 H         1 O11501      0.0000 
     45 H          17.3009   27.3657   25.5991 H         1 O11501      0.0000 
     46 H          11.0388   25.2170   26.3352 H         1 O11501      0.0000 
     47 H          15.6153   25.2838   27.7707 H         1 O11501      0.0000 
     48 H          14.0552   23.7888   28.8109 H         1 O11501      0.0000 
     49 H          10.1519   23.3789   26.7386 H         1 O11501      0.0000 
     50 H           9.5840   24.1525   28.2283 H         1 O11501      0.0000 
     51 H           9.5961   22.0894   29.3890 H         1 O11501      0.0000 
     52 H          13.7748   29.6805   27.3423 H         1 O11501      0.0000 
     53 H          13.3572   29.0571   25.9199 H         1 O11501      0.0000 
     54 H          13.1827   28.1875   27.2614 H         1 O11501      0.0000 
     55 H          17.8714   25.0511   25.1111 H         1 O11501      0.0000 
     56 H          16.3519   24.5488   25.2689 H         1 O11501      0.0000 
     57 H          16.7554   25.5203   24.0525 H         1 O11501      0.0000 
     58 H           9.3347   21.3016   25.7798 H         1 O11501      0.0000 
     59 H           9.2931   19.9699   26.6803 H         1 O11501      0.0000 
     60 H           7.9497   20.5092   25.9798 H         1 O11501      0.0000 
     61 H           8.3160   23.4667   26.6850 H         1 O11501      0.0000 
     62 H           6.9025   22.7159   26.8414 H         1 O11501      0.0000 
     63 H           7.5671   23.4508   28.1081 H         1 O11501      0.0000 
     64 H           8.1409   19.9376   28.8476 H         1 O11501      0.0000 
     65 H           7.4095   21.2508   29.4192 H         1 O11501      0.0000 
     66 H           6.8007   20.4818   28.1447 H         1 O11501      0.0000 
     67 H          13.9552   30.5398   15.5792 H         1 O11501      0.0000 
     68 H          14.1217   27.1662   18.9126 H         1 O11501      0.0000 
     69 H          10.1530   20.2108   27.9794 H         1 O11501      0.0000 
@<TRIPOS>BOND
     1    2    1 ar   
     2   20    1 ar   
     3   32    1 1    
     4   15    2 1    
     5   21    2 ar   
     6    8    3 1    
     7   10    3 1    
     8   33    3 1    
     9   34    3 1    
    10    5    4 ar   
    11    9    4 ar   
    12   35    4 1    
    13    6    5 ar   
    14   36    5 1    
    15   12    6 1    
    16   13    6 ar   
    17    8    7 1    
    18   12    7 1    
    19   37    7 1    
    20   38    7 1    
    21   11    8 1    
    22   39    8 1    
    23   14    9 ar   
    24   15    9 1    
    25   67   10 1    
    26   68   11 1    
    27   14   13 ar   
    28   40   13 1    
    29   41   14 1    
    30   16   15 1    
    31   18   15 1    
    32   17   16 1    
    33   42   16 1    
    34   43   16 1    
    35   52   17 1    
    36   53   17 1    
    37   54   17 1    
    38   19   18 1    
    39   44   18 1    
    40   45   18 1    
    41   55   19 1    
    42   56   19 1    
    43   57   19 1    
    44   23   20 ar   
    45   46   20 1    
    46   22   21 ar   
    47   47   21 1    
    48   23   22 ar   
    49   48   22 1    
    50   24   23 1    
    51   25   24 1    
    52   26   25 1    
    53   49   25 1    
    54   50   25 1    
    55   27   26 1    
    56   28   26 1    
    57   51   26 1    
    58   69   27 1    
    59   29   28 1    
    60   30   28 1    
    61   31   28 1    
    62   58   29 1    
    63   59   29 1    
    64   60   29 1    
    65   61   30 1    
    66   62   30 1    
    67   63   30 1    
    68   64   31 1    
    69   65   31 1    
    70   66   31 1    
@<TRIPOS>SUBSTRUCTURE
     1 O11501      1 GROUP   
@<TRIPOS>SET

