#    Name: 2qe4_JJ3_2_INTS_M
#    Modification time : Mon Mar 24 21:50:54 2014

@<TRIPOS>MOLECULE
2qe4_JJ3_2_INTS_M
   66     0     9     0     0
SMALL
NO_CHARGES


@<TRIPOS>ATOM
      1 CA         15.8250   11.4035   33.3300 C.3       3 GLC5        0.0000 
      2 CA         17.1800   13.1040   32.8910 C.3       9 GLL5        0.0000 
      3 CA         14.4700    9.7030   33.7690 C.3       6 GLP5        0.0000 
      4 CA         19.3165   13.7910   27.7605 C.3       3 GLC5        0.0000 
      5 CA         20.4160   15.2010   28.8860 C.3       9 GLL5        0.0000 
      6 CA         18.2170   12.3810   26.6350 C.3       6 GLP5        0.0000 
      7 CA         21.2285   14.7500   27.0200 C.3       3 GLC5        0.0000 
      8 CA         22.0410   14.2990   25.1540 C.3       6 GLP5        0.0000 
      9 CA         17.5610   16.4685   28.9860 C.3       3 GLC5        0.0000 
     10 CA         19.4620   16.4160   28.9210 C.3       9 GLL5        0.0000 
     11 CA         15.6600   16.5210   29.0510 C.3       6 GLP5        0.0000 
     12 CA         17.7320   17.5305   30.6490 C.3       3 GLC5        0.0000 
     13 CA         19.4160   16.9190   30.3780 C.3       9 GLL5        0.0000 
     14 CA         16.0480   18.1420   30.9200 C.3       6 GLP5        0.0000 
     15 CA         23.9875    9.4080   28.2245 C.3       3 GLC5        0.0000 
     16 CA         23.2820   11.4530   28.2470 C.3       9 GLL5        0.0000 
     17 CA         24.6930    7.3630   28.2020 C.3       6 GLP5        0.0000 
     18 N          26.7515   10.8585   27.3915 N.am      2 SEC2        0.0000 
     19 N          25.5270   11.5500   27.3970 N.am      8 SEL2        0.0000 
     20 N          27.9760   10.1670   27.3860 N.am      5 SEP2        0.0000 
     21 N          25.7540   10.9900   25.9205 N.am      2 SEC2        0.0000 
     22 N          25.9810   10.4300   24.4440 N.am      5 SEP2        0.0000 
     23 O          26.1095   12.7850   27.0090 O.2       1 ALC1        0.0000 
     24 O          25.5270   11.5500   27.3970 O.2       7 ALL1        0.0000 
     25 O          26.6920   14.0200   26.6210 O.2       4 ALP1        0.0000 
     26 O          26.5315   12.1130   26.2540 O.2       1 ALC1        0.0000 
     27 O          27.5360   12.6760   25.1110 O.2       4 ALP1        0.0000 
     28 CA         26.7465   13.7475   29.6345 C.3       3 GLC5        0.0000 
     29 CA         24.8200   13.2130   28.9760 C.3       9 GLL5        0.0000 
     30 CA         28.6730   14.2820   30.2930 C.3       6 GLP5        0.0000 
     31 CA         23.6375   14.7730   31.6745 C.3       3 GLC5        0.0000 
     32 CA         23.8230   13.7480   29.8080 C.3       9 GLL5        0.0000 
     33 CA         23.4520   15.7980   33.5410 C.3       6 GLP5        0.0000 
     34 CA         17.7450    9.9870   30.3990 C.3       3 GLC5        0.0000 
     35 CA         18.3280   11.0970   31.8590 C.3       9 GLL5        0.0000 
     36 CA         17.1620    8.8770   28.9390 C.3       6 GLP5        0.0000 
     37 CA         17.4405    9.4050   32.3600 C.3       3 GLC5        0.0000 
     38 CA         16.5530    7.7130   32.8610 C.3       6 GLP5        0.0000 
     39 CA         22.1765   10.1820   32.5015 C.3       3 GLC5        0.0000 
     40 CA         20.3390   10.1570   32.4850 C.3       9 GLL5        0.0000 
     41 CA         24.0140   10.2070   32.5180 C.3       6 GLP5        0.0000 
     42 CA         20.3005    8.3775   32.1865 C.3       3 GLC5        0.0000 
     43 CA         20.2620    6.5980   31.8880 C.3       6 GLP5        0.0000 
     44 N          15.2475   14.6200   34.7850 N.am      2 SEC2        0.0000 
     45 N          16.0850   15.0110   33.8720 N.am      8 SEL2        0.0000 
     46 N          14.4100   14.2290   35.6980 N.am      5 SEP2        0.0000 
     47 CA         15.3427   13.5012   34.1943 C.3       3 GLC5        0.0000 
     48 CA         17.0930   14.4970   33.1300 C.3       9 GLL5        0.0000 
     49 CA         13.5490   13.2020   35.3780 C.3       6 GLP5        0.0000 
     50 CA         16.4473   15.9065   31.6792 C.3       3 GLC5        0.0000 
     51 CA         15.3190   16.8840   30.4910 C.3       6 GLP5        0.0000 
     52 CA         19.2675   15.8603   26.9213 C.3       3 GLC5        0.0000 
     53 CA         18.5960   15.9120   24.9390 C.3       6 GLP5        0.0000 
     54 CA         21.6728   16.3856   28.5581 C.3       3 GLC5        0.0000 
     55 CA         23.2290   16.9640   27.8610 C.3       6 GLP5        0.0000 
     56 CA         20.2675   18.1400   31.5410 C.3       3 GLC5        0.0000 
     57 CA         20.7550   19.8830   32.2550 C.3       6 GLP5        0.0000 
     58 CA         22.0854   15.4859   32.2234 C.3       3 GLC5        0.0000 
     59 CA         20.1440   15.8750   31.2760 C.3       9 GLL5        0.0000 
     60 CA         18.3349   16.2828   33.7634 C.3       3 GLC5        0.0000 
     61 CA         19.1260   14.8700   31.8220 C.3       9 GLL5        0.0000 
     62 CA         18.3190   17.6660   35.1820 C.3       6 GLP5        0.0000 
     63 CA         22.9870   11.8839   26.5708 C.3       3 GLC5        0.0000 
     64 CA         22.2800   11.9900   29.0810 C.3       9 GLL5        0.0000 
     65 CA         22.3060   11.8750   24.7120 C.3       6 GLP5        0.0000 
     66 CA         23.6151   15.1466   28.6339 C.3       3 GLC5        0.0000 
@<TRIPOS>BOND
@<TRIPOS>SUBSTRUCTURE
     1 ALC1       23 GROUP        1 X    ALC  0     ROOT ALC X 1
     2 SEC2       18 GROUP        1 X    SEC  0     **** SEC X 2
     3 GLC5        1 GROUP        1 X    GLC  0     **** GLC X 6
     4 ALP1       25 GROUP        1 Y    ALP  0     ROOT ALP Y 8
     5 SEP2       20 GROUP        1 Y    SEP  0     **** SEP Y 9
     6 GLP5        3 GROUP        1 Y    GLP  0     **** GLP Y 13
     7 ALL1       24 GROUP        1 Z    ALL  0     ROOT ALL Z 15
     8 SEL2       19 GROUP        1 Z    SEL  0     **** SEL Z 16
     9 GLL5        2 GROUP        1 Z    GLL  0     **** GLL Z 20
@<TRIPOS>SET

