#    Name: 2qe4_JJ3_2_ligand
#    Modification time : Mon Mar 24 21:50:54 2014

@<TRIPOS>MOLECULE
2qe4_JJ3_2_ligand
   46    49     1     0     0
SMALL
NO_CHARGES


@<TRIPOS>ATOM
      1 C1         17.0930   14.4970   33.1300 C.ar      1 JJ3601      0.0000 
      2 C2         17.1800   13.1040   32.8910 C.ar      1 JJ3601      0.0000 
      3 C3         18.2390   12.5890   32.1130 C.ar      1 JJ3601      0.0000 
      4 C4         19.2380   13.4730   31.5740 C.ar      1 JJ3601      0.0000 
      5 O5         20.2670   12.9180   30.8100 O.3       1 JJ3601      0.0000 
      6 C6         21.4610   13.7490   30.7780 C.3       1 JJ3601      0.0000 
      7 C8         21.1260   15.1960   30.2930 C.3       1 JJ3601      0.0000 
      8 C10        20.4160   15.2010   28.8860 C.3       1 JJ3601      0.0000 
      9 C11        19.4620   16.4160   28.9210 C.3       1 JJ3601      0.0000 
     10 C12        19.4160   16.9190   30.3780 C.3       1 JJ3601      0.0000 
     11 C13        20.1440   15.8750   31.2760 C.3       1 JJ3601      0.0000 
     12 C15        19.1260   14.8700   31.8220 C.ar      1 JJ3601      0.0000 
     13 C16        18.0580   15.3610   32.6050 C.ar      1 JJ3601      0.0000 
     14 C17        22.5420   13.1430   29.8670 C.ar      1 JJ3601      0.0000 
     15 C18        22.2800   11.9900   29.0810 C.ar      1 JJ3601      0.0000 
     16 C19        23.2820   11.4530   28.2470 C.ar      1 JJ3601      0.0000 
     17 C20        24.5550   12.0640   28.1950 C.ar      1 JJ3601      0.0000 
     18 O21        25.5270   11.5500   27.3970 O.3       1 JJ3601      0.0000 
     19 C22        24.8200   13.2130   28.9760 C.ar      1 JJ3601      0.0000 
     20 C23        23.8230   13.7480   29.8080 C.ar      1 JJ3601      0.0000 
     21 C24        18.3280   11.0970   31.8590 C.3       1 JJ3601      0.0000 
     22 O25        19.0230   10.4710   32.9380 O.3       1 JJ3601      0.0000 
     23 C26        20.3390   10.1570   32.4850 C.3       1 JJ3601      0.0000 
     24 O27        16.0850   15.0110   33.8720 O.3       1 JJ3601      0.0000 
     25 H          16.4779   12.4759   33.2811 H         1 JJ3601      0.0000 
     26 H          21.8887   13.8442   31.7757 H         1 JJ3601      0.0000 
     27 H          22.0083   15.7758   30.2299 H         1 JJ3601      0.0000 
     28 H          19.8603   14.3067   28.7816 H         1 JJ3601      0.0000 
     29 H          21.1488   15.3370   28.1350 H         1 JJ3601      0.0000 
     30 H          18.4828   16.1075   28.6185 H         1 JJ3601      0.0000 
     31 H          19.8475   17.1885   28.2883 H         1 JJ3601      0.0000 
     32 H          18.3955   17.0036   30.6980 H         1 JJ3601      0.0000 
     33 H          19.9274   17.8593   30.4509 H         1 JJ3601      0.0000 
     34 H          20.6644   16.3650   32.0209 H         1 JJ3601      0.0000 
     35 H          17.9950   16.3734   32.7885 H         1 JJ3601      0.0000 
     36 H          21.3578   11.5496   29.1230 H         1 JJ3601      0.0000 
     37 H          23.0898   10.6257   27.6821 H         1 JJ3601      0.0000 
     38 H          25.7432   13.6531   28.9316 H         1 JJ3601      0.0000 
     39 H          24.0158   14.5769   30.3758 H         1 JJ3601      0.0000 
     40 H          18.8439   10.9449   30.9039 H         1 JJ3601      0.0000 
     41 H          17.3083   10.7083   31.7557 H         1 JJ3601      0.0000 
     42 H          20.8408   10.9756   32.2056 H         1 JJ3601      0.0000 
     43 H          20.8803    9.7103   33.1974 H         1 JJ3601      0.0000 
     44 H          20.3236    9.5399   31.6983 H         1 JJ3601      0.0000 
     45 H          26.0356   12.3442   27.0646 H         1 JJ3601      0.0000 
     46 H          16.0647   15.9840   33.6421 H         1 JJ3601      0.0000 
@<TRIPOS>BOND
     1    2    1 ar   
     2   13    1 ar   
     3   24    1 1    
     4    3    2 ar   
     5   25    2 1    
     6    4    3 ar   
     7   21    3 1    
     8    5    4 1    
     9   12    4 ar   
    10    6    5 1    
    11    7    6 1    
    12   14    6 1    
    13   26    6 1    
    14    8    7 1    
    15   11    7 1    
    16   27    7 1    
    17    9    8 1    
    18   28    8 1    
    19   29    8 1    
    20   10    9 1    
    21   30    9 1    
    22   31    9 1    
    23   11   10 1    
    24   32   10 1    
    25   33   10 1    
    26   12   11 1    
    27   34   11 1    
    28   13   12 ar   
    29   35   13 1    
    30   15   14 ar   
    31   20   14 ar   
    32   16   15 ar   
    33   36   15 1    
    34   17   16 ar   
    35   37   16 1    
    36   18   17 1    
    37   19   17 ar   
    38   45   18 1    
    39   20   19 ar   
    40   38   19 1    
    41   39   20 1    
    42   22   21 1    
    43   40   21 1    
    44   41   21 1    
    45   23   22 1    
    46   42   23 1    
    47   43   23 1    
    48   44   23 1    
    49   46   24 1    
@<TRIPOS>SUBSTRUCTURE
     1 JJ3601      1 GROUP   
@<TRIPOS>SET

