#    Name: 2ed4_NAD_2_INTS_M
#    Modification time : Mon Apr  7 17:42:29 2014

@<TRIPOS>MOLECULE
2ed4_NAD_2_INTS_M
   47     0     9     0     0
SMALL
NO_CHARGES


@<TRIPOS>ATOM
      1 NZ         19.8065   28.4640   62.5255 N.4       2 LYC4        0.0000 
      2 NZ         20.4910   27.5620   63.6830 N.4       8 LYL4        0.0000 
      3 NZ         18.0110   28.6660   61.5510 N.4       5 LYP4        0.0000 
      4 N          19.1435   27.8085   63.1985 N.am      1 SEC2        0.0000 
      5 N          20.4910   27.5620   63.6830 N.am      7 SEL2        0.0000 
      6 N          17.7960   28.0550   62.7140 N.am      4 SEP2        0.0000 
      7 N          19.8065   28.4640   62.5255 N.am      1 SEC2        0.0000 
      8 N          19.1220   29.3660   61.3680 N.am      4 SEP2        0.0000 
      9 CA         22.5940   27.5075   62.1260 C.3       3 GLC5        0.0000 
     10 CA         21.8630   25.5960   62.0640 C.3       9 GLL5        0.0000 
     11 CA         23.3250   29.4190   62.1880 C.3       6 GLP5        0.0000 
     12 CA         20.6190   25.8840   60.4805 C.3       3 GLC5        0.0000 
     13 CA         19.3750   26.1720   58.8970 C.3       6 GLP5        0.0000 
     14 CA         23.8520   24.9025   59.8865 C.3       3 GLC5        0.0000 
     15 CA         22.9080   24.6690   61.4380 C.3       9 GLL5        0.0000 
     16 CA         24.7960   25.1360   58.3350 C.3       6 GLP5        0.0000 
     17 CA         21.5475   24.8865   59.8010 C.3       3 GLC5        0.0000 
     18 CA         20.1870   25.1040   58.1640 C.3       6 GLP5        0.0000 
     19 CA         27.2500   26.0685   66.0405 C.3       3 GLC5        0.0000 
     20 CA         26.6570   24.2380   65.2530 C.3       9 GLL5        0.0000 
     21 CA         27.8430   27.8990   66.8280 C.3       6 GLP5        0.0000 
     22 CA         28.8640   25.5490   65.9020 C.3       3 GLC5        0.0000 
     23 CA         27.7660   23.9320   66.0320 C.3       9 GLL5        0.0000 
     24 CA         29.9620   27.1660   65.7720 C.3       6 GLP5        0.0000 
     25 CA         30.7380   23.5270   63.7980 C.3       3 GLC5        0.0000 
     26 CA         28.8380   23.0600   64.1640 C.3       9 GLL5        0.0000 
     27 CA         32.6380   23.9940   63.4320 C.3       6 GLP5        0.0000 
     28 N          27.9200   23.2630   61.9740 N.am      1 SEC2        0.0000 
     29 N          27.8010   23.3370   63.3960 N.am      7 SEL2        0.0000 
     30 N          28.0390   23.1890   60.5520 N.am      4 SEP2        0.0000 
     31 N          17.1815   22.2860   64.5050 N.am      1 SEC2        0.0000 
     32 N          17.8880   23.3830   64.5100 N.am      7 SEL2        0.0000 
     33 N          16.4750   21.1890   64.5000 N.am      4 SEP2        0.0000 
     34 CA         22.1225   19.7610   67.6330 C.3       3 GLC5        0.0000 
     35 CA         22.7180   21.5370   67.6290 C.3       9 GLL5        0.0000 
     36 CA         21.5270   17.9850   67.6370 C.3       6 GLP5        0.0000 
     37 N          28.6660   20.0290   66.1295 N.am      1 SEC2        0.0000 
     38 N          27.3680   20.2280   65.8170 N.am      7 SEL2        0.0000 
     39 N          29.9640   19.8300   66.4420 N.am      4 SEP2        0.0000 
     40 CA         24.7642   24.3100   60.1063 C.3       3 GLC5        0.0000 
     41 CA         24.3400   22.8330   61.7900 C.3       9 GLL5        0.0000 
     42 CA         26.2088   22.7640   60.8363 C.3       3 GLC5        0.0000 
     43 CA         25.1250   24.1350   61.9650 C.3       9 GLL5        0.0000 
     44 CA         27.6850   22.0440   59.7950 C.3       6 GLP5        0.0000 
     45 CA         24.8734   18.8207   65.9438 C.3       3 GLC5        0.0000 
     46 CA         25.1070   20.2750   65.0000 C.3       9 GLL5        0.0000 
     47 CA         25.2370   17.4150   67.1650 C.3       6 GLP5        0.0000 
@<TRIPOS>BOND
@<TRIPOS>SUBSTRUCTURE
     1 SEC2        4 GROUP        1 X    SEC  0     ROOT SEC X 2
     2 LYC4        1 GROUP        1 X    LYC  0     **** LYC X 4
     3 GLC5        9 GROUP        1 X    GLC  0     **** GLC X 6
     4 SEP2        6 GROUP        1 Y    SEP  0     ROOT SEP Y 9
     5 LYP4        3 GROUP        1 Y    LYP  0     **** LYP Y 11
     6 GLP5       11 GROUP        1 Y    GLP  0     **** GLP Y 13
     7 SEL2        5 GROUP        1 Z    SEL  0     ROOT SEL Z 16
     8 LYL4        2 GROUP        1 Z    LYL  0     **** LYL Z 18
     9 GLL5       10 GROUP        1 Z    GLL  0     **** GLL Z 20
@<TRIPOS>SET

