#    Name: 2ed4_NAD_2_ligand
#    Modification time : Mon Apr  7 17:42:29 2014

@<TRIPOS>MOLECULE
2ed4_NAD_2_ligand
   70    74     1     0     0
SMALL
NO_CHARGES


@<TRIPOS>ATOM
      1 PA         20.6880   26.2470   64.3350 P.3       1 NAD401      0.0000 
      2 O1A        21.0980   26.2230   65.7570 O.co2     1 NAD401      0.0000 
      3 O2A        20.4910   27.5620   63.6830 O.co2     1 NAD401      0.0000 
      4 O5B        21.7350   25.3780   63.4730 O.3       1 NAD401      0.0000 
      5 C5B        21.8630   25.5960   62.0640 C.3       1 NAD401      0.0000 
      6 C4B        22.9080   24.6690   61.4380 C.3       1 NAD401      0.0000 
      7 O4B        24.2320   25.2060   61.6100 O.3       1 NAD401      0.0000 
      8 C3B        22.9210   23.2960   62.1110 C.3       1 NAD401      0.0000 
      9 O3B        21.9670   22.4390   61.4770 O.3       1 NAD401      0.0000 
     10 C2B        24.3400   22.8330   61.7900 C.3       1 NAD401      0.0000 
     11 O2B        24.4160   22.4040   60.4280 O.3       1 NAD401      0.0000 
     12 C1B        25.1250   24.1350   61.9650 C.3       1 NAD401      0.0000 
     13 N9A        25.5360   24.2870   63.3800 N.pl3     1 NAD401      0.0000 
     14 C8A        24.7970   24.8200   64.3530 C.2       1 NAD401      0.0000 
     15 N7A        25.4730   24.7910   65.4980 N.2       1 NAD401      0.0000 
     16 C5A        26.6570   24.2380   65.2530 C.ar      1 NAD401      0.0000 
     17 C6A        27.7660   23.9320   66.0320 C.ar      1 NAD401      0.0000 
     18 N6A        27.7680   24.2060   67.3340 N.pl3     1 NAD401      0.0000 
     19 N1A        28.8310   23.3540   65.4550 N.ar      1 NAD401      0.0000 
     20 C2A        28.8380   23.0600   64.1640 C.ar      1 NAD401      0.0000 
     21 N3A        27.8010   23.3370   63.3960 N.ar      1 NAD401      0.0000 
     22 C4A        26.7000   23.9230   63.9020 C.ar      1 NAD401      0.0000 
     23 O3         19.3030   25.4340   64.1850 O.3       1 NAD401      0.0000 
     24 PN         19.2550   23.8250   64.1530 P.3       1 NAD401      0.0000 
     25 O1N        19.8390   23.3450   62.8790 O.co2     1 NAD401      0.0000 
     26 O2N        17.8880   23.3830   64.5100 O.co2     1 NAD401      0.0000 
     27 O5D        20.2560   23.3910   65.3360 O.3       1 NAD401      0.0000 
     28 C5D        19.8100   23.4080   66.6950 C.3       1 NAD401      0.0000 
     29 C4D        20.9510   23.0730   67.6570 C.3       1 NAD401      0.0000 
     30 O4D        21.2870   21.6790   67.5540 O.3       1 NAD401      0.0000 
     31 C3D        22.2220   23.8370   67.2880 C.3       1 NAD401      0.0000 
     32 O3D        22.2590   25.1190   67.9190 O.3       1 NAD401      0.0000 
     33 C2D        23.2990   22.9300   67.8800 C.3       1 NAD401      0.0000 
     34 O2D        23.4390   23.1500   69.2860 O.3       1 NAD401      0.0000 
     35 C1D        22.7180   21.5370   67.6290 C.3       1 NAD401      0.0000 
     36 N1N        23.2350   20.9840   66.3550 N.pl3     1 NAD401      0.0000 
     37 C2N        24.6100   20.7610   66.2060 C.ar      1 NAD401      0.0000 
     38 C3N        25.1070   20.2750   65.0000 C.ar      1 NAD401      0.0000 
     39 C7N        26.6150   20.0500   64.8610 C.2       1 NAD401      0.0000 
     40 O7N        27.3680   20.2280   65.8170 O.2       1 NAD401      0.0000 
     41 N7N        27.0200   19.6350   63.6630 N.am      1 NAD401      0.0000 
     42 C4N        24.1610   19.9350   63.8420 C.ar      1 NAD401      0.0000 
     43 C5N        22.8580   20.3860   64.0390 C.ar      1 NAD401      0.0000 
     44 C6N        22.3590   20.6870   65.3020 C.ar      1 NAD401      0.0000 
     45 H          22.1638   26.6346   61.8411 H         1 NAD401      0.0000 
     46 H          20.9074   25.4220   61.5393 H         1 NAD401      0.0000 
     47 H          22.6853   24.5307   60.3991 H         1 NAD401      0.0000 
     48 H          22.8163   23.4122   63.1302 H         1 NAD401      0.0000 
     49 H          24.6494   22.1471   62.4956 H         1 NAD401      0.0000 
     50 H          25.9709   24.1075   61.3259 H         1 NAD401      0.0000 
     51 H          23.8911   25.1791   64.2398 H         1 NAD401      0.0000 
     52 H          26.9650   24.6889   67.6833 H         1 NAD401      0.0000 
     53 H          28.5724   23.9044   67.8459 H         1 NAD401      0.0000 
     54 H          29.6905   22.5950   63.7426 H         1 NAD401      0.0000 
     55 H          19.0043   22.6761   66.8661 H         1 NAD401      0.0000 
     56 H          19.4141   24.3963   66.9791 H         1 NAD401      0.0000 
     57 H          20.6730   23.3323   68.6496 H         1 NAD401      0.0000 
     58 H          22.3246   23.8473   66.2506 H         1 NAD401      0.0000 
     59 H          24.1771   23.0330   67.3267 H         1 NAD401      0.0000 
     60 H          22.9962   20.9079   68.4483 H         1 NAD401      0.0000 
     61 H          25.2459   20.9567   66.9863 H         1 NAD401      0.0000 
     62 H          27.9956   19.4346   63.5734 H         1 NAD401      0.0000 
     63 H          26.3122   19.5610   62.9605 H         1 NAD401      0.0000 
     64 H          24.5026   19.4550   63.0852 H         1 NAD401      0.0000 
     65 H          22.2349   20.5019   63.2095 H         1 NAD401      0.0000 
     66 H          21.3444   20.6929   65.4685 H         1 NAD401      0.0000 
     67 H          21.2610   22.2822   62.1677 H         1 NAD401      0.0000 
     68 H          24.6043   23.2353   59.9051 H         1 NAD401      0.0000 
     69 H          22.3286   25.7752   67.1677 H         1 NAD401      0.0000 
     70 H          23.0545   24.0593   69.4451 H         1 NAD401      0.0000 
@<TRIPOS>BOND
     1    2    1 ar   
     2    3    1 ar   
     3    4    1 1    
     4   23    1 1    
     5    5    4 1    
     6    6    5 1    
     7   45    5 1    
     8   46    5 1    
     9    7    6 1    
    10    8    6 1    
    11   47    6 1    
    12   12    7 1    
    13    9    8 1    
    14   10    8 1    
    15   48    8 1    
    16   67    9 1    
    17   11   10 1    
    18   12   10 1    
    19   49   10 1    
    20   68   11 1    
    21   13   12 1    
    22   50   12 1    
    23   14   13 1    
    24   22   13 1    
    25   15   14 2    
    26   51   14 1    
    27   16   15 1    
    28   17   16 ar   
    29   22   16 ar   
    30   18   17 1    
    31   19   17 ar   
    32   52   18 1    
    33   53   18 1    
    34   20   19 ar   
    35   21   20 ar   
    36   54   20 1    
    37   22   21 ar   
    38   24   23 1    
    39   25   24 ar   
    40   26   24 ar   
    41   27   24 1    
    42   28   27 1    
    43   29   28 1    
    44   55   28 1    
    45   56   28 1    
    46   30   29 1    
    47   31   29 1    
    48   57   29 1    
    49   35   30 1    
    50   32   31 1    
    51   33   31 1    
    52   58   31 1    
    53   69   32 1    
    54   34   33 1    
    55   35   33 1    
    56   59   33 1    
    57   70   34 1    
    58   36   35 1    
    59   60   35 1    
    60   37   36 ar   
    61   44   36 ar   
    62   38   37 ar   
    63   61   37 1    
    64   39   38 1    
    65   42   38 ar   
    66   40   39 2    
    67   41   39 am   
    68   62   41 1    
    69   63   41 1    
    70   43   42 ar   
    71   64   42 1    
    72   44   43 ar   
    73   65   43 1    
    74   66   44 1    
@<TRIPOS>SUBSTRUCTURE
     1 NAD401      1 GROUP   
@<TRIPOS>SET

