#    Name: 1afs_TES_1_INTS_M
#    Modification time : Mon Mar 24 18:20:22 2014

@<TRIPOS>MOLECULE
1afs_TES_1_INTS_M
   51     0     6     0     0
SMALL
NO_CHARGES


@<TRIPOS>ATOM
      1 CA        -20.5610   13.8620   -1.2465 C.3       2 GLC5        0.0000 
      2 CA        -22.4760   12.8480   -1.0230 C.3       6 GLL5        0.0000 
      3 CA        -18.6460   14.8760   -1.4700 C.3       4 GLP5        0.0000 
      4 CA        -23.4480   14.3880   -1.0465 C.3       2 GLC5        0.0000 
      5 CA        -24.4200   15.9280   -1.0700 C.3       4 GLP5        0.0000 
      6 N         -22.3765   14.8705   -4.0410 N.am      1 SEC2        0.0000 
      7 N         -22.3660   14.2240   -2.9420 N.am      5 SEL2        0.0000 
      8 N         -22.3870   15.5170   -5.1400 N.am      3 SEP2        0.0000 
      9 N         -21.0345   14.2945   -2.5620 N.am      1 SEC2        0.0000 
     10 N         -19.7030   14.3650   -2.1820 N.am      3 SEP2        0.0000 
     11 CA        -24.7975   13.1650   -4.8175 C.3       2 GLC5        0.0000 
     12 CA        -24.1190   12.7040   -2.8790 C.3       6 GLL5        0.0000 
     13 CA        -25.4760   13.6260   -6.7560 C.3       4 GLP5        0.0000 
     14 CA        -23.1205   12.9945   -4.3700 C.3       2 GLC5        0.0000 
     15 CA        -22.1220   13.2850   -5.8610 C.3       4 GLP5        0.0000 
     16 CA        -24.2695   14.3160   -1.9745 C.3       2 GLC5        0.0000 
     17 CA        -27.4660   11.0325   -2.0935 C.3       2 GLC5        0.0000 
     18 CA        -25.7750   10.8850   -3.0880 C.3       6 GLL5        0.0000 
     19 CA        -29.1570   11.1800   -1.0990 C.3       4 GLP5        0.0000 
     20 CA        -23.0120    9.1110    1.1705 C.3       2 GLC5        0.0000 
     21 CA        -23.1260    8.4900   -0.5000 C.3       6 GLL5        0.0000 
     22 CA        -22.8980    9.7320    2.8410 C.3       4 GLP5        0.0000 
     23 CA        -21.1625    6.3895   -0.5675 C.3       2 GLC5        0.0000 
     24 CA        -22.9310    7.0130   -0.8740 C.3       6 GLL5        0.0000 
     25 CA        -19.3940    5.7660   -0.2610 C.3       4 GLP5        0.0000 
     26 CA        -22.7035    7.0185    1.2630 C.3       2 GLC5        0.0000 
     27 CA        -22.4760    7.0240    3.4000 C.3       4 GLP5        0.0000 
     28 CA        -27.7785    5.3225   -2.4650 C.3       2 GLC5        0.0000 
     29 CA        -25.8940    6.3220   -3.1300 C.3       6 GLL5        0.0000 
     30 CA        -29.6630    4.3230   -1.8000 C.3       4 GLP5        0.0000 
     31 CA        -27.3985    7.6510   -2.2620 C.3       2 GLC5        0.0000 
     32 CA        -28.9030    8.9800   -1.3940 C.3       4 GLP5        0.0000 
     33 CA        -26.7530    7.2465    0.3520 C.3       2 GLC5        0.0000 
     34 CA        -25.2810    6.2850   -0.2210 C.3       6 GLL5        0.0000 
     35 CA        -28.2250    8.2080    0.9250 C.3       4 GLP5        0.0000 
     36 CA        -24.5230    6.9315    1.6080 C.3       2 GLC5        0.0000 
     37 CA        -23.7650    7.5780    3.4370 C.3       4 GLP5        0.0000 
     38 CA        -26.8060   10.7340    0.0420 C.3       2 GLC5        0.0000 
     39 CA        -24.8490   10.8560   -0.0500 C.3       6 GLL5        0.0000 
     40 CA        -28.7630   10.6120    0.1340 C.3       4 GLP5        0.0000 
     41 CA        -21.6945   10.4357   -2.3015 C.3       2 GLC5        0.0000 
     42 CA        -23.9120   10.7280   -1.2680 C.3       6 GLL5        0.0000 
     43 CA        -20.1740    9.8490   -3.4950 C.3       4 GLP5        0.0000 
     44 CA        -20.9060   12.3488    0.1838 C.3       2 GLC5        0.0000 
     45 CA        -22.5180   11.3170   -0.9480 C.3       6 GLL5        0.0000 
     46 CA        -19.3150   12.6150    1.3530 C.3       4 GLP5        0.0000 
     47 CA        -27.1040    9.0100   -2.1310 C.3       2 GLC5        0.0000 
     48 CA        -25.0500    8.6540   -2.2570 C.3       6 GLL5        0.0000 
     49 CA        -21.8092    9.3607   -2.2927 C.3       2 GLC5        0.0000 
     50 CA        -23.7630    9.2550   -1.6810 C.3       6 GLL5        0.0000 
     51 CA        -23.4650   10.3356    1.1310 C.3       2 GLC5        0.0000 
@<TRIPOS>BOND
@<TRIPOS>SUBSTRUCTURE
     1 SEC2        6 GROUP        1 X    SEC  0     ROOT SEC X 2
     2 GLC5        1 GROUP        1 X    GLC  0     **** GLC X 6
     3 SEP2        8 GROUP        1 Y    SEP  0     ROOT SEP Y 9
     4 GLP5        3 GROUP        1 Y    GLP  0     **** GLP Y 13
     5 SEL2        7 GROUP        1 Z    SEL  0     ROOT SEL Z 16
     6 GLL5        2 GROUP        1 Z    GLL  0     **** GLL Z 20
@<TRIPOS>SET

