#    Name: 1afs_TES_1_ligand
#    Modification time : Mon Mar 24 18:20:22 2014

@<TRIPOS>MOLECULE
1afs_TES_1_ligand
   49    52     1     0     0
SMALL
NO_CHARGES


@<TRIPOS>ATOM
      1 C1        -22.5180   11.3170   -0.9480 C.3       1 TES325      0.0000 
      2 C2        -22.4760   12.8480   -1.0230 C.3       1 TES325      0.0000 
      3 C3        -22.9400   13.3450   -2.3430 C.2       1 TES325      0.0000 
      4 O3        -22.3660   14.2240   -2.9420 O.2       1 TES325      0.0000 
      5 C4        -24.1190   12.7040   -2.8790 C.2       1 TES325      0.0000 
      6 C5        -24.5710   11.5020   -2.4350 C.2       1 TES325      0.0000 
      7 C6        -25.7750   10.8850   -3.0880 C.3       1 TES325      0.0000 
      8 C7        -25.5600    9.4260   -3.4790 C.3       1 TES325      0.0000 
      9 C8        -25.0500    8.6540   -2.2570 C.3       1 TES325      0.0000 
     10 C9        -23.7630    9.2550   -1.6810 C.3       1 TES325      0.0000 
     11 C10       -23.9120   10.7280   -1.2680 C.3       1 TES325      0.0000 
     12 C11       -23.1260    8.4900   -0.5000 C.3       1 TES325      0.0000 
     13 C12       -22.9310    7.0130   -0.8740 C.3       1 TES325      0.0000 
     14 C13       -24.2400    6.3860   -1.3520 C.3       1 TES325      0.0000 
     15 C14       -24.7720    7.1850   -2.5490 C.3       1 TES325      0.0000 
     16 C15       -25.8940    6.3220   -3.1300 C.3       1 TES325      0.0000 
     17 C16       -25.3510    4.8910   -2.9630 C.3       1 TES325      0.0000 
     18 C17       -24.0650    5.0280   -2.1060 C.3       1 TES325      0.0000 
     19 O17       -23.7920    3.8940   -1.2710 O.3       1 TES325      0.0000 
     20 C18       -25.2810    6.2850   -0.2210 C.3       1 TES325      0.0000 
     21 C19       -24.8490   10.8560   -0.0500 C.3       1 TES325      0.0000 
     22 H         -22.2252   10.9975    0.0593 H         1 TES325      0.0000 
     23 H         -21.7909   10.9016   -1.6560 H         1 TES325      0.0000 
     24 H         -21.4464   13.1748   -0.8342 H         1 TES325      0.0000 
     25 H         -23.1075   13.2504   -0.2218 H         1 TES325      0.0000 
     26 H         -24.6208   13.2159   -3.6401 H         1 TES325      0.0000 
     27 H         -26.0388   11.4568   -3.9915 H         1 TES325      0.0000 
     28 H         -26.6365   10.9433   -2.4044 H         1 TES325      0.0000 
     29 H         -24.8262    9.3676   -4.2698 H         1 TES325      0.0000 
     30 H         -26.4960    8.9974   -3.8067 H         1 TES325      0.0000 
     31 H         -25.8080    8.6984   -1.4700 H         1 TES325      0.0000 
     32 H         -22.9921    9.2528   -2.4985 H         1 TES325      0.0000 
     33 H         -23.7794    8.5600    0.3603 H         1 TES325      0.0000 
     34 H         -22.1653    8.9325   -0.2690 H         1 TES325      0.0000 
     35 H         -22.5684    6.4705   -0.0016 H         1 TES325      0.0000 
     36 H         -22.1865    6.9424   -1.6663 H         1 TES325      0.0000 
     37 H         -23.9324    7.1319   -3.3098 H         1 TES325      0.0000 
     38 H         -26.0188    6.5356   -4.1561 H         1 TES325      0.0000 
     39 H         -26.7718    6.4367   -2.5551 H         1 TES325      0.0000 
     40 H         -25.0978    4.4890   -3.9146 H         1 TES325      0.0000 
     41 H         -26.0603    4.2959   -2.4394 H         1 TES325      0.0000 
     42 H         -23.2501    5.2064   -2.8347 H         1 TES325      0.0000 
     43 H         -24.9524    5.7215    0.5370 H         1 TES325      0.0000 
     44 H         -25.5065    7.1827    0.1574 H         1 TES325      0.0000 
     45 H         -26.1370    5.8777   -0.5394 H         1 TES325      0.0000 
     46 H         -24.4880   10.3743    0.7485 H         1 TES325      0.0000 
     47 H         -24.9811   11.8102    0.2183 H         1 TES325      0.0000 
     48 H         -25.7549   10.4759   -0.2368 H         1 TES325      0.0000 
     49 H         -23.2146    4.4714   -0.6936 H         1 TES325      0.0000 
@<TRIPOS>BOND
     1    2    1 1    
     2   11    1 1    
     3   22    1 1    
     4   23    1 1    
     5    3    2 1    
     6   24    2 1    
     7   25    2 1    
     8    4    3 2    
     9    5    3 1    
    10    6    5 2    
    11   26    5 1    
    12    7    6 1    
    13   11    6 1    
    14    8    7 1    
    15   27    7 1    
    16   28    7 1    
    17    9    8 1    
    18   29    8 1    
    19   30    8 1    
    20   10    9 1    
    21   15    9 1    
    22   31    9 1    
    23   11   10 1    
    24   12   10 1    
    25   32   10 1    
    26   21   11 1    
    27   13   12 1    
    28   33   12 1    
    29   34   12 1    
    30   14   13 1    
    31   35   13 1    
    32   36   13 1    
    33   15   14 1    
    34   18   14 1    
    35   20   14 1    
    36   16   15 1    
    37   37   15 1    
    38   17   16 1    
    39   38   16 1    
    40   39   16 1    
    41   18   17 1    
    42   40   17 1    
    43   41   17 1    
    44   19   18 1    
    45   42   18 1    
    46   49   19 1    
    47   43   20 1    
    48   44   20 1    
    49   45   20 1    
    50   46   21 1    
    51   47   21 1    
    52   48   21 1    
@<TRIPOS>SUBSTRUCTURE
     1 TES325      1 GROUP   
@<TRIPOS>SET

