#    Name: 2C6C_1_CAVITY_N1_6.mol2
#    Modification time : Tue Mar 11 06:24:30 2014

@<TRIPOS>MOLECULE
2C6C_1_CAVITY_N1_6.mol2
  113     0     7     0     0
SMALL
NO_CHARGES


@<TRIPOS>ATOM
      1 CZ         25.4266   43.3491   41.5768 C.ar      5 PHE5        0.0000 
      2 N          22.2124   44.5916   38.3172 N.2       2 ALA2        0.0000 
      3 CZ         25.1952   43.3156   45.2436 C.ar      5 PHE5        0.0000 
      4 CA         25.9158   43.9045   44.0672 C.3       6 GLY6        0.0000 
      5 CZ         22.4423   42.3556   46.9019 C.ar      5 PHE5        0.0000 
      6 CZ         23.1629   42.9445   45.7255 C.ar      5 PHE5        0.0000 
      7 CZ         23.8835   43.5334   44.5492 C.ar      5 PHE5        0.0000 
      8 CA         24.6042   44.1224   43.3728 C.3       6 GLY6        0.0000 
      9 CA         25.3248   44.7113   42.1964 C.3       6 GLY6        0.0000 
     10 NZ         21.1307   42.5734   46.2075 N.2       4 LYS4        0.0000 
     11 CZ         21.8513   43.1624   45.0311 C.ar      5 PHE5        0.0000 
     12 CZ         23.2925   44.3402   42.6784 C.ar      5 PHE5        0.0000 
     13 CZ         24.0132   44.9292   41.5020 C.ar      5 PHE5        0.0000 
     14 DU         24.7338   45.5181   40.3257 H         7 CUB7        0.0000 
     15 OG         22.7016   45.1470   40.8076 O.2       1 SER1        0.0000 
     16 CZ         23.4222   45.7360   39.6312 C.ar      5 PHE5        0.0000 
     17 CZ         22.8312   46.5428   37.7605 C.ar      5 PHE5        0.0000 
     18 OD1        17.9164   43.8159   42.9479 O.3       3 ASP3        0.0000 
     19 NZ         16.6048   44.0338   42.2535 N.2       4 LYS4        0.0000 
     20 NZ         15.2932   44.2516   41.5591 N.2       4 LYS4        0.0000 
     21 O          16.0138   44.8406   40.3827 O.2       2 ALA2        0.0000 
     22 CA         26.4050   44.4600   46.5576 C.3       6 GLY6        0.0000 
     23 CA         27.1256   45.0489   45.3813 C.3       6 GLY6        0.0000 
     24 OG         23.6521   43.4999   48.2160 O.2       1 SER1        0.0000 
     25 CZ         24.3727   44.0889   47.0396 C.ar      5 PHE5        0.0000 
     26 DU         25.0934   44.6778   45.8632 H         7 CUB7        0.0000 
     27 CA         25.8140   45.2668   44.6869 C.3       6 GLY6        0.0000 
     28 OG         22.3405   43.7178   47.5215 O.2       1 SER1        0.0000 
     29 DU         23.0611   44.3067   46.3452 H         7 CUB7        0.0000 
     30 DU         23.7817   44.8957   45.1688 H         7 CUB7        0.0000 
     31 DU         24.5024   45.4846   43.9924 H         7 CUB7        0.0000 
     32 CA         25.2230   46.0736   42.8161 C.3       6 GLY6        0.0000 
     33 CA         25.9436   46.6625   41.6397 C.3       6 GLY6        0.0000 
     34 OG         20.3082   43.3467   48.0035 O.2       1 SER1        0.0000 
     35 DU         21.0289   43.9356   46.8271 H         7 CUB7        0.0000 
     36 CZ         21.7495   44.5246   45.6508 C.ar      5 PHE5        0.0000 
     37 CZ         22.4701   45.1135   44.4744 C.ar      5 PHE5        0.0000 
     38 DU         23.1907   45.7025   43.2980 H         7 CUB7        0.0000 
     39 CZ         23.9114   46.2914   42.1217 C.ar      5 PHE5        0.0000 
     40 CZ         24.6320   46.8804   40.9453 C.ar      5 PHE5        0.0000 
     41 OD1        19.7173   44.1535   46.1327 O.3       3 ASP3        0.0000 
     42 OG         20.4379   44.7424   44.9564 O.2       1 SER1        0.0000 
     43 OG         21.1585   45.3314   43.7800 O.2       1 SER1        0.0000 
     44 OG         21.8791   45.9203   42.6036 O.2       1 SER1        0.0000 
     45 OD1        18.4056   44.3714   45.4383 O.3       3 ASP3        0.0000 
     46 OG         19.1263   44.9603   44.2620 O.2       1 SER1        0.0000 
     47 OG         19.8469   45.5492   43.0856 O.2       1 SER1        0.0000 
     48 N          17.8147   45.1782   43.5675 N.2       2 ALA2        0.0000 
     49 OG         18.5353   45.7671   42.3912 O.2       1 SER1        0.0000 
     50 NZ         15.7824   44.8071   44.0495 N.2       4 LYS4        0.0000 
     51 N          16.5030   45.3960   42.8731 N.2       2 ALA2        0.0000 
     52 OG         17.2237   45.9849   41.6968 O.2       1 SER1        0.0000 
     53 NZ         14.4708   45.0249   43.3551 N.2       4 LYS4        0.0000 
     54 DU         15.1914   45.6139   42.1787 H         7 CUB7        0.0000 
     55 CZ         15.9120   46.2028   41.0024 C.ar      5 PHE5        0.0000 
     56 O          13.8798   45.8317   41.4843 O.2       2 ALA2        0.0000 
     57 O          14.6004   46.4207   40.3080 O.2       2 ALA2        0.0000 
     58 CA         25.5826   45.2333   48.3536 C.3       6 GLY6        0.0000 
     59 O          26.3032   45.8222   47.1773 O.2       2 ALA2        0.0000 
     60 O          27.0238   46.4112   46.0009 O.2       2 ALA2        0.0000 
     61 O          23.5503   44.8622   48.8356 O.2       2 ALA2        0.0000 
     62 OD1        24.2709   45.4511   47.6592 O.3       3 ASP3        0.0000 
     63 O          24.9916   46.0401   46.4829 O.2       2 ALA2        0.0000 
     64 O          25.7122   46.6290   45.3065 O.2       2 ALA2        0.0000 
     65 CA         26.4328   47.2180   44.1301 C.3       6 GLY6        0.0000 
     66 O          21.5181   44.4911   49.3176 O.2       2 ALA2        0.0000 
     67 O          22.2387   45.0800   48.1412 O.2       2 ALA2        0.0000 
     68 O          22.9593   45.6690   46.9648 O.2       2 ALA2        0.0000 
     69 O          23.6799   46.2579   45.7885 O.2       2 ALA2        0.0000 
     70 O          24.4006   46.8469   44.6121 O.2       2 ALA2        0.0000 
     71 DU         25.1212   47.4358   43.4357 H         7 CUB7        0.0000 
     72 NZ         20.2065   44.7089   48.6232 N.2       4 LYS4        0.0000 
     73 O          20.9271   45.2979   47.4468 O.2       2 ALA2        0.0000 
     74 O          21.6477   45.8868   46.2704 O.2       2 ALA2        0.0000 
     75 DU         22.3683   46.4758   45.0940 H         7 CUB7        0.0000 
     76 DU         23.0890   47.0647   43.9177 H         7 CUB7        0.0000 
     77 CZ         23.8096   47.6537   42.7413 C.ar      5 PHE5        0.0000 
     78 CZ         24.5302   48.2426   41.5649 C.ar      5 PHE5        0.0000 
     79 O          19.6155   45.5157   46.7524 O.2       2 ALA2        0.0000 
     80 O          20.3361   46.1047   45.5760 O.2       2 ALA2        0.0000 
     81 CZ         21.0567   46.6936   44.3996 C.ar      5 PHE5        0.0000 
     82 CZ         21.7773   47.2826   43.2233 C.ar      5 PHE5        0.0000 
     83 N          19.0245   46.3225   44.8816 N.2       2 ALA2        0.0000 
     84 CZ         19.7451   46.9115   43.7052 C.ar      5 PHE5        0.0000 
     85 N          17.1219   47.3472   42.3164 N.2       2 ALA2        0.0000 
     86 N          15.0896   46.9761   42.7984 N.2       2 ALA2        0.0000 
     87 CA         15.8102   47.5650   41.6220 C.3       6 GLY6        0.0000 
     88 CZ         16.5309   48.1540   40.4456 C.ar      5 PHE5        0.0000 
     89 CA         13.7780   47.1939   42.1040 C.3       6 GLY6        0.0000 
     90 OD1        14.4986   47.7829   40.9276 O.3       3 ASP3        0.0000 
     91 CZ         15.2193   48.3718   39.7512 C.ar      5 PHE5        0.0000 
     92 OD1        13.1870   48.0007   40.2332 O.3       3 ASP3        0.0000 
     93 O          26.9220   47.7734   46.6205 O.2       2 ALA2        0.0000 
     94 O          26.3310   48.5802   44.7498 O.2       2 ALA2        0.0000 
     95 O          24.2988   48.2091   45.2317 O.2       2 ALA2        0.0000 
     96 DU         25.0194   48.7980   44.0554 H         7 CUB7        0.0000 
     97 O          20.8253   46.6601   48.0664 O.2       2 ALA2        0.0000 
     98 O          21.5459   47.2491   46.8901 O.2       2 ALA2        0.0000 
     99 O          22.2665   47.8380   45.7137 O.2       2 ALA2        0.0000 
    100 DU         22.9872   48.4269   44.5373 H         7 CUB7        0.0000 
    101 CZ         23.7078   49.0159   43.3609 C.ar      5 PHE5        0.0000 
    102 O          20.2343   47.4669   46.1956 O.2       2 ALA2        0.0000 
    103 CZ         20.9549   48.0559   45.0193 C.ar      5 PHE5        0.0000 
    104 CZ         21.6755   48.6448   43.8429 C.ar      5 PHE5        0.0000 
    105 CZ         19.6433   48.2737   44.3249 C.ar      5 PHE5        0.0000 
    106 O          24.1970   49.5713   45.8514 O.2       2 ALA2        0.0000 
    107 O          21.4441   48.6113   47.5097 O.2       2 ALA2        0.0000 
    108 O          22.1647   49.2002   46.3333 O.2       2 ALA2        0.0000 
    109 DU         22.8854   49.7892   45.1570 H         7 CUB7        0.0000 
    110 O          20.1325   48.8291   46.8153 O.2       2 ALA2        0.0000 
    111 O          20.8531   49.4181   45.6389 O.2       2 ALA2        0.0000 
    112 CZ         21.5737   50.0070   44.4626 C.ar      5 PHE5        0.0000 
    113 O          20.7513   50.7803   46.2586 O.2       2 ALA2        0.0000 
@<TRIPOS>BOND
@<TRIPOS>SUBSTRUCTURE
     1 SER1       15 GROUP   
     2 ALA2        2 GROUP   
     3 ASP3       18 GROUP   
     4 LYS4       10 GROUP   
     5 PHE5        1 GROUP   
     6 GLY6        4 GROUP   
     7 CUB7       14 GROUP   
@<TRIPOS>SET

