#    Name: 2C6C_1_CAVITY_N1_ALL.mol2
#    Modification time : Tue Mar 11 06:24:30 2014

@<TRIPOS>MOLECULE
2C6C_1_CAVITY_N1_ALL.mol2
  181     0     7     0     0
SMALL
NO_CHARGES


@<TRIPOS>ATOM
      1 CZ         25.4266   43.3491   41.5768 C.ar      5 PHE5        0.0000 
      2 OG         24.8356   44.1559   39.7060 O.2       1 SER1        0.0000 
      3 CZ         23.5240   44.3738   39.0116 C.ar      5 PHE5        0.0000 
      4 OG         24.2446   44.9627   37.8352 O.2       1 SER1        0.0000 
      5 N          22.2124   44.5916   38.3172 N.2       2 ALA2        0.0000 
      6 N          22.9330   45.1806   37.1408 N.2       2 ALA2        0.0000 
      7 CZ         25.1952   43.3156   45.2436 C.ar      5 PHE5        0.0000 
      8 CA         25.9158   43.9045   44.0672 C.3       6 GLY6        0.0000 
      9 CZ         22.4423   42.3556   46.9019 C.ar      5 PHE5        0.0000 
     10 CZ         23.1629   42.9445   45.7255 C.ar      5 PHE5        0.0000 
     11 CZ         23.8835   43.5334   44.5492 C.ar      5 PHE5        0.0000 
     12 CA         24.6042   44.1224   43.3728 C.3       6 GLY6        0.0000 
     13 CA         25.3248   44.7113   42.1964 C.3       6 GLY6        0.0000 
     14 O          26.0454   45.3003   41.0201 O.2       2 ALA2        0.0000 
     15 OD1        26.7660   45.8892   39.8437 O.3       3 ASP3        0.0000 
     16 NZ         21.1307   42.5734   46.2075 N.2       4 LYS4        0.0000 
     17 CZ         21.8513   43.1624   45.0311 C.ar      5 PHE5        0.0000 
     18 CZ         23.2925   44.3402   42.6784 C.ar      5 PHE5        0.0000 
     19 CZ         24.0132   44.9292   41.5020 C.ar      5 PHE5        0.0000 
     20 DU         24.7338   45.5181   40.3257 H         7 CUB7        0.0000 
     21 OG         25.4544   46.1071   39.1493 O.2       1 SER1        0.0000 
     22 CA         26.1750   46.6960   37.9729 C.3       6 GLY6        0.0000 
     23 OG         22.7016   45.1470   40.8076 O.2       1 SER1        0.0000 
     24 CZ         23.4222   45.7360   39.6312 C.ar      5 PHE5        0.0000 
     25 CZ         24.1428   46.3249   38.4549 C.ar      5 PHE5        0.0000 
     26 N          24.8634   46.9139   37.2785 N.2       2 ALA2        0.0000 
     27 CZ         22.8312   46.5428   37.7605 C.ar      5 PHE5        0.0000 
     28 OD1        17.9164   43.8159   42.9479 O.3       3 ASP3        0.0000 
     29 NZ         16.6048   44.0338   42.2535 N.2       4 LYS4        0.0000 
     30 NZ         15.2932   44.2516   41.5591 N.2       4 LYS4        0.0000 
     31 O          16.0138   44.8406   40.3827 O.2       2 ALA2        0.0000 
     32 CA         26.4050   44.4600   46.5576 C.3       6 GLY6        0.0000 
     33 CA         27.1256   45.0489   45.3813 C.3       6 GLY6        0.0000 
     34 OG         23.6521   43.4999   48.2160 O.2       1 SER1        0.0000 
     35 CZ         24.3727   44.0889   47.0396 C.ar      5 PHE5        0.0000 
     36 DU         25.0934   44.6778   45.8632 H         7 CUB7        0.0000 
     37 CA         25.8140   45.2668   44.6869 C.3       6 GLY6        0.0000 
     38 OG         22.3405   43.7178   47.5215 O.2       1 SER1        0.0000 
     39 DU         23.0611   44.3067   46.3452 H         7 CUB7        0.0000 
     40 DU         23.7817   44.8957   45.1688 H         7 CUB7        0.0000 
     41 DU         24.5024   45.4846   43.9924 H         7 CUB7        0.0000 
     42 CA         25.2230   46.0736   42.8161 C.3       6 GLY6        0.0000 
     43 CA         25.9436   46.6625   41.6397 C.3       6 GLY6        0.0000 
     44 N          26.6642   47.2515   40.4633 N.2       2 ALA2        0.0000 
     45 O          27.3849   47.8404   39.2870 O.2       2 ALA2        0.0000 
     46 OG         20.3082   43.3467   48.0035 O.2       1 SER1        0.0000 
     47 DU         21.0289   43.9356   46.8271 H         7 CUB7        0.0000 
     48 CZ         21.7495   44.5246   45.6508 C.ar      5 PHE5        0.0000 
     49 CZ         22.4701   45.1135   44.4744 C.ar      5 PHE5        0.0000 
     50 DU         23.1907   45.7025   43.2980 H         7 CUB7        0.0000 
     51 CZ         23.9114   46.2914   42.1217 C.ar      5 PHE5        0.0000 
     52 CZ         24.6320   46.8804   40.9453 C.ar      5 PHE5        0.0000 
     53 CZ         25.3526   47.4693   39.7689 C.ar      5 PHE5        0.0000 
     54 O          26.0732   48.0583   38.5926 O.2       2 ALA2        0.0000 
     55 OD1        19.7173   44.1535   46.1327 O.3       3 ASP3        0.0000 
     56 OG         20.4379   44.7424   44.9564 O.2       1 SER1        0.0000 
     57 OG         21.1585   45.3314   43.7800 O.2       1 SER1        0.0000 
     58 OG         21.8791   45.9203   42.6036 O.2       1 SER1        0.0000 
     59 CZ         24.0410   47.6872   39.0745 C.ar      5 PHE5        0.0000 
     60 N          24.7616   48.2761   37.8982 N.2       2 ALA2        0.0000 
     61 OD1        18.4056   44.3714   45.4383 O.3       3 ASP3        0.0000 
     62 OG         19.1263   44.9603   44.2620 O.2       1 SER1        0.0000 
     63 OG         19.8469   45.5492   43.0856 O.2       1 SER1        0.0000 
     64 N          17.8147   45.1782   43.5675 N.2       2 ALA2        0.0000 
     65 OG         18.5353   45.7671   42.3912 O.2       1 SER1        0.0000 
     66 NZ         15.7824   44.8071   44.0495 N.2       4 LYS4        0.0000 
     67 N          16.5030   45.3960   42.8731 N.2       2 ALA2        0.0000 
     68 OG         17.2237   45.9849   41.6968 O.2       1 SER1        0.0000 
     69 NZ         14.4708   45.0249   43.3551 N.2       4 LYS4        0.0000 
     70 DU         15.1914   45.6139   42.1787 H         7 CUB7        0.0000 
     71 CZ         15.9120   46.2028   41.0024 C.ar      5 PHE5        0.0000 
     72 O          13.8798   45.8317   41.4843 O.2       2 ALA2        0.0000 
     73 O          14.6004   46.4207   40.3080 O.2       2 ALA2        0.0000 
     74 CA         28.3354   46.1933   46.6953 C.3       6 GLY6        0.0000 
     75 CA         29.0560   46.7822   45.5189 C.3       6 GLY6        0.0000 
     76 CA         25.5826   45.2333   48.3536 C.3       6 GLY6        0.0000 
     77 O          26.3032   45.8222   47.1773 O.2       2 ALA2        0.0000 
     78 O          27.0238   46.4112   46.0009 O.2       2 ALA2        0.0000 
     79 CA         27.7444   47.0001   44.8245 C.3       6 GLY6        0.0000 
     80 O          23.5503   44.8622   48.8356 O.2       2 ALA2        0.0000 
     81 OD1        24.2709   45.4511   47.6592 O.3       3 ASP3        0.0000 
     82 O          24.9916   46.0401   46.4829 O.2       2 ALA2        0.0000 
     83 O          25.7122   46.6290   45.3065 O.2       2 ALA2        0.0000 
     84 CA         26.4328   47.2180   44.1301 C.3       6 GLY6        0.0000 
     85 N          27.1534   47.8069   42.9538 N.2       2 ALA2        0.0000 
     86 N          27.8741   48.3958   41.7774 N.2       2 ALA2        0.0000 
     87 N          28.5947   48.9848   40.6010 N.2       2 ALA2        0.0000 
     88 O          21.5181   44.4911   49.3176 O.2       2 ALA2        0.0000 
     89 O          22.2387   45.0800   48.1412 O.2       2 ALA2        0.0000 
     90 O          22.9593   45.6690   46.9648 O.2       2 ALA2        0.0000 
     91 O          23.6799   46.2579   45.7885 O.2       2 ALA2        0.0000 
     92 O          24.4006   46.8469   44.6121 O.2       2 ALA2        0.0000 
     93 DU         25.1212   47.4358   43.4357 H         7 CUB7        0.0000 
     94 DU         25.8418   48.0248   42.2593 H         7 CUB7        0.0000 
     95 N          26.5624   48.6137   41.0830 N.2       2 ALA2        0.0000 
     96 O          27.2831   49.2026   39.9066 O.2       2 ALA2        0.0000 
     97 NZ         20.2065   44.7089   48.6232 N.2       4 LYS4        0.0000 
     98 O          20.9271   45.2979   47.4468 O.2       2 ALA2        0.0000 
     99 O          21.6477   45.8868   46.2704 O.2       2 ALA2        0.0000 
    100 DU         22.3683   46.4758   45.0940 H         7 CUB7        0.0000 
    101 DU         23.0890   47.0647   43.9177 H         7 CUB7        0.0000 
    102 CZ         23.8096   47.6537   42.7413 C.ar      5 PHE5        0.0000 
    103 CZ         24.5302   48.2426   41.5649 C.ar      5 PHE5        0.0000 
    104 CZ         25.2508   48.8316   40.3886 C.ar      5 PHE5        0.0000 
    105 N          25.9715   49.4205   39.2122 N.2       2 ALA2        0.0000 
    106 O          19.6155   45.5157   46.7524 O.2       2 ALA2        0.0000 
    107 O          20.3361   46.1047   45.5760 O.2       2 ALA2        0.0000 
    108 CZ         21.0567   46.6936   44.3996 C.ar      5 PHE5        0.0000 
    109 CZ         21.7773   47.2826   43.2233 C.ar      5 PHE5        0.0000 
    110 N          19.0245   46.3225   44.8816 N.2       2 ALA2        0.0000 
    111 CZ         19.7451   46.9115   43.7052 C.ar      5 PHE5        0.0000 
    112 N          17.1219   47.3472   42.3164 N.2       2 ALA2        0.0000 
    113 N          15.0896   46.9761   42.7984 N.2       2 ALA2        0.0000 
    114 CA         15.8102   47.5650   41.6220 C.3       6 GLY6        0.0000 
    115 CZ         16.5309   48.1540   40.4456 C.ar      5 PHE5        0.0000 
    116 CA         13.7780   47.1939   42.1040 C.3       6 GLY6        0.0000 
    117 OD1        14.4986   47.7829   40.9276 O.3       3 ASP3        0.0000 
    118 CZ         15.2193   48.3718   39.7512 C.ar      5 PHE5        0.0000 
    119 OD1        13.1870   48.0007   40.2332 O.3       3 ASP3        0.0000 
    120 OG         28.2336   47.5555   47.3149 O.2       1 SER1        0.0000 
    121 CA         28.9543   48.1445   46.1386 C.3       6 GLY6        0.0000 
    122 CA         29.6749   48.7334   44.9622 C.3       6 GLY6        0.0000 
    123 O          26.9220   47.7734   46.6205 O.2       2 ALA2        0.0000 
    124 O          27.6426   48.3623   45.4442 O.2       2 ALA2        0.0000 
    125 N          28.3633   48.9513   44.2678 N.2       2 ALA2        0.0000 
    126 O          26.3310   48.5802   44.7498 O.2       2 ALA2        0.0000 
    127 DU         27.0516   49.1691   43.5734 H         7 CUB7        0.0000 
    128 N          27.7723   49.7581   42.3970 N.2       2 ALA2        0.0000 
    129 O          24.2988   48.2091   45.2317 O.2       2 ALA2        0.0000 
    130 DU         25.0194   48.7980   44.0554 H         7 CUB7        0.0000 
    131 DU         25.7400   49.3870   42.8790 H         7 CUB7        0.0000 
    132 DU         26.4607   49.9759   41.7026 H         7 CUB7        0.0000 
    133 N          27.1813   50.5649   40.5263 N.2       2 ALA2        0.0000 
    134 O          20.8253   46.6601   48.0664 O.2       2 ALA2        0.0000 
    135 O          21.5459   47.2491   46.8901 O.2       2 ALA2        0.0000 
    136 O          22.2665   47.8380   45.7137 O.2       2 ALA2        0.0000 
    137 DU         22.9872   48.4269   44.5373 H         7 CUB7        0.0000 
    138 CZ         23.7078   49.0159   43.3609 C.ar      5 PHE5        0.0000 
    139 CZ         24.4284   49.6048   42.1846 C.ar      5 PHE5        0.0000 
    140 CZ         25.1490   50.1938   41.0082 C.ar      5 PHE5        0.0000 
    141 O          20.2343   47.4669   46.1956 O.2       2 ALA2        0.0000 
    142 CZ         20.9549   48.0559   45.0193 C.ar      5 PHE5        0.0000 
    143 CZ         21.6755   48.6448   43.8429 C.ar      5 PHE5        0.0000 
    144 CZ         19.6433   48.2737   44.3249 C.ar      5 PHE5        0.0000 
    145 O          28.8525   49.5067   46.7582 O.2       2 ALA2        0.0000 
    146 DU         29.5731   50.0957   45.5819 H         7 CUB7        0.0000 
    147 O          27.5408   49.7246   46.0638 O.2       2 ALA2        0.0000 
    148 O          26.2292   49.9424   45.3694 O.2       2 ALA2        0.0000 
    149 O          24.1970   49.5713   45.8514 O.2       2 ALA2        0.0000 
    150 O          24.9176   50.1603   44.6750 O.2       2 ALA2        0.0000 
    151 DU         25.6382   50.7492   43.4986 H         7 CUB7        0.0000 
    152 O          21.4441   48.6113   47.5097 O.2       2 ALA2        0.0000 
    153 O          22.1647   49.2002   46.3333 O.2       2 ALA2        0.0000 
    154 DU         22.8854   49.7892   45.1570 H         7 CUB7        0.0000 
    155 CA         23.6060   50.3781   43.9806 C.3       6 GLY6        0.0000 
    156 CA         24.3266   50.9671   42.8042 C.3       6 GLY6        0.0000 
    157 CA         25.0472   51.5560   41.6279 C.3       6 GLY6        0.0000 
    158 O          20.1325   48.8291   46.8153 O.2       2 ALA2        0.0000 
    159 O          20.8531   49.4181   45.6389 O.2       2 ALA2        0.0000 
    160 CZ         21.5737   50.0070   44.4626 C.ar      5 PHE5        0.0000 
    161 O          24.0952   50.9336   46.4710 O.2       2 ALA2        0.0000 
    162 O          24.8158   51.5225   45.2946 O.2       2 ALA2        0.0000 
    163 DU         25.5364   52.1115   44.1183 H         7 CUB7        0.0000 
    164 O          22.0629   50.5625   46.9530 O.2       2 ALA2        0.0000 
    165 N          22.7836   51.1514   45.7766 N.2       2 ALA2        0.0000 
    166 N          23.5042   51.7404   44.6002 N.2       2 ALA2        0.0000 
    167 CA         24.2248   52.3293   43.4239 C.3       6 GLY6        0.0000 
    168 O          20.7513   50.7803   46.2586 O.2       2 ALA2        0.0000 
    169 N          21.4720   51.3693   45.0822 N.2       2 ALA2        0.0000 
    170 O          25.4346   53.4737   44.7379 O.2       2 ALA2        0.0000 
    171 O          22.6818   52.5137   46.3962 O.2       2 ALA2        0.0000 
    172 N          23.4024   53.1026   45.2199 N.2       2 ALA2        0.0000 
    173 N          24.1230   53.6915   44.0435 N.2       2 ALA2        0.0000 
    174 O          20.6495   52.1426   46.8782 O.2       2 ALA2        0.0000 
    175 O          25.3328   54.8359   45.3576 O.2       2 ALA2        0.0000 
    176 NZ         22.5800   53.8759   47.0159 N.2       4 LYS4        0.0000 
    177 N          23.3006   54.4648   45.8395 N.2       2 ALA2        0.0000 
    178 N          24.0212   55.0538   44.6631 N.2       2 ALA2        0.0000 
    179 CA         24.7419   55.6427   43.4868 C.3       6 GLY6        0.0000 
    180 O          24.5104   55.6092   47.1536 O.2       2 ALA2        0.0000 
    181 O          23.9194   56.4160   45.2828 O.2       2 ALA2        0.0000 
@<TRIPOS>BOND
@<TRIPOS>SUBSTRUCTURE
     1 SER1        2 GROUP   
     2 ALA2        5 GROUP   
     3 ASP3       15 GROUP   
     4 LYS4       16 GROUP   
     5 PHE5        1 GROUP   
     6 GLY6        8 GROUP   
     7 CUB7       20 GROUP   
@<TRIPOS>SET

