#    Name: 2c6c_24I_1_INTS_M
#    Modification time : Mon Mar 24 22:42:06 2014

@<TRIPOS>MOLECULE
2c6c_24I_1_INTS_M
   43     0    12     0     0
SMALL
NO_CHARGES


@<TRIPOS>ATOM
      1 NZ         13.3415   49.9060   40.5345 N.4       2 LYC4        0.0000 
      2 NZ         14.0420   48.9140   41.2050 N.4      10 LYL4        0.0000 
      3 NZ         12.6410   50.8980   39.8640 N.4       6 LYP4        0.0000 
      4 N          13.3415   49.9060   40.5345 N.am      1 SEC2        0.0000 
      5 N          14.0420   48.9140   41.2050 N.am      9 SEL2        0.0000 
      6 N          12.6410   50.8980   39.8640 N.am      5 SEP2        0.0000 
      7 NZ         12.8595   49.0530   40.0490 N.4       2 LYC4        0.0000 
      8 NZ         13.0780   47.2080   40.2340 N.4      10 LYL4        0.0000 
      9 N          13.0570   45.9560   39.4495 N.am      1 SEC2        0.0000 
     10 N          13.0780   47.2080   40.2340 N.am      9 SEL2        0.0000 
     11 N          13.0360   44.7040   38.6650 N.am      5 SEP2        0.0000 
     12 CA         16.0400   47.2835   39.7270 C.3       4 GLC5        0.0000 
     13 CA         15.2400   46.9010   41.5370 C.3      12 GLL5        0.0000 
     14 CA         16.8400   47.6660   37.9170 C.3       8 GLP5        0.0000 
     15 CA         13.7965   47.4145   43.0895 C.3       4 GLC5        0.0000 
     16 CA         12.3530   47.9280   44.6420 C.3       8 GLP5        0.0000 
     17 CA         15.8425   48.4250   42.5820 C.3       4 GLC5        0.0000 
     18 CA         16.4450   49.9490   43.6270 C.3       8 GLP5        0.0000 
     19 NZ         17.4890   44.0205   38.8885 N.4       2 LYC4        0.0000 
     20 NZ         17.2860   43.9800   40.2220 N.4      10 LYL4        0.0000 
     21 NZ         18.8300   43.4350   37.3700 N.4       6 LYP4        0.0000 
     22 N          17.4890   44.0205   38.8885 N.am      1 SEC2        0.0000 
     23 N          17.2860   43.9800   40.2220 N.am      9 SEL2        0.0000 
     24 N          17.6920   44.0610   37.5550 N.am      5 SEP2        0.0000 
     25 N          18.4215   43.5165   39.3120 N.am      1 SEC2        0.0000 
     26 N          19.5570   43.0530   38.4020 N.am      5 SEP2        0.0000 
     27 N          16.2475   43.0960   39.8625 N.am      1 SEC2        0.0000 
     28 N          15.2090   42.2120   39.5030 N.am      5 SEP2        0.0000 
     29 Zn         17.0265   43.0480   46.5480 Zn        3 ZIC7        0.0000 
     30 Zn         17.0020   43.6120   45.7800 Zn       11 ZIL7        0.0000 
     31 Zn         17.0510   42.4840   47.3160 Zn        7 ZIP7        0.0000 
     32 N          15.5015   43.4560   45.5620 N.am      1 SEC2        0.0000 
     33 N          17.0020   43.6120   45.7800 N.am      9 SEL2        0.0000 
     34 N          14.0010   43.3000   45.3440 N.am      5 SEP2        0.0000 
     35 Zn         18.0595   42.1465   43.6880 Zn        3 ZIC7        0.0000 
     36 Zn         18.3300   43.0560   43.5460 Zn       11 ZIL7        0.0000 
     37 Zn         17.7890   41.2370   43.8300 Zn        7 ZIP7        0.0000 
     38 N          19.3060   43.2460   42.5575 N.am      1 SEC2        0.0000 
     39 N          18.3300   43.0560   43.5460 N.am      9 SEL2        0.0000 
     40 N          20.2820   43.4360   41.5690 N.am      5 SEP2        0.0000 
     41 CA         21.4625   42.9955   49.4515 C.3       4 GLC5        0.0000 
     42 CA         21.1360   44.3460   47.8040 C.3      12 GLL5        0.0000 
     43 CA         21.7890   41.6450   51.0990 C.3       8 GLP5        0.0000 
@<TRIPOS>BOND
@<TRIPOS>SUBSTRUCTURE
     1 SEC2        4 GROUP        1 X    SEC  0     ROOT SEC X 2
     2 LYC4        1 GROUP        1 X    LYC  0     **** LYC X 4
     3 ZIC7       29 GROUP        1 X    ZIC  0     **** ZIC X 5
     4 GLC5       12 GROUP        1 X    GLC  0     **** GLC X 6
     5 SEP2        6 GROUP        1 Y    SEP  0     ROOT SEP Y 9
     6 LYP4        3 GROUP        1 Y    LYP  0     **** LYP Y 11
     7 ZIP7       31 GROUP        1 Y    ZIP  0     **** ZIP Y 12
     8 GLP5       14 GROUP        1 Y    GLP  0     **** GLP Y 13
     9 SEL2        5 GROUP        1 Z    SEL  0     ROOT SEL Z 16
    10 LYL4        2 GROUP        1 Z    LYL  0     **** LYL Z 18
    11 ZIL7       30 GROUP        1 Z    ZIL  0     **** ZIL Z 19
    12 GLL5       13 GROUP        1 Z    GLL  0     **** GLL Z 20
@<TRIPOS>SET

