#    Name: 2c6c_24I_1_ligand
#    Modification time : Mon Mar 24 22:42:06 2014

@<TRIPOS>MOLECULE
2c6c_24I_1_ligand
   34    34     1     0     0
SMALL
NO_CHARGES


@<TRIPOS>ATOM
      1 O5         14.0420   48.9140   41.2050 O.co2     1 24I1767     0.0000 
      2 C14        14.0850   47.7170   40.9600 C.2       1 24I1767     0.0000 
      3 O6         13.0780   47.2080   40.2340 O.co2     1 24I1767     0.0000 
      4 C13        15.2400   46.9010   41.5370 C.3       1 24I1767     0.0000 
      5 C12        14.9530   45.4160   41.6760 C.3       1 24I1767     0.0000 
      6 C10        16.1400   44.6590   42.2360 C.3       1 24I1767     0.0000 
      7 C9         17.2850   44.8080   41.2410 C.2       1 24I1767     0.0000 
      8 O4         17.2860   43.9800   40.2220 O.co2     1 24I1767     0.0000 
      9 O3         18.1420   45.6770   41.3440 O.co2     1 24I1767     0.0000 
     10 C7         16.4890   45.1770   43.6500 C.3       1 24I1767     0.0000 
     11 P1         17.7180   44.2040   44.5120 P.3       1 24I1767     0.0000 
     12 O1         17.0020   43.6120   45.7800 O.co2     1 24I1767     0.0000 
     13 O2         18.3300   43.0560   43.5460 O.co2     1 24I1767     0.0000 
     14 C6         18.9990   45.4030   44.9180 C.3       1 24I1767     0.0000 
     15 C8         20.1740   44.9130   45.6410 C.ar      1 24I1767     0.0000 
     16 C5         21.3520   44.5990   44.9640 C.ar      1 24I1767     0.0000 
     17 C3         22.4320   44.1360   45.7290 C.ar      1 24I1767     0.0000 
     18 C4         20.0810   44.8150   47.0150 C.ar      1 24I1767     0.0000 
     19 C2         21.1360   44.3460   47.8040 C.ar      1 24I1767     0.0000 
     20 C1         22.3290   44.0220   47.1370 C.ar      1 24I1767     0.0000 
     21 H          15.5042   47.3120   42.5288 H         1 24I1767     0.0000 
     22 H          16.1281   47.0383   40.8929 H         1 24I1767     0.0000 
     23 H          14.6931   45.0064   40.6931 H         1 24I1767     0.0000 
     24 H          14.0900   45.2769   42.3372 H         1 24I1767     0.0000 
     25 H          15.8724   43.6139   42.3028 H         1 24I1767     0.0000 
     26 H          15.6432   45.1528   44.3205 H         1 24I1767     0.0000 
     27 H          16.9258   46.1641   43.6335 H         1 24I1767     0.0000 
     28 H          18.4165   46.1660   45.4638 H         1 24I1767     0.0000 
     29 H          19.2229   45.8262   43.9229 H         1 24I1767     0.0000 
     30 H          21.4277   44.6996   43.9644 H         1 24I1767     0.0000 
     31 H          23.3128   43.8743   45.2677 H         1 24I1767     0.0000 
     32 H          19.1943   45.0994   47.4891 H         1 24I1767     0.0000 
     33 H          21.0482   44.2449   48.7969 H         1 24I1767     0.0000 
     34 H          23.1433   43.6964   47.6750 H         1 24I1767     0.0000 
@<TRIPOS>BOND
     1    2    1 ar   
     2    3    2 ar   
     3    4    2 1    
     4    5    4 1    
     5   21    4 1    
     6   22    4 1    
     7    6    5 1    
     8   23    5 1    
     9   24    5 1    
    10    7    6 1    
    11   10    6 1    
    12   25    6 1    
    13    8    7 ar   
    14    9    7 ar   
    15   11   10 1    
    16   26   10 1    
    17   27   10 1    
    18   12   11 ar   
    19   13   11 ar   
    20   14   11 1    
    21   15   14 1    
    22   28   14 1    
    23   29   14 1    
    24   16   15 ar   
    25   18   15 ar   
    26   17   16 ar   
    27   30   16 1    
    28   20   17 ar   
    29   31   17 1    
    30   19   18 ar   
    31   32   18 1    
    32   20   19 ar   
    33   33   19 1    
    34   34   20 1    
@<TRIPOS>SUBSTRUCTURE
     1 24I1767     1 GROUP   
@<TRIPOS>SET

