#    Name: 3DCW_1_CAVITY_N1_6.mol2
#    Modification time : Tue Mar 11 15:57:24 2014

@<TRIPOS>MOLECULE
3DCW_1_CAVITY_N1_6.mol2
   82     0     6     0     0
SMALL
NO_CHARGES


@<TRIPOS>ATOM
      1 CA         -1.2776    9.5692   15.5947 C.3       5 GLY6        0.0000 
      2 CA         -2.3258   10.5382   15.1337 C.3       5 GLY6        0.0000 
      3 CA         -2.3256    8.5065   15.7439 C.3       5 GLY6        0.0000 
      4 CZ         -3.3738    9.4754   15.2829 C.ar      4 PHE5        0.0000 
      5 CA         -1.0472    7.1112   14.7853 C.3       5 GLY6        0.0000 
      6 DU         -2.0953    8.0801   14.3243 H         6 CUB7        0.0000 
      7 CA         -0.8169    6.6849   13.3657 C.3       5 GLY6        0.0000 
      8 DU         -1.8651    7.6538   12.9047 H         6 CUB7        0.0000 
      9 N           0.4615    5.2896   12.4071 N.2       2 ALA2        0.0000 
     10 N          -0.5867    6.2585   11.9461 N.2       2 ALA2        0.0000 
     11 N           0.6918    4.8633   10.9876 N.2       2 ALA2        0.0000 
     12 DU         -0.3564    5.8322   10.5265 H         6 CUB7        0.0000 
     13 N           0.9220    4.4369    9.5680 N.2       2 ALA2        0.0000 
     14 CA         -3.3736    7.4438   15.8931 C.3       5 GLY6        0.0000 
     15 CA         -2.0952    6.0485   14.9345 C.3       5 GLY6        0.0000 
     16 CZ         -3.1433    7.0174   14.4735 C.ar      4 PHE5        0.0000 
     17 N          -1.8649    5.6221   13.5149 N.2       2 ALA2        0.0000 
     18 DU         -2.9131    6.5911   13.0539 H         6 CUB7        0.0000 
     19 CZ         -3.9613    7.5600   12.5929 C.ar      4 PHE5        0.0000 
     20 CZ         -5.0094    8.5289   12.1319 C.ar      4 PHE5        0.0000 
     21 N          -0.5865    4.2269   12.5563 N.2       2 ALA2        0.0000 
     22 DU         -1.6347    5.1958   12.0953 H         6 CUB7        0.0000 
     23 DU         -3.7310    7.1336   11.1733 H         6 CUB7        0.0000 
     24 N          -0.3562    3.8005   11.1367 N.2       2 ALA2        0.0000 
     25 N          -1.4044    4.7694   10.6757 N.2       2 ALA2        0.0000 
     26 DU         -2.4526    5.7384   10.2147 H         6 CUB7        0.0000 
     27 N          -1.1742    4.3431    9.2562 N.2       2 ALA2        0.0000 
     28 CA         -4.4216    6.3810   16.0423 C.3       5 GLY6        0.0000 
     29 CA         -3.1432    4.9857   15.0837 C.3       5 GLY6        0.0000 
     30 CZ         -4.1914    5.9547   14.6227 C.ar      4 PHE5        0.0000 
     31 CZ         -5.2395    6.9236   14.1617 C.ar      4 PHE5        0.0000 
     32 OG         -2.9129    4.5594   13.6641 O.2       1 SER1        0.0000 
     33 DU         -3.9611    5.5283   13.2031 H         6 CUB7        0.0000 
     34 CZ         -5.0093    6.4972   12.7421 C.ar      4 PHE5        0.0000 
     35 CZ         -6.0574    7.4662   12.2811 C.ar      4 PHE5        0.0000 
     36 OG         -1.6345    3.1641   12.7055 O.2       1 SER1        0.0000 
     37 OG         -2.6827    4.1331   12.2445 O.2       1 SER1        0.0000 
     38 DU         -3.7309    5.1020   11.7835 H         6 CUB7        0.0000 
     39 O          -4.7790    6.0709   11.3225 O.2       2 ALA2        0.0000 
     40 O          -5.8272    7.0398   10.8615 O.2       2 ALA2        0.0000 
     41 N          -1.4043    2.7378   11.2859 N.2       2 ALA2        0.0000 
     42 N          -2.4524    3.7067   10.8249 N.2       2 ALA2        0.0000 
     43 N          -3.5006    4.6756   10.3639 N.2       2 ALA2        0.0000 
     44 N          -4.5488    5.6445    9.9029 N.2       2 ALA2        0.0000 
     45 O          -5.5969    6.6135    9.4419 O.2       2 ALA2        0.0000 
     46 N          -3.2704    4.2493    8.9443 N.2       2 ALA2        0.0000 
     47 CA         -5.4696    5.3183   16.1915 C.3       5 GLY6        0.0000 
     48 CZ         -6.5178    6.2872   15.7304 C.ar      4 PHE5        0.0000 
     49 OG         -3.1430    2.9541   15.6939 O.2       1 SER1        0.0000 
     50 CA         -4.1912    3.9230   15.2329 C.3       5 GLY6        0.0000 
     51 CA         -5.2394    4.8919   14.7719 C.3       5 GLY6        0.0000 
     52 CZ         -6.2875    5.8608   14.3109 C.ar      4 PHE5        0.0000 
     53 CZ         -7.3357    6.8298   13.8499 C.ar      4 PHE5        0.0000 
     54 OG         -3.9609    3.4967   13.8133 O.2       1 SER1        0.0000 
     55 O          -5.0091    4.4656   13.3523 O.2       2 ALA2        0.0000 
     56 OG         -3.7307    3.0703   12.3937 O.2       1 SER1        0.0000 
     57 O          -4.7789    4.0392   11.9327 O.2       2 ALA2        0.0000 
     58 N          -3.5004    2.6440   10.9741 N.2       2 ALA2        0.0000 
     59 N          -4.5486    3.6129   10.5131 N.2       2 ALA2        0.0000 
     60 CA         -4.4213    2.3177   17.2627 C.3       5 GLY6        0.0000 
     61 CA         -5.4694    3.2866   16.8017 C.3       5 GLY6        0.0000 
     62 CA         -6.5176    4.2555   16.3406 C.3       5 GLY6        0.0000 
     63 OG         -4.1910    1.8913   15.8431 O.2       1 SER1        0.0000 
     64 DU         -5.2392    2.8603   15.3821 H         6 CUB7        0.0000 
     65 O          -6.2874    3.8292   14.9211 O.2       2 ALA2        0.0000 
     66 O          -7.3355    4.7981   14.4601 O.2       2 ALA2        0.0000 
     67 OG         -3.9608    1.4650   14.4235 O.2       1 SER1        0.0000 
     68 OG         -5.0089    2.4339   13.9625 O.2       1 SER1        0.0000 
     69 O          -6.0571    3.4028   13.5015 O.2       2 ALA2        0.0000 
     70 OG         -3.7305    1.0386   13.0039 O.2       1 SER1        0.0000 
     71 O          -4.7787    2.0076   12.5429 O.2       2 ALA2        0.0000 
     72 O          -4.5484    1.5812   11.1233 O.2       2 ALA2        0.0000 
     73 N          -5.5966    2.5501   10.6623 N.2       2 ALA2        0.0000 
     74 CA         -6.7477    2.6502   18.3704 C.3       5 GLY6        0.0000 
     75 O          -5.4693    1.2549   17.4119 O.2       2 ALA2        0.0000 
     76 CA         -6.5175    2.2239   16.9508 C.3       5 GLY6        0.0000 
     77 CA         -7.5656    3.1928   16.4898 C.3       5 GLY6        0.0000 
     78 OD1        -5.2390    0.8286   15.9923 O.3       3 ASP3        0.0000 
     79 N          -6.2872    1.7975   15.5313 N.2       2 ALA2        0.0000 
     80 CA         -7.3354    2.7664   15.0703 C.3       5 GLY6        0.0000 
     81 OD1        -5.0088    0.4022   14.5727 O.3       3 ASP3        0.0000 
     82 N          -4.7785   -0.0241   13.1531 N.2       2 ALA2        0.0000 
@<TRIPOS>BOND
@<TRIPOS>SUBSTRUCTURE
     1 SER1       32 GROUP   
     2 ALA2        9 GROUP   
     3 ASP3       78 GROUP   
     4 PHE5        4 GROUP   
     5 GLY6        1 GROUP   
     6 CUB7        6 GROUP   
@<TRIPOS>SET

