#    Name: 3dcw_EZL_1_INTS_M
#    Modification time : Mon Mar 24 23:07:27 2014

@<TRIPOS>MOLECULE
3dcw_EZL_1_INTS_M
   29     0    12     0     0
SMALL
NO_CHARGES


@<TRIPOS>ATOM
      1 O          -4.5420   -1.2070   17.0120 O.2       1 ALC1        0.0000 
      2 O          -5.4350   -0.3930   16.2740 O.2       9 ALL1        0.0000 
      3 O          -3.6490   -2.0210   17.7500 O.2       5 ALP1        0.0000 
      4 Zn         -6.1115   -0.9755   15.8210 Zn        3 ZIC7        0.0000 
      5 Zn         -5.4350   -0.3930   16.2740 Zn       11 ZIL7        0.0000 
      6 Zn         -6.7880   -1.5580   15.3680 Zn        7 ZIP7        0.0000 
      7 N          -4.0795    0.7485   18.6795 N.am      2 SEC2        0.0000 
      8 N          -5.4950    1.0490   18.3050 N.am     10 SEL2        0.0000 
      9 N          -2.6640    0.4480   19.0540 N.am      6 SEP2        0.0000 
     10 CA         -8.0520    3.4590   15.1490 C.3       4 GLC5        0.0000 
     11 CA         -6.1370    3.4830   15.3160 C.3      12 GLL5        0.0000 
     12 CA         -9.9670    3.4350   14.9820 C.3       8 GLP5        0.0000 
     13 CA         -5.3255    4.2735   16.9955 C.3       4 GLC5        0.0000 
     14 CA         -4.5140    5.0640   18.6750 C.3       8 GLP5        0.0000 
     15 CA         -1.3055    2.1335   14.8240 C.3       4 GLC5        0.0000 
     16 CA         -2.2870    4.0090   14.9960 C.3      12 GLL5        0.0000 
     17 CA         -0.3240    0.2580   14.6520 C.3       8 GLP5        0.0000 
     18 CA         -1.9485    7.2470   16.4620 C.3       4 GLC5        0.0000 
     19 CA         -1.6970    8.4610   14.6020 C.3      12 GLL5        0.0000 
     20 CA         -2.2000    6.0330   18.3220 C.3       8 GLP5        0.0000 
     21 CA         -4.3513    4.4982   16.8600 C.3       4 GLC5        0.0000 
     22 CA         -3.6220    3.6100   15.2860 C.3      12 GLL5        0.0000 
     23 CA         -3.6830    9.1000   13.9782 C.3       4 GLC5        0.0000 
     24 CA         -5.5770   10.0330   14.0620 C.3       8 GLP5        0.0000 
     25 CA         -0.2855    7.2450   14.8727 C.3       4 GLC5        0.0000 
     26 CA          1.2180    6.3230   15.8510 C.3       8 GLP5        0.0000 
     27 CA         -2.2155    5.3230   16.4812 C.3       4 GLC5        0.0000 
     28 CA         -2.1750    5.2170   14.2850 C.3      12 GLL5        0.0000 
     29 CA         -0.5065    5.4680   15.2458 C.3       4 GLC5        0.0000 
@<TRIPOS>BOND
@<TRIPOS>SUBSTRUCTURE
     1 ALC1        1 GROUP        1 X    ALC  0     ROOT ALC X 1
     2 SEC2        7 GROUP        1 X    SEC  0     **** SEC X 2
     3 ZIC7        4 GROUP        1 X    ZIC  0     **** ZIC X 5
     4 GLC5       10 GROUP        1 X    GLC  0     **** GLC X 6
     5 ALP1        3 GROUP        1 Y    ALP  0     ROOT ALP Y 8
     6 SEP2        9 GROUP        1 Y    SEP  0     **** SEP Y 9
     7 ZIP7        6 GROUP        1 Y    ZIP  0     **** ZIP Y 12
     8 GLP5       12 GROUP        1 Y    GLP  0     **** GLP Y 13
     9 ALL1        2 GROUP        1 Z    ALL  0     ROOT ALL Z 15
    10 SEL2        8 GROUP        1 Z    SEL  0     **** SEL Z 16
    11 ZIL7        5 GROUP        1 Z    ZIL  0     **** ZIL Z 19
    12 GLL5       11 GROUP        1 Z    GLL  0     **** GLL Z 20
@<TRIPOS>SET

