#    Name: 3dcw_EZL_1_ligand
#    Modification time : Mon Mar 24 23:07:28 2014

@<TRIPOS>MOLECULE
3dcw_EZL_1_ligand
   25    26     1     0     0
SMALL
NO_CHARGES


@<TRIPOS>ATOM
      1 N1         -5.4350   -0.3930   16.2740 N.pl3     1 EZL301      0.0000 
      2 C2         -3.6220    3.6100   15.2860 C.ar      1 EZL301      0.0000 
      3 C3         -4.7550    4.2550   14.8040 C.ar      1 EZL301      0.0000 
      4 C4         -4.6560    5.4720   14.0860 C.ar      1 EZL301      0.0000 
      5 C5         -3.3160    5.8910   13.8480 C.ar      1 EZL301      0.0000 
      6 C8         -1.8810    7.8730   13.1870 C.3       1 EZL301      0.0000 
      7 O1         -5.4950    1.0490   18.3050 O.2       1 EZL301      0.0000 
      8 O2         -7.3680    1.1190   16.7460 O.2       1 EZL301      0.0000 
      9 S1         -5.9750    0.9350   16.9030 S.o2      1 EZL301      0.0000 
     10 C1         -5.2300    2.2940   16.0620 C.2       1 EZL301      0.0000 
     11 N2         -3.9160    2.4640   15.9490 N.2       1 EZL301      0.0000 
     12 S2         -6.1370    3.4830   15.3160 S.3       1 EZL301      0.0000 
     13 C6         -2.1750    5.2170   14.2850 C.ar      1 EZL301      0.0000 
     14 C7         -2.2870    4.0090   14.9960 C.ar      1 EZL301      0.0000 
     15 O3         -3.1140    7.0290   13.0770 O.3       1 EZL301      0.0000 
     16 C9         -1.6970    8.4610   14.6020 C.3       1 EZL301      0.0000 
     17 H          -4.5493   -0.7115   16.6117 H         1 EZL301      0.0000 
     18 H          -5.4309    5.9786   13.7814 H         1 EZL301      0.0000 
     19 H          -1.9293    8.7043   12.4730 H         1 EZL301      0.0000 
     20 H          -0.9934    7.2756   12.9450 H         1 EZL301      0.0000 
     21 H          -1.2421    5.6031   14.0878 H         1 EZL301      0.0000 
     22 H          -1.5093    3.4757   15.2748 H         1 EZL301      0.0000 
     23 H          -1.6159    7.7441   15.2944 H         1 EZL301      0.0000 
     24 H          -0.8734    9.0246   14.6658 H         1 EZL301      0.0000 
     25 H          -2.4689    9.0388   14.8673 H         1 EZL301      0.0000 
@<TRIPOS>BOND
     1    9    1 1    
     2   17    1 1    
     3    3    2 ar   
     4   11    2 1    
     5   14    2 ar   
     6    4    3 ar   
     7   12    3 1    
     8    5    4 ar   
     9   18    4 1    
    10   13    5 ar   
    11   15    5 1    
    12   15    6 1    
    13   16    6 1    
    14   19    6 1    
    15   20    6 1    
    16    9    7 2    
    17    9    8 2    
    18   10    9 1    
    19   11   10 2    
    20   12   10 1    
    21   14   13 ar   
    22   21   13 1    
    23   22   14 1    
    24   23   16 1    
    25   24   16 1    
    26   25   16 1    
@<TRIPOS>SUBSTRUCTURE
     1 EZL301      1 GROUP   
@<TRIPOS>SET

