#    Name: 2uy0_HV1_1_INTS_M
#    Modification time : Tue Mar 25 00:26:37 2014

@<TRIPOS>MOLECULE
2uy0_HV1_1_INTS_M
  106     0     9     0     0
SMALL
NO_CHARGES


@<TRIPOS>ATOM
      1 CA         13.5590   26.1100    3.6480 C.3       3 GLC5        0.0000 
      2 CA         13.6780   24.3350    4.9700 C.3       9 GLL5        0.0000 
      3 CA         13.4400   27.8850    2.3260 C.3       6 GLP5        0.0000 
      4 O          11.0525   25.9785    4.2265 O.2       1 ALC1        0.0000 
      5 O          10.7220   24.7460    5.0700 O.2       7 ALL1        0.0000 
      6 O          11.3830   27.2110    3.3830 O.2       4 ALP1        0.0000 
      7 O           7.1860   24.6130    6.3295 O.2       1 ALC1        0.0000 
      8 O           8.0520   25.8580    6.3230 O.2       7 ALL1        0.0000 
      9 O           6.3200   23.3680    6.3360 O.2       4 ALP1        0.0000 
     10 CA          6.3300   29.2160    5.7690 C.3       3 GLC5        0.0000 
     11 CA          5.2760   27.4690    5.9160 C.3       9 GLL5        0.0000 
     12 CA          7.3840   30.9630    5.6220 C.3       6 GLP5        0.0000 
     13 N           8.9645   28.9000    5.3270 N.am      2 SEC2        0.0000 
     14 N           8.2430   27.7180    4.9930 N.am      8 SEL2        0.0000 
     15 N           9.6860   30.0820    5.6610 N.am      5 SEP2        0.0000 
     16 CA         10.6165   27.3050    6.1820 C.3       3 GLC5        0.0000 
     17 CA          9.4610   25.7770    6.7630 C.3       9 GLL5        0.0000 
     18 CA         11.7720   28.8330    5.6010 C.3       6 GLP5        0.0000 
     19 CA          7.9420   25.2160   10.8225 C.3       3 GLC5        0.0000 
     20 CA          8.5490   24.8600    9.0980 C.3       9 GLL5        0.0000 
     21 CA          7.3350   25.5720   12.5470 C.3       6 GLP5        0.0000 
     22 CA         11.2835   26.2560   10.9670 C.3       3 GLC5        0.0000 
     23 CA         10.8080   25.8860    8.8910 C.3       9 GLL5        0.0000 
     24 CA         11.7590   26.6260   13.0430 C.3       6 GLP5        0.0000 
     25 CA          8.4280   29.2090    9.5595 C.3       3 GLC5        0.0000 
     26 CA          8.7620   27.2960    8.7690 C.3       9 GLL5        0.0000 
     27 CA          8.0940   31.1220   10.3500 C.3       6 GLP5        0.0000 
     28 CA          8.0485   26.4340   10.6580 C.3       3 GLC5        0.0000 
     29 CA          9.2730   22.1355    4.6395 C.3       3 GLC5        0.0000 
     30 CA         10.6690   23.1740    3.2590 C.3       9 GLL5        0.0000 
     31 CA          7.8770   21.0970    6.0200 C.3       6 GLP5        0.0000 
     32 CA          8.0155   22.2435    4.5600 C.3       3 GLC5        0.0000 
     33 CA          8.1540   23.3900    3.1000 C.3       9 GLL5        0.0000 
     34 CA          6.0875   25.1400   -0.6625 C.3       3 GLC5        0.0000 
     35 CA          5.8820   26.1050    0.8420 C.3       9 GLL5        0.0000 
     36 CA          6.2930   24.1750   -2.1670 C.3       6 GLP5        0.0000 
     37 CA         10.8150   24.2290    0.3810 C.3       3 GLC5        0.0000 
     38 CA          9.6630   24.8670    1.8820 C.3       9 GLL5        0.0000 
     39 CA         11.9670   23.5910   -1.1200 C.3       6 GLP5        0.0000 
     40 O          15.8425   24.8260    6.4235 O.2       1 ALC1        0.0000 
     41 O          16.1120   23.4540    6.0610 O.2       7 ALL1        0.0000 
     42 O          15.5730   26.1980    6.7860 O.2       4 ALP1        0.0000 
     43 CA         14.3215   19.3440    8.6165 C.3       3 GLC5        0.0000 
     44 CA         15.7500   20.5910    9.3940 C.3       9 GLL5        0.0000 
     45 CA         12.8930   18.0970    7.8390 C.3       6 GLP5        0.0000 
     46 O          17.2015   21.9015    5.2630 O.2       1 ALC1        0.0000 
     47 O          15.8850   20.9260    5.4290 O.2       7 ALL1        0.0000 
     48 O          18.5180   22.8770    5.0970 O.2       4 ALP1        0.0000 
     49 CA         14.4855   18.7895    6.4250 C.3       3 GLC5        0.0000 
     50 CA         16.0780   19.4820    5.0110 C.3       9 GLL5        0.0000 
     51 CA         14.7660   20.6435   -0.0120 C.3       3 GLC5        0.0000 
     52 CA         14.8860   19.1540    1.2620 C.3       9 GLL5        0.0000 
     53 CA         14.6460   22.1330   -1.2860 C.3       6 GLP5        0.0000 
     54 CA         17.4995   20.1285    2.8475 C.3       3 GLC5        0.0000 
     55 CA         16.8100   18.1600    3.2270 C.3       9 GLL5        0.0000 
     56 CA         18.1890   22.0970    2.4680 C.3       6 GLP5        0.0000 
     57 CA         19.7130   18.2840    3.7390 C.3       3 GLC5        0.0000 
     58 CA         17.6960   17.8070    4.4290 C.3       9 GLL5        0.0000 
     59 CA         21.7300   18.7610    3.0490 C.3       6 GLP5        0.0000 
     60 N          19.2710   20.2140    3.7770 N.am      2 SEC2        0.0000 
     61 N          18.5390   19.9640    5.0140 N.am      8 SEL2        0.0000 
     62 N          20.0030   20.4640    2.5400 N.am      5 SEP2        0.0000 
     63 O          18.5285   21.4205    5.0555 O.2       1 ALC1        0.0000 
     64 O          18.5390   19.9640    5.0140 O.2       7 ALL1        0.0000 
     65 CA         10.3581   24.0635    9.4994 C.3       3 GLC5        0.0000 
     66 CA         10.8280   22.4860   10.1910 C.3       6 GLP5        0.0000 
     67 CA         10.9960   27.6172    7.7975 C.3       3 GLC5        0.0000 
     68 CA         12.5620   28.6320    6.9000 C.3       6 GLP5        0.0000 
     69 CA          6.6999   22.7346    1.7009 C.3       3 GLC5        0.0000 
     70 CA          5.9790   21.0520    1.1480 C.3       6 GLP5        0.0000 
     71 CA         10.1665   26.0685    0.5028 C.3       3 GLC5        0.0000 
     72 CA          8.5650   25.5170    1.3470 C.3       9 GLL5        0.0000 
     73 CA         11.2190   26.9450   -0.6090 C.3       6 GLP5        0.0000 
     74 CA          8.7480   24.4295   -0.0041 C.3       3 GLC5        0.0000 
     75 CA          8.7120   23.7670   -1.7050 C.3       6 GLP5        0.0000 
     76 CA         16.8015   21.9665   10.4633 C.3       3 GLC5        0.0000 
     77 CA         16.1600   21.7210    8.6310 C.3       9 GLL5        0.0000 
     78 CA         17.6480   22.7770   11.9140 C.3       6 GLP5        0.0000 
     79 CA         15.4110   19.8122   11.1320 C.3       3 GLC5        0.0000 
     80 CA         14.5800   19.4760   12.6430 C.3       6 GLP5        0.0000 
     81 CA         17.5265   21.3030   10.8050 C.3       3 GLC5        0.0000 
     82 CA         16.7340   19.7060    9.8480 C.3       9 GLL5        0.0000 
     83 CA         18.6958   23.2518    8.3950 C.3       3 GLC5        0.0000 
     84 CA         18.5000   21.0690    8.7910 C.3       9 GLL5        0.0000 
     85 CA         19.3790   24.9850    8.2310 C.3       6 GLP5        0.0000 
     86 CA         17.8302   22.1478   10.2365 C.3       3 GLC5        0.0000 
     87 CA         17.5250   21.9680    8.3270 C.3       9 GLL5        0.0000 
     88 CA         16.6259   23.8742    9.3120 C.3       3 GLC5        0.0000 
     89 CA         16.6790   25.6680   10.2680 C.3       6 GLP5        0.0000 
     90 CA         17.4917   20.6745    3.8315 C.3       3 GLC5        0.0000 
     91 CA         16.2735   20.7050    2.2175 C.3       3 GLC5        0.0000 
     92 CA         15.8420   19.1640    3.5900 C.3       9 GLL5        0.0000 
     93 CA         17.1970   21.9840    1.3240 C.3       6 GLP5        0.0000 
     94 CA         13.9545   18.2930    3.2830 C.3       3 GLC5        0.0000 
     95 CA         14.8580   19.6880    2.6320 C.3       9 GLL5        0.0000 
     96 CA         13.0370   17.1650    4.6190 C.3       6 GLP5        0.0000 
     97 CA         14.2082   18.2920   -0.2740 C.3       3 GLC5        0.0000 
     98 CA         13.0350   17.9420   -1.6230 C.3       6 GLP5        0.0000 
     99 CA         17.8687   17.2735    0.3685 C.3       3 GLC5        0.0000 
    100 CA         15.8770   18.1300    0.8880 C.3       9 GLL5        0.0000 
    101 CA         19.3730   16.6720   -0.6420 C.3       6 GLP5        0.0000 
    102 CA         15.1478   16.2650    1.4815 C.3       3 GLC5        0.0000 
    103 CA         16.8520   17.6200    1.8700 C.3       9 GLL5        0.0000 
    104 CA         13.9310   14.6550    1.5840 C.3       6 GLP5        0.0000 
    105 CA         16.6569   20.0575    1.3982 C.3       3 GLC5        0.0000 
    106 CA         14.7110   17.9533    4.1914 C.3       3 GLC5        0.0000 
@<TRIPOS>BOND
@<TRIPOS>SUBSTRUCTURE
     1 ALC1        4 GROUP        1 X    ALC  0     ROOT ALC X 1
     2 SEC2       13 GROUP        1 X    SEC  0     **** SEC X 2
     3 GLC5        1 GROUP        1 X    GLC  0     **** GLC X 6
     4 ALP1        6 GROUP        1 Y    ALP  0     ROOT ALP Y 8
     5 SEP2       15 GROUP        1 Y    SEP  0     **** SEP Y 9
     6 GLP5        3 GROUP        1 Y    GLP  0     **** GLP Y 13
     7 ALL1        5 GROUP        1 Z    ALL  0     ROOT ALL Z 15
     8 SEL2       14 GROUP        1 Z    SEL  0     **** SEL Z 16
     9 GLL5        2 GROUP        1 Z    GLL  0     **** GLL Z 20
@<TRIPOS>SET

