#    Name: 2uy0_HV1_1_ligand
#    Modification time : Tue Mar 25 00:26:37 2014

@<TRIPOS>MOLECULE
2uy0_HV1_1_ligand
   91    94     1     0     0
SMALL
NO_CHARGES


@<TRIPOS>ATOM
      1 C4         13.6780   24.3350    4.9700 C.3       1 HV11200     0.0000 
      2 C14        13.7950   23.8280    6.4180 C.3       1 HV11200     0.0000 
      3 N1         11.2830   23.6870    4.5210 N.am      1 HV11200     0.0000 
      4 N2         10.7220   24.7460    5.0700 N.am      1 HV11200     0.0000 
      5 N3          8.0520   25.8580    6.3230 N.am      1 HV11200     0.0000 
      6 O50        13.1470   22.8010    3.3690 O.2       1 HV11200     0.0000 
      7 C25        12.6400   23.5620    4.2270 C.2       1 HV11200     0.0000 
      8 C42        10.0500   24.5350    6.2140 C.2       1 HV11200     0.0000 
      9 C36         5.2760   27.4690    5.9160 C.3       1 HV11200     0.0000 
     10 O37         6.2190   26.5850    5.2810 O.3       1 HV11200     0.0000 
     11 C38         7.5980   26.8000    5.4990 C.2       1 HV11200     0.0000 
     12 O39         8.2430   27.7180    4.9930 O.2       1 HV11200     0.0000 
     13 C41         9.4610   25.7770    6.7630 C.3       1 HV11200     0.0000 
     14 C35         9.3880   25.9320    8.3510 C.3       1 HV11200     0.0000 
     15 C47         8.5490   24.8600    9.0980 C.3       1 HV11200     0.0000 
     16 C46        10.8080   25.8860    8.8910 C.3       1 HV11200     0.0000 
     17 C45         8.7620   27.2960    8.7690 C.3       1 HV11200     0.0000 
     18 O44         9.9610   23.3970    6.7180 O.2       1 HV11200     0.0000 
     19 C27        10.6690   23.1740    3.2590 C.3       1 HV11200     0.0000 
     20 C28         9.4460   23.8260    2.7380 C.ar      1 HV11200     0.0000 
     21 C29         8.1540   23.3900    3.1000 C.ar      1 HV11200     0.0000 
     22 C30         7.0390   24.0450    2.5630 C.ar      1 HV11200     0.0000 
     23 C31         7.2450   25.1170    1.6760 C.ar      1 HV11200     0.0000 
     24 BR          5.8820   26.1050    0.8420 Br        1 HV11200     0.0000 
     25 C32         8.5650   25.5170    1.3470 C.ar      1 HV11200     0.0000 
     26 C33         9.6630   24.8670    1.8820 C.ar      1 HV11200     0.0000 
     27 C1         14.9370   22.7860    6.6080 C.3       1 HV11200     0.0000 
     28 O22        16.1120   23.4540    6.0610 O.3       1 HV11200     0.0000 
     29 C15        15.0810   22.6650    8.1390 C.3       1 HV11200     0.0000 
     30 C16        16.1600   21.7210    8.6310 C.ar      1 HV11200     0.0000 
     31 C17        15.7500   20.5910    9.3940 C.ar      1 HV11200     0.0000 
     32 C18        16.7340   19.7060    9.8480 C.ar      1 HV11200     0.0000 
     33 C19        18.0760   19.9520    9.5440 C.ar      1 HV11200     0.0000 
     34 C20        18.5000   21.0690    8.7910 C.ar      1 HV11200     0.0000 
     35 C21        17.5250   21.9680    8.3270 C.ar      1 HV11200     0.0000 
     36 C2         14.7320   21.3100    6.0660 C.2       1 HV11200     0.0000 
     37 O3         13.7970   20.5310    6.3020 O.2       1 HV11200     0.0000 
     38 N4         15.8850   20.9260    5.4290 N.am      1 HV11200     0.0000 
     39 C5         16.0780   19.4820    5.0110 C.3       1 HV11200     0.0000 
     40 C6         15.8420   19.1640    3.5900 C.ar      1 HV11200     0.0000 
     41 C7         14.8580   19.6880    2.6320 C.ar      1 HV11200     0.0000 
     42 C8         14.8860   19.1540    1.2620 C.ar      1 HV11200     0.0000 
     43 C9         15.8770   18.1300    0.8880 C.ar      1 HV11200     0.0000 
     44 C10        16.8520   17.6200    1.8700 C.ar      1 HV11200     0.0000 
     45 C11        16.8100   18.1600    3.2270 C.ar      1 HV11200     0.0000 
     46 C12        17.6960   17.8070    4.4290 C.3       1 HV11200     0.0000 
     47 C13        17.5110   19.0220    5.3790 C.3       1 HV11200     0.0000 
     48 O14        18.5390   19.9640    5.0140 O.3       1 HV11200     0.0000 
     49 H          14.6493   24.2263    4.4865 H         1 HV11200     0.0000 
     50 H          13.4165   25.3933    4.9948 H         1 HV11200     0.0000 
     51 H          12.8497   23.3651    6.7156 H         1 HV11200     0.0000 
     52 H          13.9844   24.6757    7.0828 H         1 HV11200     0.0000 
     53 H          10.7873   25.6802    4.6584 H         1 HV11200     0.0000 
     54 H           7.4282   25.1103    6.7119 H         1 HV11200     0.0000 
     55 H           9.9717   26.6569    6.3900 H         1 HV11200     0.0000 
     56 H          10.4634   22.0664    3.3899 H         1 HV11200     0.0000 
     57 H          11.4621   23.1873    2.4484 H         1 HV11200     0.0000 
     58 H           8.0391   22.6102    3.7425 H         1 HV11200     0.0000 
     59 H           6.0975   23.7535    2.8077 H         1 HV11200     0.0000 
     60 H           8.6933   26.3083    0.6959 H         1 HV11200     0.0000 
     61 H          10.6095   25.1653    1.6370 H         1 HV11200     0.0000 
     62 H          14.1008   22.3474    8.5546 H         1 HV11200     0.0000 
     63 H          15.2687   23.6800    8.5500 H         1 HV11200     0.0000 
     64 H          14.7726   20.4424    9.5959 H         1 HV11200     0.0000 
     65 H          16.4726   18.8849   10.3985 H         1 HV11200     0.0000 
     66 H          18.8018   19.2837    9.8861 H         1 HV11200     0.0000 
     67 H          19.4797   21.2149    8.5929 H         1 HV11200     0.0000 
     68 H          17.7852   22.7830    7.7827 H         1 HV11200     0.0000 
     69 H          16.6446   21.5598    5.2095 H         1 HV11200     0.0000 
     70 H          15.4088   18.8528    5.6347 H         1 HV11200     0.0000 
     71 H          14.2024   20.3731    2.8980 H         1 HV11200     0.0000 
     72 H          14.2305   19.4864    0.5810 H         1 HV11200     0.0000 
     73 H          15.8894   17.7716   -0.0545 H         1 HV11200     0.0000 
     74 H          17.5132   16.9318    1.6111 H         1 HV11200     0.0000 
     75 H          18.7059   17.7495    4.1296 H         1 HV11200     0.0000 
     76 H          17.3339   16.9365    4.9022 H         1 HV11200     0.0000 
     77 H          17.5402   18.6773    6.3481 H         1 HV11200     0.0000 
     78 H           5.3569   27.4445    6.9124 H         1 HV11200     0.0000 
     79 H           5.4098   28.4191    5.6343 H         1 HV11200     0.0000 
     80 H           4.3317   27.2273    5.6925 H         1 HV11200     0.0000 
     81 H           8.9033   23.9376    8.9442 H         1 HV11200     0.0000 
     82 H           8.5471   25.0123   10.0863 H         1 HV11200     0.0000 
     83 H           7.5946   24.8609    8.7994 H         1 HV11200     0.0000 
     84 H          11.2623   25.0234    8.6683 H         1 HV11200     0.0000 
     85 H          11.3726   26.6204    8.5142 H         1 HV11200     0.0000 
     86 H          10.8301   25.9805    9.8863 H         1 HV11200     0.0000 
     87 H           8.7146   27.3938    9.7631 H         1 HV11200     0.0000 
     88 H           9.2929   28.0698    8.4234 H         1 HV11200     0.0000 
     89 H           7.8309   27.4000    8.4195 H         1 HV11200     0.0000 
     90 H          16.0055   24.4150    6.3162 H         1 HV11200     0.0000 
     91 H          18.1254   20.8641    5.1506 H         1 HV11200     0.0000 
@<TRIPOS>BOND
     1    2    1 1    
     2    7    1 1    
     3   49    1 1    
     4   50    1 1    
     5   27    2 1    
     6   51    2 1    
     7   52    2 1    
     8    4    3 1    
     9    7    3 am   
    10   19    3 1    
    11    8    4 am   
    12   53    4 1    
    13   11    5 am   
    14   13    5 1    
    15   54    5 1    
    16    7    6 2    
    17   13    8 1    
    18   18    8 2    
    19   10    9 1    
    20   78    9 1    
    21   79    9 1    
    22   80    9 1    
    23   11   10 1    
    24   12   11 2    
    25   14   13 1    
    26   55   13 1    
    27   15   14 1    
    28   16   14 1    
    29   17   14 1    
    30   81   15 1    
    31   82   15 1    
    32   83   15 1    
    33   84   16 1    
    34   85   16 1    
    35   86   16 1    
    36   87   17 1    
    37   88   17 1    
    38   89   17 1    
    39   20   19 1    
    40   56   19 1    
    41   57   19 1    
    42   21   20 ar   
    43   26   20 ar   
    44   22   21 ar   
    45   58   21 1    
    46   23   22 ar   
    47   59   22 1    
    48   24   23 1    
    49   25   23 ar   
    50   26   25 ar   
    51   60   25 1    
    52   61   26 1    
    53   28   27 1    
    54   29   27 1    
    55   36   27 1    
    56   90   28 1    
    57   30   29 1    
    58   62   29 1    
    59   63   29 1    
    60   31   30 ar   
    61   35   30 ar   
    62   32   31 ar   
    63   64   31 1    
    64   33   32 ar   
    65   65   32 1    
    66   34   33 ar   
    67   66   33 1    
    68   35   34 ar   
    69   67   34 1    
    70   68   35 1    
    71   37   36 2    
    72   38   36 am   
    73   39   38 1    
    74   69   38 1    
    75   40   39 1    
    76   47   39 1    
    77   70   39 1    
    78   41   40 ar   
    79   45   40 ar   
    80   42   41 ar   
    81   71   41 1    
    82   43   42 ar   
    83   72   42 1    
    84   44   43 ar   
    85   73   43 1    
    86   45   44 ar   
    87   74   44 1    
    88   46   45 1    
    89   47   46 1    
    90   75   46 1    
    91   76   46 1    
    92   48   47 1    
    93   77   47 1    
    94   91   48 1    
@<TRIPOS>SUBSTRUCTURE
     1 HV11200     1 GROUP   
@<TRIPOS>SET

