#    Name: 4i5e_NAP_5_INTS_M
#    Modification time : Tue Mar 25 02:27:17 2014

@<TRIPOS>MOLECULE
4i5e_NAP_5_INTS_M
  117     0    12     0     0
SMALL
NO_CHARGES


@<TRIPOS>ATOM
      1 N          -9.8915   -8.1720 -103.7885 N.am      2 SEC2        0.0000 
      2 N         -10.2550   -7.3380 -102.9790 N.am     10 SEL2        0.0000 
      3 N          -9.5280   -9.0060 -104.5980 N.am      6 SEP2        0.0000 
      4 CA         -7.7925   -1.6540 -105.1790 C.3       4 GLC5        0.0000 
      5 CA         -7.9030   -3.8060 -104.6530 C.3      12 GLL5        0.0000 
      6 CA         -7.6820    0.4980 -105.7050 C.3       8 GLP5        0.0000 
      7 CA         -8.2975   -6.6785 -105.5600 C.3       4 GLC5        0.0000 
      8 CA         -7.2900   -5.0450 -105.3210 C.3      12 GLL5        0.0000 
      9 CA         -9.3050   -8.3120 -105.7990 C.3       8 GLP5        0.0000 
     10 O          -7.5090   -6.3920 -107.3850 O.2       1 ALC1        0.0000 
     11 O          -7.9920   -5.4110 -106.5250 O.2       9 ALL1        0.0000 
     12 O          -7.0260   -7.3730 -108.2450 O.2       5 ALP1        0.0000 
     13 CA         -6.1995   -1.3185 -106.1675 C.3       4 GLC5        0.0000 
     14 CA         -5.9520   -3.1760 -105.7160 C.3      12 GLL5        0.0000 
     15 CA         -6.4470    0.5390 -106.6190 C.3       8 GLP5        0.0000 
     16 CA         -0.5215   -0.2165 -108.0610 C.3       4 GLC5        0.0000 
     17 CA         -1.7940   -0.5810 -106.3050 C.3      12 GLL5        0.0000 
     18 CA          0.7510    0.1480 -109.8170 C.3       8 GLP5        0.0000 
     19 CA         -2.2830    1.2380 -106.7065 C.3       4 GLC5        0.0000 
     20 CA         -2.7720    3.0570 -107.1080 C.3       8 GLP5        0.0000 
     21 O           0.4905    0.5800 -106.4970 O.2       1 ALC1        0.0000 
     22 O          -0.7540   -0.0830 -105.6290 O.2       9 ALL1        0.0000 
     23 O           1.7350    1.2430 -107.3650 O.2       5 ALP1        0.0000 
     24 N          -1.3190    0.7615 -108.3890 N.am      2 SEC2        0.0000 
     25 N          -1.9520   -0.4450 -107.6560 N.am     10 SEL2        0.0000 
     26 N          -0.6860    1.9680 -109.1220 N.am      6 SEP2        0.0000 
     27 CA         -3.5260   -2.4905 -109.4710 C.3       4 GLC5        0.0000 
     28 CA         -3.0290   -0.9820 -108.2960 C.3      12 GLL5        0.0000 
     29 CA         -4.0230   -3.9990 -110.6460 C.3       8 GLP5        0.0000 
     30 CA         -1.3365   -2.1860 -108.2885 C.3       4 GLC5        0.0000 
     31 CA          0.3560   -3.3900 -108.2810 C.3       8 GLP5        0.0000 
     32 CA         -1.1390   -0.4170 -109.0565 C.3       4 GLC5        0.0000 
     33 CA         -3.3210    0.8215 -108.8600 C.3       4 GLC5        0.0000 
     34 CA         -3.6130    2.6250 -109.4240 C.3       8 GLP5        0.0000 
     35 CA         -4.7380   -0.2215 -107.4575 C.3       4 GLC5        0.0000 
     36 N         -12.9605   -5.2975 -104.2060 N.am      2 SEC2        0.0000 
     37 N         -11.4070   -4.7090 -103.7240 N.am     10 SEL2        0.0000 
     38 N         -14.5140   -5.8860 -104.6880 N.am      6 SEP2        0.0000 
     39 N         -13.3115   -6.0280 -100.5600 N.am      2 SEC2        0.0000 
     40 N         -12.9480   -5.2230 -101.5840 N.am     10 SEL2        0.0000 
     41 N         -13.6750   -6.8330  -99.5360 N.am      6 SEP2        0.0000 
     42 CA         -8.7350    0.2685 -101.7240 C.3       4 GLC5        0.0000 
     43 CA        -10.6180   -0.4550 -101.4090 C.3      12 GLL5        0.0000 
     44 CA         -6.8520    0.9920 -102.0390 C.3       8 GLP5        0.0000 
     45 N         -10.0835    2.1750 -101.1310 N.am      2 SEC2        0.0000 
     46 N         -10.0470    0.7670 -101.9500 N.am     10 SEL2        0.0000 
     47 N         -10.1200    3.5830 -100.3120 N.am      6 SEP2        0.0000 
     48 O         -10.1185    0.8645 -103.2510 O.2       1 ALC1        0.0000 
     49 O         -10.0470    0.7670 -101.9500 O.2       9 ALL1        0.0000 
     50 O         -10.1900    0.9620 -104.5520 O.2       5 ALP1        0.0000 
     51 CA        -10.6240    1.6545  -99.3965 C.3       4 GLC5        0.0000 
     52 CA        -11.1150   -0.3680  -99.9620 C.3      12 GLL5        0.0000 
     53 CA        -10.1330    3.6770  -98.8310 C.3       8 GLP5        0.0000 
     54 N         -10.6760    0.7625  -97.9505 N.am      2 SEC2        0.0000 
     55 N         -10.3280    0.5620  -99.1860 N.am     10 SEL2        0.0000 
     56 N         -11.0240    0.9630  -96.7150 N.am      6 SEP2        0.0000 
     57 N         -10.2240    2.0725  -99.7490 N.am      2 SEC2        0.0000 
     58 CA        -13.3530    1.0730 -101.1870 C.3       4 GLC5        0.0000 
     59 CA        -12.6450   -0.0450 -100.0390 C.3      12 GLL5        0.0000 
     60 CA        -14.0610    2.1910 -102.3350 C.3       8 GLP5        0.0000 
     61 CA        -14.7415    0.3675  -99.7745 C.3       4 GLC5        0.0000 
     62 CA        -16.8380    0.7800  -99.5100 C.3       8 GLP5        0.0000 
     63 CA        -14.7735   -2.2795 -100.2780 C.3       4 GLC5        0.0000 
     64 CA        -13.8780   -1.7210  -98.6610 C.3      12 GLL5        0.0000 
     65 CA        -15.6690   -2.8380 -101.8950 C.3       8 GLP5        0.0000 
     66 N         -16.5575   -4.6055  -96.3080 N.am      2 SEC2        0.0000 
     67 N         -14.9660   -4.0770  -96.2230 N.am     10 SEL2        0.0000 
     68 N         -18.1490   -5.1340  -96.3930 N.am      6 SEP2        0.0000 
     69 O         -16.0605   -5.5395  -97.8590 O.2       1 ALC1        0.0000 
     70 O         -15.6990   -3.9900  -98.3330 O.2       9 ALL1        0.0000 
     71 O         -16.4220   -7.0890  -97.3850 O.2       5 ALP1        0.0000 
     72 NZ         -3.4195   -8.1660 -106.9690 N.4       3 LYC4        0.0000 
     73 NZ         -3.5500   -6.9590 -107.6710 N.4      11 LYL4        0.0000 
     74 NZ         -4.3600   -9.7580 -105.5770 N.4       7 LYP4        0.0000 
     75 N          -4.3930   -7.4100 -108.6055 N.am      2 SEC2        0.0000 
     76 N          -3.5500   -6.9590 -107.6710 N.am     10 SEL2        0.0000 
     77 N          -5.2360   -7.8610 -109.5400 N.am      6 SEP2        0.0000 
     78 N          -2.7490   -5.9225 -108.7180 N.am      2 SEC2        0.0000 
     79 N          -1.9480   -4.8860 -109.7650 N.am      6 SEP2        0.0000 
     80 N          -2.3255   -7.2800 -108.6225 N.am      2 SEC2        0.0000 
     81 N          -1.1010   -7.6010 -109.5740 N.am      6 SEP2        0.0000 
     82 N          -3.4195   -8.1660 -106.9690 N.am      2 SEC2        0.0000 
     83 N          -3.2890   -9.3730 -106.2670 N.am      6 SEP2        0.0000 
     84 NZ         -2.3210   -5.3060 -104.6270 N.4       3 LYC4        0.0000 
     85 NZ         -3.3730   -6.1010 -105.2460 N.4      11 LYL4        0.0000 
     86 NZ         -0.3160   -3.8710 -104.6560 N.4       7 LYP4        0.0000 
     87 NZ         -3.8665   -7.9295 -105.4115 N.4       3 LYC4        0.0000 
     88 N          -2.3210   -5.3060 -104.6270 N.am      2 SEC2        0.0000 
     89 N          -3.3730   -6.1010 -105.2460 N.am     10 SEL2        0.0000 
     90 N          -1.2690   -4.5110 -104.0080 N.am      6 SEP2        0.0000 
     91 NZ         -1.6670   -4.1530 -106.5920 N.4       3 LYC4        0.0000 
     92 NZ         -2.9500   -4.5480 -107.2030 N.4      11 LYL4        0.0000 
     93 N          -2.4490   -4.7170 -108.4840 N.am      2 SEC2        0.0000 
     94 N          -2.9500   -4.5480 -107.2030 N.am     10 SEL2        0.0000 
     95 N          -1.6670   -4.1530 -106.5920 N.am      2 SEC2        0.0000 
     96 N          -0.3840   -3.7580 -105.9810 N.am      6 SEP2        0.0000 
     97 CA         -0.8522   -2.0118 -106.3688 C.3       4 GLC5        0.0000 
     98 CA         -2.8150   -1.3200 -105.5340 C.3      12 GLL5        0.0000 
     99 CA          0.6000   -3.0730 -106.8180 C.3       8 GLP5        0.0000 
    100 CA         -4.9145   -0.5295 -106.2685 C.3       4 GLC5        0.0000 
    101 CA         -2.7287    0.3623 -104.5183 C.3       4 GLC5        0.0000 
    102 CA         -3.1530    1.6750 -103.1170 C.3       8 GLP5        0.0000 
    103 CA        -13.7598   -2.1562 -102.1715 C.3       4 GLC5        0.0000 
    104 CA        -11.9140   -0.7770 -102.1490 C.3      12 GLL5        0.0000 
    105 CA        -12.6635    0.7875 -102.0570 C.3       4 GLC5        0.0000 
    106 CA        -10.1783   -1.6982  -99.3253 C.3       4 GLC5        0.0000 
    107 CA         -9.4900   -2.9850  -97.9650 C.3       8 GLP5        0.0000 
    108 CA        -15.5207   -0.5590  -98.7843 C.3       4 GLC5        0.0000 
    109 CA        -12.9283   -3.5665  -97.7528 C.3       4 GLC5        0.0000 
    110 CA        -11.6530   -5.2350  -97.4470 C.3       8 GLP5        0.0000 
    111 CA        -13.8105    1.8992  -96.6575 C.3       4 GLC5        0.0000 
    112 CA        -14.0660    0.1000  -96.5680 C.3      12 GLL5        0.0000 
    113 CA        -13.8550    3.5460  -96.1290 C.3       8 GLP5        0.0000 
    114 CA        -15.3715    0.3588  -98.3266 C.3       4 GLC5        0.0000 
    115 CA        -13.4660    0.4050  -97.8040 C.3      12 GLL5        0.0000 
    116 CA         -7.5730   -3.3450 -106.7467 C.3       4 GLC5        0.0000 
    117 CA         -8.4030   -2.5130 -108.1840 C.3       8 GLP5        0.0000 
@<TRIPOS>BOND
@<TRIPOS>SUBSTRUCTURE
     1 ALC1       10 GROUP        1 X    ALC  0     ROOT ALC X 1
     2 SEC2        1 GROUP        1 X    SEC  0     **** SEC X 2
     3 LYC4       72 GROUP        1 X    LYC  0     **** LYC X 4
     4 GLC5        4 GROUP        1 X    GLC  0     **** GLC X 6
     5 ALP1       12 GROUP        1 Y    ALP  0     ROOT ALP Y 8
     6 SEP2        3 GROUP        1 Y    SEP  0     **** SEP Y 9
     7 LYP4       74 GROUP        1 Y    LYP  0     **** LYP Y 11
     8 GLP5        6 GROUP        1 Y    GLP  0     **** GLP Y 13
     9 ALL1       11 GROUP        1 Z    ALL  0     ROOT ALL Z 15
    10 SEL2        2 GROUP        1 Z    SEL  0     **** SEL Z 16
    11 LYL4       73 GROUP        1 Z    LYL  0     **** LYL Z 18
    12 GLL5        5 GROUP        1 Z    GLL  0     **** GLL Z 20
@<TRIPOS>SET

