#    Name: 4i5e_NAP_5_ligand
#    Modification time : Tue Mar 25 02:27:17 2014

@<TRIPOS>MOLECULE
4i5e_NAP_5_ligand
   73    77     1     0     0
SMALL
NO_CHARGES


@<TRIPOS>ATOM
      1 PA         -9.4000   -6.3850 -102.1860 P.3       1 NAP301      0.0000 
      2 O1A       -10.2550   -7.3380 -102.9790 O.co2     1 NAP301      0.0000 
      3 O2A        -8.4050   -7.0160 -101.2490 O.co2     1 NAP301      0.0000 
      4 O5B        -8.5510   -5.4930 -103.2250 O.3       1 NAP301      0.0000 
      5 C5B        -8.1610   -4.1090 -103.1790 C.3       1 NAP301      0.0000 
      6 C4B        -7.9030   -3.8060 -104.6530 C.3       1 NAP301      0.0000 
      7 O4B        -6.9750   -2.7390 -104.8200 O.3       1 NAP301      0.0000 
      8 C3B        -7.2900   -5.0450 -105.3210 C.3       1 NAP301      0.0000 
      9 O3B        -7.9920   -5.4110 -106.5250 O.3       1 NAP301      0.0000 
     10 C2B        -5.8270   -4.6810 -105.5480 C.3       1 NAP301      0.0000 
     11 O2B        -5.2300   -5.3560 -106.6700 O.3       1 NAP301      0.0000 
     12 C1B        -5.9520   -3.1760 -105.7160 C.3       1 NAP301      0.0000 
     13 N9A        -4.6980   -2.4930 -105.3950 N.pl3     1 NAP301      0.0000 
     14 C8A        -4.1330   -2.3710 -104.1710 C.2       1 NAP301      0.0000 
     15 N7A        -2.9860   -1.6550 -104.2420 N.2       1 NAP301      0.0000 
     16 C5A        -2.8150   -1.3200 -105.5340 C.ar      1 NAP301      0.0000 
     17 C6A        -1.7940   -0.5810 -106.3050 C.ar      1 NAP301      0.0000 
     18 N6A        -0.7540   -0.0830 -105.6290 N.pl3     1 NAP301      0.0000 
     19 N1A        -1.9520   -0.4450 -107.6560 N.ar      1 NAP301      0.0000 
     20 C2A        -3.0290   -0.9820 -108.2960 C.ar      1 NAP301      0.0000 
     21 N3A        -4.0120   -1.6900 -107.6590 N.ar      1 NAP301      0.0000 
     22 C4A        -3.9490   -1.8760 -106.3020 C.ar      1 NAP301      0.0000 
     23 O3        -10.4120   -5.3870 -101.4150 O.3       1 NAP301      0.0000 
     24 PN        -11.6470   -4.7120 -102.1890 P.3       1 NAP301      0.0000 
     25 O1N       -11.4070   -4.7090 -103.7240 O.co2     1 NAP301      0.0000 
     26 O2N       -12.9480   -5.2230 -101.5840 O.co2     1 NAP301      0.0000 
     27 O5D       -11.5430   -3.1670 -101.7390 O.3       1 NAP301      0.0000 
     28 C5D       -11.7870   -2.1720 -102.7470 C.3       1 NAP301      0.0000 
     29 C4D       -11.9140   -0.7770 -102.1490 C.3       1 NAP301      0.0000 
     30 O4D       -13.0620   -0.6240 -101.2720 O.3       1 NAP301      0.0000 
     31 C3D       -10.6180   -0.4550 -101.4090 C.3       1 NAP301      0.0000 
     32 O3D       -10.0470    0.7670 -101.9500 O.3       1 NAP301      0.0000 
     33 C2D       -11.1150   -0.3680  -99.9620 C.3       1 NAP301      0.0000 
     34 O2D       -10.3280    0.5620  -99.1860 O.3       1 NAP301      0.0000 
     35 C1D       -12.6450   -0.0450 -100.0390 C.3       1 NAP301      0.0000 
     36 N1N       -13.3660   -0.4770  -98.8230 N.pl3     1 NAP301      0.0000 
     37 C2N       -13.8780   -1.7210  -98.6610 C.ar      1 NAP301      0.0000 
     38 C3N       -14.5290   -2.0750  -97.4560 C.ar      1 NAP301      0.0000 
     39 C7N       -15.0960   -3.4560  -97.2820 C.2       1 NAP301      0.0000 
     40 O7N       -14.9660   -4.0770  -96.2230 O.2       1 NAP301      0.0000 
     41 N7N       -15.6990   -3.9900  -98.3330 N.am      1 NAP301      0.0000 
     42 C4N       -14.6220   -1.1600  -96.3970 C.ar      1 NAP301      0.0000 
     43 C5N       -14.0660    0.1000  -96.5680 C.ar      1 NAP301      0.0000 
     44 C6N       -13.4660    0.4050  -97.8040 C.ar      1 NAP301      0.0000 
     45 P2B        -3.6610   -5.7870 -106.6940 P.3       1 NAP301      0.0000 
     46 O1X        -3.5500   -6.9590 -107.6710 O.co2     1 NAP301      0.0000 
     47 O2X        -3.3730   -6.1010 -105.2460 O.co2     1 NAP301      0.0000 
     48 O3X        -2.9500   -4.5480 -107.2030 O.co2     1 NAP301      0.0000 
     49 H          -7.2551   -3.9641 -102.6398 H         1 NAP301      0.0000 
     50 H          -8.9484   -3.4804 -102.8367 H         1 NAP301      0.0000 
     51 H          -8.8366   -3.6048 -105.1385 H         1 NAP301      0.0000 
     52 H          -7.3133   -5.8390 -104.5784 H         1 NAP301      0.0000 
     53 H          -5.3163   -4.8534 -104.6166 H         1 NAP301      0.0000 
     54 H          -6.2379   -2.9780 -106.7354 H         1 NAP301      0.0000 
     55 H          -4.5028   -2.7486 -103.3472 H         1 NAP301      0.0000 
     56 H          -0.0740    0.4121 -106.1698 H         1 NAP301      0.0000 
     57 H          -0.7492   -0.2503 -104.6431 H         1 NAP301      0.0000 
     58 H          -3.1120   -0.8450 -109.3450 H         1 NAP301      0.0000 
     59 H         -12.7165   -2.3864 -103.3037 H         1 NAP301      0.0000 
     60 H         -10.9706   -2.1474 -103.4904 H         1 NAP301      0.0000 
     61 H         -11.9793   -0.0680 -102.9862 H         1 NAP301      0.0000 
     62 H          -9.9856   -1.3013 -101.5003 H         1 NAP301      0.0000 
     63 H         -11.0412   -1.3880  -99.5542 H         1 NAP301      0.0000 
     64 H         -12.6821    1.0581 -100.1240 H         1 NAP301      0.0000 
     65 H         -13.8062   -2.4336  -99.4056 H         1 NAP301      0.0000 
     66 H         -15.7016   -3.4376  -99.1666 H         1 NAP301      0.0000 
     67 H         -16.0972   -4.8973  -98.1979 H         1 NAP301      0.0000 
     68 H         -15.0845   -1.4188  -95.5323 H         1 NAP301      0.0000 
     69 H         -14.0869    0.7912  -95.8252 H         1 NAP301      0.0000 
     70 H         -13.0799    1.3823  -97.9187 H         1 NAP301      0.0000 
     71 H          -7.4360   -6.1313 -106.9398 H         1 NAP301      0.0000 
     72 H         -10.5714    0.9516 -102.7812 H         1 NAP301      0.0000 
     73 H          -9.9791    1.2230  -99.8504 H         1 NAP301      0.0000 
@<TRIPOS>BOND
     1    2    1 ar   
     2    3    1 ar   
     3    4    1 1    
     4   23    1 1    
     5    5    4 1    
     6    6    5 1    
     7   49    5 1    
     8   50    5 1    
     9    7    6 1    
    10    8    6 1    
    11   51    6 1    
    12   12    7 1    
    13    9    8 1    
    14   10    8 1    
    15   52    8 1    
    16   71    9 1    
    17   11   10 1    
    18   12   10 1    
    19   53   10 1    
    20   45   11 1    
    21   13   12 1    
    22   54   12 1    
    23   14   13 1    
    24   22   13 1    
    25   15   14 2    
    26   55   14 1    
    27   16   15 1    
    28   17   16 ar   
    29   22   16 ar   
    30   18   17 1    
    31   19   17 ar   
    32   56   18 1    
    33   57   18 1    
    34   20   19 ar   
    35   21   20 ar   
    36   58   20 1    
    37   22   21 ar   
    38   24   23 1    
    39   25   24 ar   
    40   26   24 ar   
    41   27   24 1    
    42   28   27 1    
    43   29   28 1    
    44   59   28 1    
    45   60   28 1    
    46   30   29 1    
    47   31   29 1    
    48   61   29 1    
    49   35   30 1    
    50   32   31 1    
    51   33   31 1    
    52   62   31 1    
    53   72   32 1    
    54   34   33 1    
    55   35   33 1    
    56   63   33 1    
    57   73   34 1    
    58   36   35 1    
    59   64   35 1    
    60   37   36 ar   
    61   44   36 ar   
    62   38   37 ar   
    63   65   37 1    
    64   39   38 1    
    65   42   38 ar   
    66   40   39 2    
    67   41   39 am   
    68   66   41 1    
    69   67   41 1    
    70   43   42 ar   
    71   68   42 1    
    72   44   43 ar   
    73   69   43 1    
    74   70   44 1    
    75   46   45 ar   
    76   47   45 ar   
    77   48   45 ar   
@<TRIPOS>SUBSTRUCTURE
     1 NAP301      1 GROUP   
@<TRIPOS>SET

