#    Name: 3ctq_337_1_INTS_M
#    Modification time : Mon Mar 24 22:19:22 2014

@<TRIPOS>MOLECULE
3ctq_337_1_INTS_M
  104     0     9     0     0
SMALL
NO_CHARGES


@<TRIPOS>ATOM
      1 O          34.8795   35.9145   12.8180 O.2       1 ALC1        0.0000 
      2 O          33.6700   36.7730   12.7730 O.2       7 ALL1        0.0000 
      3 O          36.0890   35.0560   12.8630 O.2       4 ALP1        0.0000 
      4 CA         29.0905   40.0105    9.1330 C.3       3 GLC5        0.0000 
      5 CA         29.7990   38.1090    9.3620 C.3       9 GLL5        0.0000 
      6 CA         28.3820   41.9120    8.9040 C.3       6 GLP5        0.0000 
      7 CA         30.7920   39.6450   10.6135 C.3       3 GLC5        0.0000 
      8 CA         31.7850   41.1810   11.8650 C.3       6 GLP5        0.0000 
      9 CA         28.8585   44.2225   23.5375 C.3       3 GLC5        0.0000 
     10 CA         31.0740   44.2880   23.4760 C.3       9 GLL5        0.0000 
     11 CA         26.6430   44.1570   23.5990 C.3       6 GLP5        0.0000 
     12 CA         33.1195   31.3820    7.7990 C.3       3 GLC5        0.0000 
     13 CA         33.0370   32.8220    9.1590 C.3       9 GLL5        0.0000 
     14 CA         33.2020   29.9420    6.4390 C.3       6 GLP5        0.0000 
     15 CA         34.5055   33.0385    8.7440 C.3       3 GLC5        0.0000 
     16 CA         35.9740   33.2550    8.3290 C.3       6 GLP5        0.0000 
     17 CA         31.8330   33.8580    8.1695 C.3       3 GLC5        0.0000 
     18 CA         30.6290   34.8940    7.1800 C.3       6 GLP5        0.0000 
     19 CA         38.9615   38.6570   13.0715 C.3       3 GLC5        0.0000 
     20 CA         37.1670   38.9430   14.0170 C.3       9 GLL5        0.0000 
     21 CA         40.7560   38.3710   12.1260 C.3       6 GLP5        0.0000 
     22 CA         38.4690   41.7410   17.1410 C.3       3 GLC5        0.0000 
     23 CA         38.3930   40.1900   15.8230 C.3       9 GLL5        0.0000 
     24 CA         38.5450   43.2920   18.4590 C.3       6 GLP5        0.0000 
     25 CA         39.3485   38.8660   16.2025 C.3       3 GLC5        0.0000 
     26 CA         40.3040   37.5420   16.5820 C.3       6 GLP5        0.0000 
     27 CA         31.6485   39.0325   11.7530 C.3       3 GLC5        0.0000 
     28 CA         31.5120   36.8840   11.6410 C.3       9 GLL5        0.0000 
     29 CA         34.8125   33.9970   12.3200 C.3       3 GLC5        0.0000 
     30 CA         33.4400   33.6560   14.0330 C.3       9 GLL5        0.0000 
     31 CA         36.1850   34.3380   10.6070 C.3       6 GLP5        0.0000 
     32 CA         31.6185   34.4800   14.2645 C.3       3 GLC5        0.0000 
     33 CA         29.7970   35.3040   14.4960 C.3       6 GLP5        0.0000 
     34 CA         32.7050   32.3460   15.3945 C.3       3 GLC5        0.0000 
     35 CA         31.9700   31.0360   16.7560 C.3       6 GLP5        0.0000 
     36 CA         30.2090   39.6055   11.7400 C.3       3 GLC5        0.0000 
     37 CA         28.6330   38.0300   11.6150 C.3       9 GLL5        0.0000 
     38 CA         26.9980   38.9625   12.3210 C.3       3 GLC5        0.0000 
     39 CA         25.3630   39.8950   13.0270 C.3       6 GLP5        0.0000 
     40 CA         28.9365   38.9305   13.2770 C.3       3 GLC5        0.0000 
     41 CA         29.2400   39.8310   14.9390 C.3       6 GLP5        0.0000 
     42 CA         35.6405   39.1775   11.6670 C.3       3 GLC5        0.0000 
     43 CA         36.0110   38.3570   13.4530 C.3       9 GLL5        0.0000 
     44 CA         35.2700   39.9980    9.8810 C.3       6 GLP5        0.0000 
     45 CA         37.7095   37.3860   12.4125 C.3       3 GLC5        0.0000 
     46 CA         39.4080   36.4150   11.3720 C.3       6 GLP5        0.0000 
     47 CA         36.5980   40.3585   13.2740 C.3       3 GLC5        0.0000 
     48 CA         37.1850   42.3600   13.0950 C.3       6 GLP5        0.0000 
     49 N          31.2355   37.9280   14.6835 N.am      2 SEC2        0.0000 
     50 N          32.4120   38.2610   13.9730 N.am      8 SEL2        0.0000 
     51 N          30.0590   37.5950   15.3940 N.am      5 SEP2        0.0000 
     52 O          30.2125   32.8790   12.6985 O.2       1 ALC1        0.0000 
     53 O          31.3480   32.6900   11.4250 O.2       7 ALL1        0.0000 
     54 O          29.0770   33.0680   13.9720 O.2       4 ALP1        0.0000 
     55 CA         33.3350   40.4920   16.1315 C.3       3 GLC5        0.0000 
     56 CA         34.7540   39.0450   15.4340 C.3       9 GLL5        0.0000 
     57 CA         31.9160   41.9390   16.8290 C.3       6 GLP5        0.0000 
     58 CA         37.1675   37.8400   16.0350 C.3       3 GLC5        0.0000 
     59 CA         35.8940   39.6370   16.0160 C.3       9 GLL5        0.0000 
     60 CA         38.4410   36.0430   16.0540 C.3       6 GLP5        0.0000 
     61 CA         36.5395   40.9985   14.5555 C.3       3 GLC5        0.0000 
     62 N          34.7575   45.2430   19.4865 N.am      2 SEC2        0.0000 
     63 N          35.1190   43.9010   19.4330 N.am      8 SEL2        0.0000 
     64 N          34.3960   46.5850   19.5400 N.am      5 SEP2        0.0000 
     65 CA         34.7990   41.8880   23.1155 C.3       3 GLC5        0.0000 
     66 CA         34.5530   43.2660   22.1620 C.3       9 GLL5        0.0000 
     67 CA         35.0450   40.5100   24.0690 C.3       6 GLP5        0.0000 
     68 CA         36.1130   44.3715   21.8100 C.3       3 GLC5        0.0000 
     69 CA         37.6730   45.4770   21.4580 C.3       6 GLP5        0.0000 
     70 CA         30.0813   35.4275   12.7475 C.3       3 GLC5        0.0000 
     71 CA         30.3580   34.8300   10.9710 C.3       9 GLL5        0.0000 
     72 CA         34.3773   34.8765   11.3792 C.3       3 GLC5        0.0000 
     73 CA         32.5490   34.7030   12.1160 C.3       9 GLL5        0.0000 
     74 CA         30.8910   34.8420   13.1530 C.3       3 GLC5        0.0000 
     75 CA         30.7611   34.8490    9.2157 C.3       3 GLC5        0.0000 
     76 CA         31.4210   34.0570   11.5040 C.3       9 GLL5        0.0000 
     77 CA         31.7945   44.1045   20.7040 C.3       3 GLC5        0.0000 
     78 CA         32.1650   42.4930   21.5960 C.3       9 GLL5        0.0000 
     79 CA         32.1260   45.6890   19.7200 C.3       6 GLP5        0.0000 
     80 CA         29.3660   36.4535   12.7685 C.3       3 GLC5        0.0000 
     81 CA         29.2370   37.1760   10.4670 C.3       9 GLL5        0.0000 
     82 CA         28.6855   42.8340   23.0800 C.3       3 GLC5        0.0000 
     83 CA         30.7610   42.5470   21.7800 C.3       9 GLL5        0.0000 
     84 CA         26.8830   42.6710   23.9100 C.3       6 GLP5        0.0000 
     85 CA         29.6060   44.1580   20.7255 C.3       3 GLC5        0.0000 
     86 CA         30.2150   43.4470   22.7200 C.3       9 GLL5        0.0000 
     87 CA         28.7240   45.3190   19.2010 C.3       6 GLP5        0.0000 
     88 CA         31.3852   44.7782   21.4090 C.3       3 GLC5        0.0000 
     89 CA         29.7978   45.4267   23.8385 C.3       3 GLC5        0.0000 
     90 CA         28.9510   46.9860   24.5790 C.3       6 GLP5        0.0000 
     91 CA         37.4766   41.0433   14.1665 C.3       3 GLC5        0.0000 
     92 CA         30.9240   35.9048   13.2050 C.3       3 GLC5        0.0000 
     93 CA         33.3094   36.8833   10.6461 C.3       3 GLC5        0.0000 
     94 CA         34.5780   37.6170    9.3960 C.3       6 GLP5        0.0000 
     95 CA         29.7085   35.9519    8.5281 C.3       3 GLC5        0.0000 
     96 CA         28.5710   37.7669    8.0816 C.3       3 GLC5        0.0000 
     97 CA         28.0580   36.3770    9.8380 C.3       9 GLL5        0.0000 
     98 CA         28.3540   38.5240    6.2870 C.3       6 GLP5        0.0000 
     99 CA         37.5091   37.4265   15.0535 C.3       3 GLC5        0.0000 
    100 CA         36.9873   42.4252   18.3637 C.3       3 GLC5        0.0000 
    101 CA         35.4500   41.5410   17.5850 C.3       9 GLL5        0.0000 
    102 CA         33.6728   41.7488   17.5488 C.3       3 GLC5        0.0000 
    103 CA         35.4090   41.5760   18.9520 C.3       9 GLL5        0.0000 
    104 CA         32.8918   44.6077   21.1036 C.3       3 GLC5        0.0000 
@<TRIPOS>BOND
@<TRIPOS>SUBSTRUCTURE
     1 ALC1        1 GROUP        1 X    ALC  0     ROOT ALC X 1
     2 SEC2       49 GROUP        1 X    SEC  0     **** SEC X 2
     3 GLC5        4 GROUP        1 X    GLC  0     **** GLC X 6
     4 ALP1        3 GROUP        1 Y    ALP  0     ROOT ALP Y 8
     5 SEP2       51 GROUP        1 Y    SEP  0     **** SEP Y 9
     6 GLP5        6 GROUP        1 Y    GLP  0     **** GLP Y 13
     7 ALL1        2 GROUP        1 Z    ALL  0     ROOT ALL Z 15
     8 SEL2       50 GROUP        1 Z    SEL  0     **** SEL Z 16
     9 GLL5        5 GROUP        1 Z    GLL  0     **** GLL Z 20
@<TRIPOS>SET

