#    Name: 3ctq_337_1_ligand
#    Modification time : Mon Mar 24 22:19:22 2014

@<TRIPOS>MOLECULE
3ctq_337_1_ligand
   76    79     1     0     0
SMALL
NO_CHARGES


@<TRIPOS>ATOM
      1 N1         33.6700   36.7730   12.7730 N.am      1 3371        0.0000 
      2 C4         30.3730   36.2720   11.0270 C.ar      1 3371        0.0000 
      3 C5         32.5490   34.7030   12.1160 C.ar      1 3371        0.0000 
      4 C6         31.4210   34.0570   11.5040 C.ar      1 3371        0.0000 
      5 C7         30.3580   34.8300   10.9710 C.ar      1 3371        0.0000 
      6 C8         32.1650   42.4930   21.5960 C.ar      1 3371        0.0000 
      7 C10        29.2370   37.1760   10.4670 C.3       1 3371        0.0000 
      8 C13        29.7990   38.1090    9.3620 C.3       1 3371        0.0000 
      9 C15        30.7610   42.5470   21.7800 C.ar      1 3371        0.0000 
     10 C17        31.0740   44.2880   23.4760 C.ar      1 3371        0.0000 
     11 C20        33.0370   32.8220    9.1590 C.3       1 3371        0.0000 
     12 C22        37.1670   38.9430   14.0170 C.ar      1 3371        0.0000 
     13 C24        38.3930   40.1900   15.8230 C.3       1 3371        0.0000 
     14 C26        34.7830   38.4090   14.1740 C.ar      1 3371        0.0000 
     15 C1         33.0430   43.3440   22.3380 C.ar      1 3371        0.0000 
     16 C2         32.5900   36.1270   12.1870 C.ar      1 3371        0.0000 
     17 C3         31.5120   36.8840   11.6410 C.ar      1 3371        0.0000 
     18 C9         33.4400   33.6560   14.0330 C.3       1 3371        0.0000 
     19 C11        28.6330   38.0300   11.6150 C.3       1 3371        0.0000 
     20 C12        28.0580   36.3770    9.8380 C.3       1 3371        0.0000 
     21 C14        33.5280   37.8310   13.6580 C.2       1 3371        0.0000 
     22 C16        30.2150   43.4470   22.7200 C.ar      1 3371        0.0000 
     23 C18        32.4810   44.2300   23.2870 C.ar      1 3371        0.0000 
     24 C23        37.1200   39.5830   15.2890 C.ar      1 3371        0.0000 
     25 C25        36.0110   38.3570   13.4530 C.ar      1 3371        0.0000 
     26 O8         33.5760   33.9010   12.6300 O.3       1 3371        0.0000 
     27 O15        32.4120   38.2610   13.9730 O.2       1 3371        0.0000 
     28 N16        31.3480   32.6900   11.4250 N.pl3     1 3371        0.0000 
     29 S17        32.3250   31.8110   10.4300 S.o2      1 3371        0.0000 
     30 O18        31.4940   30.8300    9.8180 O.2       1 3371        0.0000 
     31 O19        33.3620   31.3130   11.3040 O.2       1 3371        0.0000 
     32 C47        34.7540   39.0450   15.4340 C.ar      1 3371        0.0000 
     33 C48        35.8940   39.6370   16.0160 C.ar      1 3371        0.0000 
     34 N49        35.7300   40.2370   17.2790 N.pl3     1 3371        0.0000 
     35 C50        35.4500   41.5410   17.5850 C.2       1 3371        0.0000 
     36 N51        35.8730   39.4210   18.3880 N.2       1 3371        0.0000 
     37 N52        35.6600   40.3230   19.3880 N.2       1 3371        0.0000 
     38 C53        35.4090   41.5760   18.9520 C.2       1 3371        0.0000 
     39 C61        35.1400   42.7320   19.7980 C.2       1 3371        0.0000 
     40 O62        35.1190   43.9010   19.4330 O.2       1 3371        0.0000 
     41 N75        34.8850   42.3490   21.0700 N.am      1 3371        0.0000 
     42 C76        34.5530   43.2660   22.1620 C.3       1 3371        0.0000 
     43 H          34.6391   36.4448   12.5346 H         1 3371        0.0000 
     44 H          29.5559   34.3637   10.5338 H         1 3371        0.0000 
     45 H          32.5646   41.8333   20.9195 H         1 3371        0.0000 
     46 H          30.1522   41.9393   21.2363 H         1 3371        0.0000 
     47 H          30.6796   44.9365   24.1576 H         1 3371        0.0000 
     48 H          38.0563   38.9095   13.5061 H         1 3371        0.0000 
     49 H          31.5526   37.9165   11.6894 H         1 3371        0.0000 
     50 H          29.2066   43.4963   22.8589 H         1 3371        0.0000 
     51 H          33.0905   44.8350   23.8431 H         1 3371        0.0000 
     52 H          36.0496   37.9043   12.5476 H         1 3371        0.0000 
     53 H          30.7131   32.0971   11.9470 H         1 3371        0.0000 
     54 H          33.8531   39.0781   15.9548 H         1 3371        0.0000 
     55 H          35.3164   42.2505   16.9914 H         1 3371        0.0000 
     56 H          34.9164   41.3283   21.3388 H         1 3371        0.0000 
     57 H          34.9938   42.9248   23.1028 H         1 3371        0.0000 
     58 H          34.9293   44.2712   21.9525 H         1 3371        0.0000 
     59 H          30.5234   38.7035    9.7109 H         1 3371        0.0000 
     60 H          30.1870   37.5905    8.6000 H         1 3371        0.0000 
     61 H          29.0902   38.7030    8.9816 H         1 3371        0.0000 
     62 H          33.5938   33.5602    9.5399 H         1 3371        0.0000 
     63 H          33.6286   32.2925    8.5510 H         1 3371        0.0000 
     64 H          32.3360   33.2486    8.5875 H         1 3371        0.0000 
     65 H          39.1143   39.5057   15.9302 H         1 3371        0.0000 
     66 H          38.7499   40.8992   15.2150 H         1 3371        0.0000 
     67 H          38.2554   40.6136   16.7183 H         1 3371        0.0000 
     68 H          34.1824   33.0854   14.3841 H         1 3371        0.0000 
     69 H          33.4483   34.5053   14.5608 H         1 3371        0.0000 
     70 H          32.5833   33.1865   14.2467 H         1 3371        0.0000 
     71 H          29.3196   38.6201   12.0397 H         1 3371        0.0000 
     72 H          27.8975   38.6238   11.2887 H         1 3371        0.0000 
     73 H          28.2486   37.4587   12.3402 H         1 3371        0.0000 
     74 H          28.3611   35.8077    9.0738 H         1 3371        0.0000 
     75 H          27.6251   35.7685   10.5031 H         1 3371        0.0000 
     76 H          27.3441   36.9830    9.4870 H         1 3371        0.0000 
@<TRIPOS>BOND
     1   16    1 1    
     2   21    1 am   
     3   43    1 1    
     4    5    2 ar   
     5    7    2 1    
     6   17    2 ar   
     7    4    3 ar   
     8   16    3 ar   
     9   26    3 1    
    10    5    4 ar   
    11   28    4 1    
    12   44    5 1    
    13    9    6 ar   
    14   15    6 ar   
    15   45    6 1    
    16    8    7 1    
    17   19    7 1    
    18   20    7 1    
    19   59    8 1    
    20   60    8 1    
    21   61    8 1    
    22   22    9 ar   
    23   46    9 1    
    24   22   10 ar   
    25   23   10 ar   
    26   47   10 1    
    27   29   11 1    
    28   62   11 1    
    29   63   11 1    
    30   64   11 1    
    31   24   12 ar   
    32   25   12 ar   
    33   48   12 1    
    34   24   13 1    
    35   65   13 1    
    36   66   13 1    
    37   67   13 1    
    38   21   14 1    
    39   25   14 ar   
    40   32   14 ar   
    41   23   15 ar   
    42   42   15 1    
    43   17   16 ar   
    44   49   17 1    
    45   26   18 1    
    46   68   18 1    
    47   69   18 1    
    48   70   18 1    
    49   71   19 1    
    50   72   19 1    
    51   73   19 1    
    52   74   20 1    
    53   75   20 1    
    54   76   20 1    
    55   27   21 2    
    56   50   22 1    
    57   51   23 1    
    58   33   24 ar   
    59   52   25 1    
    60   29   28 1    
    61   53   28 1    
    62   30   29 2    
    63   31   29 2    
    64   33   32 ar   
    65   54   32 1    
    66   34   33 1    
    67   35   34 1    
    68   36   34 1    
    69   38   35 2    
    70   55   35 1    
    71   37   36 2    
    72   38   37 1    
    73   39   38 1    
    74   40   39 2    
    75   41   39 am   
    76   42   41 1    
    77   56   41 1    
    78   57   42 1    
    79   58   42 1    
@<TRIPOS>SUBSTRUCTURE
     1 3371        1 GROUP   
@<TRIPOS>SET

