#    Name: 1QZR_1_CAVITY_N1_6.mol2
#    Modification time : Tue Mar 11 04:54:30 2014

@<TRIPOS>MOLECULE
1QZR_1_CAVITY_N1_6.mol2
   41     0     5     0     0
SMALL
NO_CHARGES


@<TRIPOS>ATOM
      1 CZ         26.8477   34.4619   35.1401 C.ar      3 PHE5        0.0000 
      2 OG         25.7209   34.2599   33.3542 O.2       1 SER1        0.0000 
      3 CZ         26.7431   33.4223   34.0638 C.ar      3 PHE5        0.0000 
      4 CZ         25.6162   33.2203   32.2779 C.ar      3 PHE5        0.0000 
      5 CZ         26.6384   32.3827   32.9876 C.ar      3 PHE5        0.0000 
      6 OG         27.6606   31.5451   33.6973 O.2       1 SER1        0.0000 
      7 CZ         26.5337   31.3431   31.9114 C.ar      3 PHE5        0.0000 
      8 OG         27.5559   30.5055   32.6211 O.2       1 SER1        0.0000 
      9 OG         28.5781   29.6679   33.3307 O.2       1 SER1        0.0000 
     10 CZ         26.9184   35.9834   33.6635 C.ar      3 PHE5        0.0000 
     11 CZ         27.9405   35.1458   34.3732 C.ar      3 PHE5        0.0000 
     12 OG         25.7915   35.7813   31.8776 O.2       1 SER1        0.0000 
     13 OG         26.8137   34.9438   32.5873 O.2       1 SER1        0.0000 
     14 CZ         27.8359   34.1062   33.2970 C.ar      3 PHE5        0.0000 
     15 CZ         28.8580   33.2686   34.0066 C.ar      3 PHE5        0.0000 
     16 CZ         26.7090   33.9042   31.5111 C.ar      3 PHE5        0.0000 
     17 DU         27.7312   33.0666   32.2207 H         5 CUB7        0.0000 
     18 OG         28.7534   32.2290   32.9304 O.2       1 SER1        0.0000 
     19 CZ         27.6266   32.0270   31.1445 C.ar      3 PHE5        0.0000 
     20 OG         28.6487   31.1894   31.8542 O.2       1 SER1        0.0000 
     21 OG         29.6709   30.3518   32.5639 O.2       1 SER1        0.0000 
     22 CZ         27.5219   30.9874   30.0683 C.ar      3 PHE5        0.0000 
     23 CZ         28.5441   30.1498   30.7780 C.ar      3 PHE5        0.0000 
     24 CZ         29.5662   29.3122   31.4876 C.ar      3 PHE5        0.0000 
     25 CA         28.0112   36.6672   32.8966 C.3       4 GLY6        0.0000 
     26 CA         29.0333   35.8297   33.6063 C.3       4 GLY6        0.0000 
     27 OG         27.9065   35.6276   31.8204 O.2       1 SER1        0.0000 
     28 N          28.9287   34.7901   32.5301 N.2       2 ALA2        0.0000 
     29 N          29.9508   33.9525   33.2398 N.2       2 ALA2        0.0000 
     30 OG         27.8018   34.5880   30.7442 O.2       1 SER1        0.0000 
     31 DU         28.8240   33.7505   31.4539 H         5 CUB7        0.0000 
     32 OG         29.8462   32.9129   32.1635 O.2       1 SER1        0.0000 
     33 N          27.6972   33.5484   29.6680 N.2       2 ALA2        0.0000 
     34 N          28.7194   32.7108   30.3776 N.2       2 ALA2        0.0000 
     35 OG         29.7415   31.8733   31.0873 O.2       1 SER1        0.0000 
     36 CA         28.6147   31.6712   29.3014 C.3       4 GLY6        0.0000 
     37 CA         29.6369   30.8337   30.0111 C.3       4 GLY6        0.0000 
     38 N          30.0215   35.4739   31.7632 N.2       2 ALA2        0.0000 
     39 N          29.9168   34.4343   30.6870 N.2       2 ALA2        0.0000 
     40 N          29.8122   33.3947   29.6108 N.2       2 ALA2        0.0000 
     41 CA         30.8343   32.5571   30.3204 C.3       4 GLY6        0.0000 
@<TRIPOS>BOND
@<TRIPOS>SUBSTRUCTURE
     1 SER1        2 GROUP   
     2 ALA2       28 GROUP   
     3 PHE5        1 GROUP   
     4 GLY6       25 GROUP   
     5 CUB7       17 GROUP   
@<TRIPOS>SET

