#    Name: 1qzr_CDX_1_INTS_M
#    Modification time : Tue Mar 25 00:12:26 2014

@<TRIPOS>MOLECULE
1qzr_CDX_1_INTS_M
   34     0     6     0     0
SMALL
NO_CHARGES


@<TRIPOS>ATOM
      1 O          29.6715   28.7595   29.2115 O.2       1 ALC1        0.0000 
      2 O          29.1050   29.3730   30.2920 O.2       5 ALL1        0.0000 
      3 O          30.2380   28.1460   28.1310 O.2       3 ALP1        0.0000 
      4 CA         29.0315   30.5820   34.3620 C.3       2 GLC5        0.0000 
      5 CA         28.9870   30.2720   32.5730 C.3       6 GLL5        0.0000 
      6 CA         29.0760   30.8920   36.1510 C.3       4 GLP5        0.0000 
      7 CA         27.8245   28.7895   32.3020 C.3       2 GLC5        0.0000 
      8 CA         26.6620   27.3070   32.0310 C.3       4 GLP5        0.0000 
      9 CA         25.7150   31.5550   30.5720 C.3       2 GLC5        0.0000 
     10 CA         27.2420   30.7390   31.0550 C.3       6 GLL5        0.0000 
     11 CA         24.1880   32.3710   30.0890 C.3       4 GLP5        0.0000 
     12 CA         26.3530   29.3665   31.6100 C.3       2 GLC5        0.0000 
     13 CA         25.4640   27.9940   32.1650 C.3       4 GLP5        0.0000 
     14 CA         28.1175   32.2515   34.5330 C.3       2 GLC5        0.0000 
     15 CA         27.7070   32.3490   32.7740 C.3       6 GLL5        0.0000 
     16 CA         28.5280   32.1540   36.2920 C.3       4 GLP5        0.0000 
     17 CA         28.0520   35.3000   29.7540 C.3       2 GLC5        0.0000 
     18 CA         28.0150   33.7400   30.6750 C.3       6 GLL5        0.0000 
     19 CA         28.0890   36.8600   28.8330 C.3       4 GLP5        0.0000 
     20 CA         24.9140   35.8090   34.0305 C.3       2 GLC5        0.0000 
     21 CA         25.8990   35.4910   32.4170 C.3       6 GLL5        0.0000 
     22 CA         23.9290   36.1270   35.6440 C.3       4 GLP5        0.0000 
     23 CA         26.9940   36.1755   30.6250 C.3       2 GLC5        0.0000 
     24 CA         24.7255   34.5315   31.3725 C.3       2 GLC5        0.0000 
     25 CA         23.5520   33.5720   30.3280 C.3       4 GLP5        0.0000 
     26 O          27.3435   38.2730   34.3545 O.2       1 ALC1        0.0000 
     27 O          26.8930   37.0190   34.0380 O.2       5 ALL1        0.0000 
     28 O          27.7940   39.5270   34.6710 O.2       3 ALP1        0.0000 
     29 CA         27.9020   33.3815   35.2040 C.3       2 GLC5        0.0000 
     30 CA         27.2760   34.6090   34.1160 C.3       6 GLL5        0.0000 
     31 CA         25.7040   34.7415   35.1550 C.3       2 GLC5        0.0000 
     32 CA         24.1320   34.8740   36.1940 C.3       4 GLP5        0.0000 
     33 CA         25.9571   32.8529   30.8009 C.3       2 GLC5        0.0000 
     34 CA         27.1680   33.5100   31.9270 C.3       6 GLL5        0.0000 
@<TRIPOS>BOND
@<TRIPOS>SUBSTRUCTURE
     1 ALC1        1 GROUP        1 X    ALC  0     ROOT ALC X 1
     2 GLC5        4 GROUP        1 X    GLC  0     **** GLC X 6
     3 ALP1        3 GROUP        1 Y    ALP  0     ROOT ALP Y 8
     4 GLP5        6 GROUP        1 Y    GLP  0     **** GLP Y 13
     5 ALL1        2 GROUP        1 Z    ALL  0     ROOT ALL Z 15
     6 GLL5        5 GROUP        1 Z    GLL  0     **** GLL Z 20
@<TRIPOS>SET

