#    Name: 1qzr_CDX_1_ligand
#    Modification time : Tue Mar 25 00:12:26 2014

@<TRIPOS>MOLECULE
1qzr_CDX_1_ligand
   36    37     1     0     0
SMALL
NO_CHARGES


@<TRIPOS>ATOM
      1 OAO        27.4120   29.8590   28.8810 O.2       1 CDX901      0.0000 
      2 CAP        27.9330   29.9490   29.9780 C.2       1 CDX901      0.0000 
      3 NAI        29.1050   29.3730   30.2920 N.am      1 CDX901      0.0000 
      4 CAC        29.6890   29.4600   31.5010 C.2       1 CDX901      0.0000 
      5 OAB        30.7550   28.9260   31.7470 O.2       1 CDX901      0.0000 
      6 CAD        28.9870   30.2720   32.5730 C.3       1 CDX901      0.0000 
      7 CAQ        27.2420   30.7390   31.0550 C.3       1 CDX901      0.0000 
      8 NAJ        28.2870   31.3510   31.8730 N.3       1 CDX901      0.0000 
      9 CAK        27.7070   32.3490   32.7740 C.3       1 CDX901      0.0000 
     10 CAL        27.1680   33.5100   31.9270 C.3       1 CDX901      0.0000 
     11 CAE        28.0150   33.7400   30.6750 C.3       1 CDX901      0.0000 
     12 NAM        27.1470   34.7690   32.6670 N.4       1 CDX901      0.0000 
     13 CAR        25.8990   35.4910   32.4170 C.3       1 CDX901      0.0000 
     14 CAS        26.1060   36.8820   32.9600 C.2       1 CDX901      0.0000 
     15 OAT        25.5770   37.8230   32.4070 O.2       1 CDX901      0.0000 
     16 NAN        26.8930   37.0190   34.0380 N.am      1 CDX901      0.0000 
     17 CAG        27.4930   35.9960   34.6690 C.2       1 CDX901      0.0000 
     18 CAF        27.2760   34.6090   34.1160 C.3       1 CDX901      0.0000 
     19 OAH        28.2020   36.1480   35.6440 O.2       1 CDX901      0.0000 
     20 H          29.6076   28.8081   29.5321 H         1 CDX901      0.0000 
     21 H          29.7250   30.6657   33.2531 H         1 CDX901      0.0000 
     22 H          28.2925   29.6346   33.0961 H         1 CDX901      0.0000 
     23 H          26.6294   30.0709   31.6481 H         1 CDX901      0.0000 
     24 H          26.6185   31.4963   30.5955 H         1 CDX901      0.0000 
     25 H          28.4541   32.7426   33.4556 H         1 CDX901      0.0000 
     26 H          26.8829   31.9310   33.3430 H         1 CDX901      0.0000 
     27 H          26.1625   33.2624   31.5989 H         1 CDX901      0.0000 
     28 H          27.9735   35.4089   32.3159 H         1 CDX901      0.0000 
     29 H          25.0743   35.0275   32.9357 H         1 CDX901      0.0000 
     30 H          25.6927   35.5507   31.3597 H         1 CDX901      0.0000 
     31 H          27.0538   38.0081   34.4209 H         1 CDX901      0.0000 
     32 H          28.1262   33.9932   34.3625 H         1 CDX901      0.0000 
     33 H          26.3749   34.1961   34.5408 H         1 CDX901      0.0000 
     34 H          28.9635   33.9596   30.9034 H         1 CDX901      0.0000 
     35 H          28.0349   32.9318   30.0864 H         1 CDX901      0.0000 
     36 H          27.6639   34.4962   30.1228 H         1 CDX901      0.0000 
@<TRIPOS>BOND
     1    2    1 2    
     2    3    2 am   
     3    7    2 1    
     4    4    3 am   
     5   20    3 1    
     6    5    4 2    
     7    6    4 1    
     8    8    6 1    
     9   21    6 1    
    10   22    6 1    
    11    8    7 1    
    12   23    7 1    
    13   24    7 1    
    14    9    8 1    
    15   10    9 1    
    16   25    9 1    
    17   26    9 1    
    18   11   10 1    
    19   12   10 1    
    20   27   10 1    
    21   34   11 1    
    22   35   11 1    
    23   36   11 1    
    24   13   12 1    
    25   18   12 1    
    26   28   12 1    
    27   14   13 1    
    28   29   13 1    
    29   30   13 1    
    30   15   14 2    
    31   16   14 am   
    32   17   16 am   
    33   31   16 1    
    34   18   17 1    
    35   19   17 2    
    36   32   18 1    
    37   33   18 1    
@<TRIPOS>SUBSTRUCTURE
     1 CDX901      1 GROUP   
@<TRIPOS>SET

