#    Name: 1cw2_HSP_1_INTS_M
#    Modification time : Mon Mar 24 21:01:46 2014

@<TRIPOS>MOLECULE
1cw2_HSP_1_INTS_M
   55     0     9     0     0
SMALL
NO_CHARGES


@<TRIPOS>ATOM
      1 N          46.6300   31.1160   10.8725 N.am      2 SEC2        0.0000 
      2 N          46.9560   30.2100    9.7290 N.am      8 SEL2        0.0000 
      3 N          46.3040   32.0220   12.0160 N.am      5 SEP2        0.0000 
      4 N          49.8560   28.7630    8.1155 N.am      2 SEC2        0.0000 
      5 N          48.4690   28.7120    8.5800 N.am      8 SEL2        0.0000 
      6 N          51.2430   28.8140    7.6510 N.am      5 SEP2        0.0000 
      7 N          47.4845   28.1215    7.7840 N.am      2 SEC2        0.0000 
      8 N          46.5000   27.5310    6.9880 N.am      5 SEP2        0.0000 
      9 CA         51.6240   26.3895   17.0945 C.3       3 GLC5        0.0000 
     10 CA         51.4640   26.2280   15.3170 C.3       9 GLL5        0.0000 
     11 CA         51.7840   26.5510   18.8720 C.3       6 GLP5        0.0000 
     12 CA         52.9435   22.9760   16.1850 C.3       3 GLC5        0.0000 
     13 CA         51.8110   23.8760   14.7890 C.3       9 GLL5        0.0000 
     14 CA         54.0760   22.0760   17.5810 C.3       6 GLP5        0.0000 
     15 CA         49.7815   21.6900   15.2925 C.3       3 GLC5        0.0000 
     16 CA         50.4920   23.5920   15.1780 C.3       9 GLL5        0.0000 
     17 CA         49.0710   19.7880   15.4070 C.3       6 GLP5        0.0000 
     18 O          52.9150   27.7555   14.4795 O.2       1 ALC1        0.0000 
     19 O          51.9530   27.5050   15.3800 O.2       7 ALL1        0.0000 
     20 O          53.8770   28.0060   13.5790 O.2       4 ALP1        0.0000 
     21 CA         49.0715   29.5720   16.2510 C.3       3 GLC5        0.0000 
     22 CA         49.0490   28.4950   14.9860 C.3       9 GLL5        0.0000 
     23 CA         49.0940   30.6490   17.5160 C.3       6 GLP5        0.0000 
     24 CA         50.5015   29.6860   13.9825 C.3       3 GLC5        0.0000 
     25 CA         51.9540   30.8770   12.9790 C.3       6 GLP5        0.0000 
     26 CA         48.8880   25.9825   12.6920 C.3       3 GLC5        0.0000 
     27 CA         48.6040   27.8780   13.6700 C.3       9 GLL5        0.0000 
     28 CA         49.1720   24.0870   11.7140 C.3       6 GLP5        0.0000 
     29 CA         46.4635   28.2340   14.2470 C.3       3 GLC5        0.0000 
     30 CA         44.3230   28.5900   14.8240 C.3       6 GLP5        0.0000 
     31 CA         50.2745   29.9000   12.7700 C.3       3 GLC5        0.0000 
     32 CA         48.5950   28.9230   12.5610 C.3       9 GLL5        0.0000 
     33 CA         48.0520   30.7615   12.5800 C.3       3 GLC5        0.0000 
     34 CA         47.5090   32.6000   12.5990 C.3       6 GLP5        0.0000 
     35 CA         47.3355   27.0845    9.9945 C.3       3 GLC5        0.0000 
     36 CA         48.1530   28.2930   11.2330 C.3       9 GLL5        0.0000 
     37 CA         46.5180   25.8760    8.7560 C.3       6 GLP5        0.0000 
     38 N          49.1190   31.7425   10.3445 N.am      2 SEC2        0.0000 
     39 N          49.3350   30.4200   10.0340 N.am      8 SEL2        0.0000 
     40 N          48.9030   33.0650   10.6550 N.am      5 SEP2        0.0000 
     41 N          50.2000   31.1965    9.5750 N.am      2 SEC2        0.0000 
     42 N          51.0650   31.9730    9.1160 N.am      5 SEP2        0.0000 
     43 CA         51.2180   26.4567   13.6367 C.3       3 GLC5        0.0000 
     44 CA         50.1260   25.9330   15.7100 C.3       9 GLL5        0.0000 
     45 CA         51.6410   26.8330   11.7600 C.3       6 GLP5        0.0000 
     46 CA         53.7005   23.6753   14.2398 C.3       3 GLC5        0.0000 
     47 CA         52.2950   25.1950   14.8580 C.3       9 GLL5        0.0000 
     48 CA         55.3480   22.8150   13.6560 C.3       6 GLP5        0.0000 
     49 CA         51.8470   25.6842   13.2918 C.3       3 GLC5        0.0000 
     50 CA         49.3364   23.6296   16.9443 C.3       3 GLC5        0.0000 
     51 CA         48.4830   22.8250   18.4620 C.3       6 GLP5        0.0000 
     52 CA         50.2338   27.5098   13.0440 C.3       3 GLC5        0.0000 
     53 CA         50.0075   27.7205   11.8285 C.3       3 GLC5        0.0000 
     54 CA         51.2592   24.7829   16.9825 C.3       3 GLC5        0.0000 
     55 CA         51.3970   25.0810   18.8400 C.3       6 GLP5        0.0000 
@<TRIPOS>BOND
@<TRIPOS>SUBSTRUCTURE
     1 ALC1       18 GROUP        1 X    ALC  0     ROOT ALC X 1
     2 SEC2        1 GROUP        1 X    SEC  0     **** SEC X 2
     3 GLC5        9 GROUP        1 X    GLC  0     **** GLC X 6
     4 ALP1       20 GROUP        1 Y    ALP  0     ROOT ALP Y 8
     5 SEP2        3 GROUP        1 Y    SEP  0     **** SEP Y 9
     6 GLP5       11 GROUP        1 Y    GLP  0     **** GLP Y 13
     7 ALL1       19 GROUP        1 Z    ALL  0     ROOT ALL Z 15
     8 SEL2        2 GROUP        1 Z    SEL  0     **** SEL Z 16
     9 GLL5       10 GROUP        1 Z    GLL  0     **** GLL Z 20
@<TRIPOS>SET

