#    Name: 1cw2_HSP_1_ligand
#    Modification time : Mon Mar 24 21:01:46 2014

@<TRIPOS>MOLECULE
1cw2_HSP_1_ligand
   30    30     1     0     0
SMALL
NO_CHARGES


@<TRIPOS>ATOM
      1 O1         46.9560   30.2100    9.7290 O.co2     1 HSP270      0.0000 
      2 O2         48.4690   28.7120    8.5800 O.co2     1 HSP270      0.0000 
      3 O3         47.7130   26.3180   16.1920 O.2       1 HSP270      0.0000 
      4 C1         49.6490   24.6200   15.6400 C.ar      1 HSP270      0.0000 
      5 C2         50.1260   25.9330   15.7100 C.ar      1 HSP270      0.0000 
      6 C3         51.4640   26.2280   15.3170 C.ar      1 HSP270      0.0000 
      7 C4         52.2950   25.1950   14.8580 C.ar      1 HSP270      0.0000 
      8 C5         51.8110   23.8760   14.7890 C.ar      1 HSP270      0.0000 
      9 C6         50.4920   23.5920   15.1780 C.ar      1 HSP270      0.0000 
     10 O4         51.9530   27.5050   15.3800 O.3       1 HSP270      0.0000 
     11 S1         49.0580   27.2410   16.3030 S.o       1 HSP270      0.0000 
     12 C7         49.0490   28.4950   14.9860 C.3       1 HSP270      0.0000 
     13 C8         48.6040   27.8780   13.6700 C.3       1 HSP270      0.0000 
     14 C9         48.5950   28.9230   12.5610 C.3       1 HSP270      0.0000 
     15 C10        48.1530   28.2930   11.2330 C.3       1 HSP270      0.0000 
     16 P1         48.2270   29.3870    9.9100 P.3       1 HSP270      0.0000 
     17 O5         49.3350   30.4200   10.0340 O.co2     1 HSP270      0.0000 
     18 H          48.6900   24.4033   15.9231 H         1 HSP270      0.0000 
     19 H          53.2574   25.4002   14.5719 H         1 HSP270      0.0000 
     20 H          52.4203   23.1250   14.4555 H         1 HSP270      0.0000 
     21 H          50.1394   22.6300   15.1257 H         1 HSP270      0.0000 
     22 H          50.0590   28.8286   14.9867 H         1 HSP270      0.0000 
     23 H          48.3746   29.2214   15.3721 H         1 HSP270      0.0000 
     24 H          47.6016   27.4666   13.7839 H         1 HSP270      0.0000 
     25 H          49.2859   27.0726   13.3990 H         1 HSP270      0.0000 
     26 H          49.5936   29.3358   12.4431 H         1 HSP270      0.0000 
     27 H          47.9062   29.7225   12.8213 H         1 HSP270      0.0000 
     28 H          47.1226   27.9707   11.2639 H         1 HSP270      0.0000 
     29 H          48.7926   27.4717   10.9448 H         1 HSP270      0.0000 
     30 H          52.6548   27.5486   14.6690 H         1 HSP270      0.0000 
@<TRIPOS>BOND
     1   16    1 ar   
     2   16    2 ar   
     3   11    3 2    
     4    5    4 ar   
     5    9    4 ar   
     6   18    4 1    
     7    6    5 ar   
     8   11    5 1    
     9    7    6 ar   
    10   10    6 1    
    11    8    7 ar   
    12   19    7 1    
    13    9    8 ar   
    14   20    8 1    
    15   21    9 1    
    16   30   10 1    
    17   12   11 1    
    18   13   12 1    
    19   22   12 1    
    20   23   12 1    
    21   14   13 1    
    22   24   13 1    
    23   25   13 1    
    24   15   14 1    
    25   26   14 1    
    26   27   14 1    
    27   16   15 1    
    28   28   15 1    
    29   29   15 1    
    30   17   16 ar   
@<TRIPOS>SUBSTRUCTURE
     1 HSP270      1 GROUP   
@<TRIPOS>SET

