#    Name: 3r4n_FU5_2_INTS_M
#    Modification time : Tue Mar 25 10:31:16 2014

@<TRIPOS>MOLECULE
3r4n_FU5_2_INTS_M
   56     0     6     0     0
SMALL
NO_CHARGES


@<TRIPOS>ATOM
      1 CA          9.8390   39.0205   39.0510 C.3       2 GLC5        0.0000 
      2 CA         11.7070   39.7380   39.2680 C.3       6 GLL5        0.0000 
      3 CA          7.9710   38.3030   38.8340 C.3       4 GLP5        0.0000 
      4 CA         10.7425   41.4045   39.7090 C.3       2 GLC5        0.0000 
      5 CA          9.7780   43.0710   40.1500 C.3       4 GLP5        0.0000 
      6 CA         11.3295   39.2855   37.3020 C.3       2 GLC5        0.0000 
      7 CA         10.9520   38.8330   35.3360 C.3       4 GLP5        0.0000 
      8 CA         13.1330   39.3160   37.6330 C.3       2 GLC5        0.0000 
      9 CA         14.5590   38.8940   35.9980 C.3       4 GLP5        0.0000 
     10 CA         12.3255   41.2580   37.7330 C.3       2 GLC5        0.0000 
     11 CA         12.9440   42.7780   36.1980 C.3       4 GLP5        0.0000 
     12 CA         15.8600   37.7765   38.0930 C.3       2 GLC5        0.0000 
     13 CA         15.7680   37.2880   40.2580 C.3       6 GLL5        0.0000 
     14 CA         15.9520   38.2650   35.9280 C.3       4 GLP5        0.0000 
     15 CA         15.8985   40.9490   41.1040 C.3       2 GLC5        0.0000 
     16 CA         15.9390   39.5300   39.5760 C.3       6 GLL5        0.0000 
     17 CA         15.8580   42.3680   42.6320 C.3       4 GLP5        0.0000 
     18 CA         17.8085   38.6555   40.1370 C.3       2 GLC5        0.0000 
     19 CA         19.6780   37.7810   40.6980 C.3       4 GLP5        0.0000 
     20 CA         15.9455   38.8975   37.7520 C.3       2 GLC5        0.0000 
     21 CA         17.8980   34.7100   40.5405 C.3       2 GLC5        0.0000 
     22 CA         16.3340   35.8830   40.2370 C.3       6 GLL5        0.0000 
     23 CA         19.4620   33.5370   40.8440 C.3       4 GLP5        0.0000 
     24 CA         16.8690   34.7565   38.6445 C.3       2 GLC5        0.0000 
     25 CA         17.4040   33.6300   37.0520 C.3       4 GLP5        0.0000 
     26 CA         14.8005   34.8845   39.8545 C.3       2 GLC5        0.0000 
     27 CA         13.2670   33.8860   39.4720 C.3       4 GLP5        0.0000 
     28 O          17.6580   40.6005   38.0055 O.2       1 ALC1        0.0000 
     29 O          16.6120   40.5350   38.8750 O.2       5 ALL1        0.0000 
     30 O          18.7040   40.6660   37.1360 O.2       3 ALP1        0.0000 
     31 CA         18.5750   34.3585   42.3665 C.3       2 GLC5        0.0000 
     32 CA         17.6880   35.1800   43.8890 C.3       6 GLL5        0.0000 
     33 CA         19.7985   35.7745   44.7050 C.3       2 GLC5        0.0000 
     34 CA         18.4230   37.2530   44.2800 C.3       6 GLL5        0.0000 
     35 CA         21.1740   34.2960   45.1300 C.3       4 GLP5        0.0000 
     36 CA         12.9690   37.6525   39.8578 C.3       2 GLC5        0.0000 
     37 CA         14.1550   38.8370   40.9510 C.3       6 GLL5        0.0000 
     38 CA         12.4040   36.2990   38.3840 C.3       4 GLP5        0.0000 
     39 CA         14.5347   40.7060   42.4386 C.3       2 GLC5        0.0000 
     40 CA         12.0622   37.9845   39.2578 C.3       2 GLC5        0.0000 
     41 CA         11.7340   39.6020   40.9950 C.3       6 GLL5        0.0000 
     42 CA         13.8003   36.8542   39.4975 C.3       2 GLC5        0.0000 
     43 CA         14.6250   37.5310   40.9640 C.3       6 GLL5        0.0000 
     44 CA         10.2587   41.5243   42.6336 C.3       2 GLC5        0.0000 
     45 CA         10.5480   39.9260   41.7200 C.3       6 GLL5        0.0000 
     46 CA          9.6970   43.2730   42.6550 C.3       4 GLP5        0.0000 
     47 CA         17.8645   37.1833   40.4728 C.3       2 GLC5        0.0000 
     48 CA          9.8510   38.3925   41.5139 C.3       2 GLC5        0.0000 
     49 CA          8.8750   36.9860   40.7760 C.3       4 GLP5        0.0000 
     50 CA         18.7997   34.5443   44.9931 C.3       2 GLC5        0.0000 
     51 CA         19.9490   33.4290   45.3810 C.3       4 GLP5        0.0000 
     52 CA         18.9655   38.2040   45.2249 C.3       2 GLC5        0.0000 
     53 CA         17.4960   36.3070   44.6620 C.3       6 GLL5        0.0000 
     54 CA         19.9130   39.7120   45.6490 C.3       4 GLP5        0.0000 
     55 CA         19.3023   36.9656   43.0739 C.3       2 GLC5        0.0000 
     56 CA         20.5970   37.4330   41.8700 C.3       4 GLP5        0.0000 
@<TRIPOS>BOND
@<TRIPOS>SUBSTRUCTURE
     1 ALC1       28 GROUP        1 X    ALC  0     ROOT ALC X 1
     2 GLC5        1 GROUP        1 X    GLC  0     **** GLC X 6
     3 ALP1       30 GROUP        1 Y    ALP  0     ROOT ALP Y 8
     4 GLP5        3 GROUP        1 Y    GLP  0     **** GLP Y 13
     5 ALL1       29 GROUP        1 Z    ALL  0     ROOT ALL Z 15
     6 GLL5        2 GROUP        1 Z    GLL  0     **** GLL Z 20
@<TRIPOS>SET

