#    Name: 3r4n_FU5_2_ligand
#    Modification time : Tue Mar 25 10:31:16 2014

@<TRIPOS>MOLECULE
3r4n_FU5_2_ligand
   38    39     1     0     0
SMALL
NO_CHARGES


@<TRIPOS>ATOM
      1 C1         12.9130   39.1750   41.7120 C.ar      1 FU5901      0.0000 
      2 C2         14.1550   38.8370   40.9510 C.ar      1 FU5901      0.0000 
      3 C3         12.8890   39.0820   43.1590 C.ar      1 FU5901      0.0000 
      4 C4         11.7340   39.6020   40.9950 C.ar      1 FU5901      0.0000 
      5 C5         14.6250   37.5310   40.9640 C.ar      1 FU5901      0.0000 
      6 N6         14.8180   39.8410   40.2520 N.ar      1 FU5901      0.0000 
      7 C7         11.6730   39.4160   43.8630 C.ar      1 FU5901      0.0000 
      8 O8         14.0640   38.6690   43.7730 O.3       1 FU5901      0.0000 
      9 C9         10.5480   39.9260   41.7200 C.ar      1 FU5901      0.0000 
     10 CL10       11.7070   39.7380   39.2680 Cl        1 FU5901      0.0000 
     11 C11        15.7680   37.2880   40.2580 C.ar      1 FU5901      0.0000 
     12 C12        15.9390   39.5300   39.5760 C.ar      1 FU5901      0.0000 
     13 C13        10.5130   39.8340   43.1460 C.ar      1 FU5901      0.0000 
     14 C14        14.2760   38.5090   45.0770 C.3       1 FU5901      0.0000 
     15 N15        16.4280   38.2770   39.5650 N.ar      1 FU5901      0.0000 
     16 C16        16.3340   35.8830   40.2370 C.3       1 FU5901      0.0000 
     17 N17        16.6120   40.5350   38.8750 N.pl3     1 FU5901      0.0000 
     18 C18        15.7110   38.0400   45.3670 C.3       1 FU5901      0.0000 
     19 C19        16.0680   36.8400   44.4650 C.3       1 FU5901      0.0000 
     20 C20        17.4960   36.3070   44.6620 C.3       1 FU5901      0.0000 
     21 F21        17.7300   35.9710   45.9810 F         1 FU5901      0.0000 
     22 F22        17.6880   35.1800   43.8890 F         1 FU5901      0.0000 
     23 F23        18.4230   37.2530   44.2800 F         1 FU5901      0.0000 
     24 H          14.1394   36.8071   41.4719 H         1 FU5901      0.0000 
     25 H          11.6516   39.3502   44.8776 H         1 FU5901      0.0000 
     26 H           9.7131   40.2276   41.2142 H         1 FU5901      0.0000 
     27 H           9.6607   40.0668   43.6478 H         1 FU5901      0.0000 
     28 H          13.6081   37.7527   45.5561 H         1 FU5901      0.0000 
     29 H          14.1351   39.4402   45.6775 H         1 FU5901      0.0000 
     30 H          17.4362   40.2527   38.3841 H         1 FU5901      0.0000 
     31 H          16.2114   41.4499   38.9246 H         1 FU5901      0.0000 
     32 H          15.7874   37.7391   46.4043 H         1 FU5901      0.0000 
     33 H          16.4006   38.8507   45.1681 H         1 FU5901      0.0000 
     34 H          15.9404   37.1391   43.4134 H         1 FU5901      0.0000 
     35 H          15.3530   36.0264   44.6611 H         1 FU5901      0.0000 
     36 H          17.1683   35.8268   39.6885 H         1 FU5901      0.0000 
     37 H          16.5649   35.5619   41.1555 H         1 FU5901      0.0000 
     38 H          15.6851   35.2269   39.8516 H         1 FU5901      0.0000 
@<TRIPOS>BOND
     1    2    1 1    
     2    3    1 ar   
     3    4    1 ar   
     4    5    2 ar   
     5    6    2 ar   
     6    7    3 ar   
     7    8    3 1    
     8    9    4 ar   
     9   10    4 1    
    10   11    5 ar   
    11   24    5 1    
    12   12    6 ar   
    13   13    7 ar   
    14   25    7 1    
    15   14    8 1    
    16   13    9 ar   
    17   26    9 1    
    18   15   11 ar   
    19   16   11 1    
    20   15   12 ar   
    21   17   12 1    
    22   27   13 1    
    23   18   14 1    
    24   28   14 1    
    25   29   14 1    
    26   36   16 1    
    27   37   16 1    
    28   38   16 1    
    29   30   17 1    
    30   31   17 1    
    31   19   18 1    
    32   32   18 1    
    33   33   18 1    
    34   20   19 1    
    35   34   19 1    
    36   35   19 1    
    37   21   20 1    
    38   22   20 1    
    39   23   20 1    
@<TRIPOS>SUBSTRUCTURE
     1 FU5901      1 GROUP   
@<TRIPOS>SET

