#    Name: 3iss_EPU_6_INTS_M
#    Modification time : Tue Mar 25 17:24:07 2014

@<TRIPOS>MOLECULE
3iss_EPU_6_INTS_M
   63     0    12     0     0
SMALL
NO_CHARGES


@<TRIPOS>ATOM
      1 O          31.9610   49.8720  -50.7435 O.2       1 ALC1        0.0000 
      2 O          31.5300   48.7180  -49.9340 O.2       9 ALL1        0.0000 
      3 O          32.3920   51.0260  -51.5530 O.2       5 ALP1        0.0000 
      4 CA         31.4590   48.5500  -47.7035 C.3       4 GLC5        0.0000 
      5 CA         32.4250   46.9470  -48.7130 C.3      12 GLL5        0.0000 
      6 CA         30.4930   50.1530  -46.6940 C.3       8 GLP5        0.0000 
      7 N          33.7255   50.4665  -48.6710 N.am      2 SEC2        0.0000 
      8 N          33.3990   48.9640  -48.7520 N.am     10 SEL2        0.0000 
      9 N          34.0520   51.9690  -48.5900 N.am      6 SEP2        0.0000 
     10 CA         31.5015   44.3115  -52.5935 C.3       4 GLC5        0.0000 
     11 CA         30.0310   44.4950  -50.9080 C.3      12 GLL5        0.0000 
     12 CA         32.9720   44.1280  -54.2790 C.3       8 GLP5        0.0000 
     13 CA         29.6560   41.5420  -50.8740 C.3       4 GLC5        0.0000 
     14 CA         29.2710   43.3730  -50.3260 C.3      12 GLL5        0.0000 
     15 CA         30.0410   39.7110  -51.4220 C.3       8 GLP5        0.0000 
     16 CA         27.7315   41.7200  -48.1315 C.3       4 GLC5        0.0000 
     17 CA         29.0250   43.4750  -47.8030 C.3      12 GLL5        0.0000 
     18 CA         26.4380   39.9650  -48.4600 C.3       8 GLP5        0.0000 
     19 N          30.8685   43.3500  -44.3595 N.am      2 SEC2        0.0000 
     20 N          30.4620   42.7890  -45.5270 N.am     10 SEL2        0.0000 
     21 N          31.2750   43.9110  -43.1920 N.am      6 SEP2        0.0000 
     22 N          32.2345   45.1245  -46.0070 N.am      2 SEC2        0.0000 
     23 N          32.2380   43.9490  -46.8000 N.am     10 SEL2        0.0000 
     24 N          32.2310   46.3000  -45.2140 N.am      6 SEP2        0.0000 
     25 N          34.1630   40.4545  -49.3885 N.am      2 SEC2        0.0000 
     26 N          34.0550   41.4910  -48.1890 N.am     10 SEL2        0.0000 
     27 N          34.2710   39.4180  -50.5880 N.am      6 SEP2        0.0000 
     28 CA         32.7645   40.4040  -43.9815 C.3       4 GLC5        0.0000 
     29 CA         33.3270   39.1180  -45.4610 C.3      12 GLL5        0.0000 
     30 CA         32.2020   41.6900  -42.5020 C.3       8 GLP5        0.0000 
     31 CA         28.5010   37.1580  -46.8420 C.3       4 GLC5        0.0000 
     32 CA         29.8040   38.3440  -45.9140 C.3      12 GLL5        0.0000 
     33 CA         27.1980   35.9720  -47.7700 C.3       8 GLP5        0.0000 
     34 CA         39.5190   36.5305  -45.1605 C.3       4 GLC5        0.0000 
     35 CA         37.6490   37.5550  -45.5700 C.3      12 GLL5        0.0000 
     36 CA         41.3890   35.5060  -44.7510 C.3       8 GLP5        0.0000 
     37 CA         39.3210   38.2275  -46.2405 C.3       4 GLC5        0.0000 
     38 CA         40.9930   38.9000  -46.9110 C.3       8 GLP5        0.0000 
     39 CA         38.5870   38.6210  -44.2220 C.3       4 GLC5        0.0000 
     40 CA         39.5250   39.6870  -42.8740 C.3       8 GLP5        0.0000 
     41 N          34.1415   35.0595  -45.1900 N.am      2 SEC2        0.0000 
     42 N          33.5850   35.6790  -46.5820 N.am     10 SEL2        0.0000 
     43 N          34.6980   34.4400  -43.7980 N.am      6 SEP2        0.0000 
     44 O          30.8735   34.7795  -47.4515 O.2       1 ALC1        0.0000 
     45 O          31.1970   36.3470  -47.4830 O.2       9 ALL1        0.0000 
     46 O          30.5500   33.2120  -47.4200 O.2       5 ALP1        0.0000 
     47 NZ         36.3630   33.1155  -46.3650 N.4       3 LYC4        0.0000 
     48 NZ         34.8750   33.2860  -46.9620 N.4      11 LYL4        0.0000 
     49 NZ         37.8510   32.9450  -45.7680 N.4       7 LYP4        0.0000 
     50 N          36.3630   33.1155  -46.3650 N.am      2 SEC2        0.0000 
     51 N          34.8750   33.2860  -46.9620 N.am     10 SEL2        0.0000 
     52 N          37.8510   32.9450  -45.7680 N.am      6 SEP2        0.0000 
     53 N          34.7865   33.8630  -45.3800 N.am      2 SEC2        0.0000 
     54 NZ         37.0840   33.7485  -46.8570 N.4       3 LYC4        0.0000 
     55 NZ         36.3170   34.5520  -47.9460 N.4      11 LYL4        0.0000 
     56 N          37.0840   33.7485  -46.8570 N.am      2 SEC2        0.0000 
     57 N          36.3170   34.5520  -47.9460 N.am     10 SEL2        0.0000 
     58 CA         31.4190   46.6640  -46.9633 C.3       4 GLC5        0.0000 
     59 CA         31.4190   46.1110  -49.1140 C.3      12 GLL5        0.0000 
     60 CA         30.9160   46.7990  -45.0130 C.3       8 GLP5        0.0000 
     61 CA         30.0885   37.9645  -48.0520 C.3       4 GLC5        0.0000 
     62 CA         31.2550   38.3320  -46.2580 C.3      12 GLL5        0.0000 
     63 CA         29.5280   37.9410  -50.0010 C.3       8 GLP5        0.0000 
@<TRIPOS>BOND
@<TRIPOS>SUBSTRUCTURE
     1 ALC1        1 GROUP        1 X    ALC  0     ROOT ALC X 1
     2 SEC2        7 GROUP        1 X    SEC  0     **** SEC X 2
     3 LYC4       47 GROUP        1 X    LYC  0     **** LYC X 4
     4 GLC5        4 GROUP        1 X    GLC  0     **** GLC X 6
     5 ALP1        3 GROUP        1 Y    ALP  0     ROOT ALP Y 8
     6 SEP2        9 GROUP        1 Y    SEP  0     **** SEP Y 9
     7 LYP4       49 GROUP        1 Y    LYP  0     **** LYP Y 11
     8 GLP5        6 GROUP        1 Y    GLP  0     **** GLP Y 13
     9 ALL1        2 GROUP        1 Z    ALL  0     ROOT ALL Z 15
    10 SEL2        8 GROUP        1 Z    SEL  0     **** SEL Z 16
    11 LYL4       48 GROUP        1 Z    LYL  0     **** LYL Z 18
    12 GLL5        5 GROUP        1 Z    GLL  0     **** GLL Z 20
@<TRIPOS>SET

