#    Name: 3iss_EPU_6_ligand
#    Modification time : Tue Mar 25 17:24:07 2014

@<TRIPOS>MOLECULE
3iss_EPU_6_ligand
   68    70     1     0     0
SMALL
NO_CHARGES


@<TRIPOS>ATOM
      1 N1U        30.4850   46.5930  -49.8950 N.am      1 EPU606      0.0000 
      2 C2U        30.5420   47.9190  -50.3160 C.2       1 EPU606      0.0000 
      3 N3U        31.5300   48.7180  -49.9340 N.am      1 EPU606      0.0000 
      4 C4U        32.4770   48.2470  -49.1330 C.2       1 EPU606      0.0000 
      5 C5U        32.4250   46.9470  -48.7130 C.2       1 EPU606      0.0000 
      6 C6U        31.4190   46.1110  -49.1140 C.2       1 EPU606      0.0000 
      7 O2U        29.6740   48.3650  -51.0320 O.2       1 EPU606      0.0000 
      8 O4U        33.3990   48.9640  -48.7520 O.2       1 EPU606      0.0000 
      9 C1D        29.4180   45.7120  -50.3160 C.3       1 EPU606      0.0000 
     10 C2D        30.0310   44.4950  -50.9080 C.3       1 EPU606      0.0000 
     11 O2D        29.8150   44.5060  -52.2930 O.3       1 EPU606      0.0000 
     12 C3D        29.2710   43.3730  -50.3260 C.3       1 EPU606      0.0000 
     13 C4D        28.5130   43.9180  -49.1510 C.3       1 EPU606      0.0000 
     14 O4D        28.6930   45.2960  -49.1930 O.3       1 EPU606      0.0000 
     15 O3D        28.3630   43.0050  -51.3340 O.3       1 EPU606      0.0000 
     16 C5D        29.0250   43.4750  -47.8030 C.3       1 EPU606      0.0000 
     17 O5D        30.3100   42.9110  -47.9120 O.3       1 EPU606      0.0000 
     18 PA         31.2800   42.8760  -46.7040 P.3       1 EPU606      0.0000 
     19 O1A        30.4620   42.7890  -45.5270 O.co2     1 EPU606      0.0000 
     20 O2A        32.2380   43.9490  -46.8000 O.co2     1 EPU606      0.0000 
     21 O3A        32.0190   41.5200  -46.8660 O.3       1 EPU606      0.0000 
     22 PB         33.5350   41.1880  -46.9080 P.3       1 EPU606      0.0000 
     23 O1B        34.1920   41.6650  -45.7360 O.co2     1 EPU606      0.0000 
     24 O2B        34.0550   41.4910  -48.1890 O.co2     1 EPU606      0.0000 
     25 C1         33.3270   39.1180  -45.4610 C.3       1 EPU606      0.0000 
     26 C2         33.8930   37.7430  -45.4340 C.3       1 EPU606      0.0000 
     27 C3         33.2000   37.0030  -46.5470 C.3       1 EPU606      0.0000 
     28 C4         31.7330   36.9320  -46.3260 C.3       1 EPU606      0.0000 
     29 C5         31.2550   38.3320  -46.2580 C.3       1 EPU606      0.0000 
     30 C6         29.8040   38.3440  -45.9140 C.3       1 EPU606      0.0000 
     31 C7         36.2840   37.5400  -45.0120 C.2       1 EPU606      0.0000 
     32 C8         37.6490   37.5550  -45.5700 C.3       1 EPU606      0.0000 
     33 N2         35.2810   37.7640  -45.8460 N.am      1 EPU606      0.0000 
     34 O1         33.4670   39.6610  -46.7390 O.3       1 EPU606      0.0000 
     35 O3         33.5850   35.6790  -46.5820 O.3       1 EPU606      0.0000 
     36 O4         31.1970   36.3470  -47.4830 O.3       1 EPU606      0.0000 
     37 O5         31.9620   38.9340  -45.2200 O.3       1 EPU606      0.0000 
     38 O6         29.6750   37.8950  -44.5930 O.3       1 EPU606      0.0000 
     39 O7         36.1380   37.3320  -43.8600 O.2       1 EPU606      0.0000 
     40 C1E        35.1830   34.3340  -47.5540 C.2       1 EPU606      0.0000 
     41 O1E        34.8750   33.2860  -46.9620 O.co2     1 EPU606      0.0000 
     42 O2E        36.3170   34.5520  -47.9460 O.co2     1 EPU606      0.0000 
     43 C2E        34.1800   35.3920  -47.7960 C.2       1 EPU606      0.0000 
     44 C3E        33.0810   34.8460  -48.6430 C.2       1 EPU606      0.0000 
     45 H          31.5620   49.7107  -50.2616 H         1 EPU606      0.0000 
     46 H          33.1674   46.5846  -48.0736 H         1 EPU606      0.0000 
     47 H          31.4210   45.1274  -48.7932 H         1 EPU606      0.0000 
     48 H          28.8020   46.1796  -51.0433 H         1 EPU606      0.0000 
     49 H          31.0396   44.4315  -50.6327 H         1 EPU606      0.0000 
     50 H          29.9100   42.6075  -50.0368 H         1 EPU606      0.0000 
     51 H          27.4774   43.6657  -49.2407 H         1 EPU606      0.0000 
     52 H          28.2954   42.7570  -47.3845 H         1 EPU606      0.0000 
     53 H          29.0182   44.3554  -47.1338 H         1 EPU606      0.0000 
     54 H          33.7832   39.6965  -44.7068 H         1 EPU606      0.0000 
     55 H          33.7355   37.2667  -44.5390 H         1 EPU606      0.0000 
     56 H          33.3805   37.4967  -47.4803 H         1 EPU606      0.0000 
     57 H          31.5192   36.4169  -45.4524 H         1 EPU606      0.0000 
     58 H          31.4122   38.8106  -47.1890 H         1 EPU606      0.0000 
     59 H          29.2754   37.6973  -46.6221 H         1 EPU606      0.0000 
     60 H          29.4270   39.3643  -46.0407 H         1 EPU606      0.0000 
     61 H          35.4457   37.9714  -46.8646 H         1 EPU606      0.0000 
     62 H          38.3392   37.3797  -44.8679 H         1 EPU606      0.0000 
     63 H          37.7683   36.8594  -46.2784 H         1 EPU606      0.0000 
     64 H          37.8708   38.4373  -45.9852 H         1 EPU606      0.0000 
     65 H          30.4561   43.8320  -52.6602 H         1 EPU606      0.0000 
     66 H          28.6470   43.5240  -52.1402 H         1 EPU606      0.0000 
     67 H          31.0461   35.3883  -47.2420 H         1 EPU606      0.0000 
     68 H          30.3374   38.4326  -44.0712 H         1 EPU606      0.0000 
@<TRIPOS>BOND
     1    2    1 1    
     2    6    1 1    
     3    9    1 1    
     4    3    2 1    
     5    7    2 2    
     6    4    3 1    
     7   45    3 1    
     8    5    4 1    
     9    8    4 2    
    10    6    5 2    
    11   46    5 1    
    12   47    6 1    
    13   10    9 1    
    14   14    9 1    
    15   48    9 1    
    16   11   10 1    
    17   12   10 1    
    18   49   10 1    
    19   65   11 1    
    20   13   12 1    
    21   15   12 1    
    22   50   12 1    
    23   14   13 1    
    24   16   13 1    
    25   51   13 1    
    26   66   15 1    
    27   17   16 1    
    28   52   16 1    
    29   53   16 1    
    30   18   17 1    
    31   19   18 ar   
    32   20   18 ar   
    33   21   18 1    
    34   22   21 1    
    35   23   22 ar   
    36   24   22 ar   
    37   34   22 1    
    38   26   25 1    
    39   34   25 1    
    40   37   25 1    
    41   54   25 1    
    42   27   26 1    
    43   33   26 1    
    44   55   26 1    
    45   28   27 1    
    46   35   27 1    
    47   56   27 1    
    48   29   28 1    
    49   36   28 1    
    50   57   28 1    
    51   30   29 1    
    52   37   29 1    
    53   58   29 1    
    54   38   30 1    
    55   59   30 1    
    56   60   30 1    
    57   32   31 1    
    58   33   31 am   
    59   39   31 2    
    60   62   32 1    
    61   63   32 1    
    62   64   32 1    
    63   61   33 1    
    64   43   35 1    
    65   67   36 1    
    66   68   38 1    
    67   41   40 ar   
    68   42   40 ar   
    69   43   40 1    
    70   44   43 2    
@<TRIPOS>SUBSTRUCTURE
     1 EPU606      1 GROUP   
@<TRIPOS>SET

