#    Name: 2jgd_AMP_2_INTS_M
#    Modification time : Tue Mar 25 20:45:30 2014

@<TRIPOS>MOLECULE
2jgd_AMP_2_INTS_M
   49     0    12     0     0
SMALL
NO_CHARGES


@<TRIPOS>ATOM
      1 NZ         41.2310   -0.7790   -0.9265 N.4       3 LYC4        0.0000 
      2 NZ         42.3220   -0.6750   -1.8670 N.4      11 LYL4        0.0000 
      3 NZ         40.4290   -1.2220    1.2710 N.4       7 LYP4        0.0000 
      4 N          41.2310   -0.7790   -0.9265 N.am      2 SEC2        0.0000 
      5 N          42.3220   -0.6750   -1.8670 N.am     10 SEL2        0.0000 
      6 N          40.1400   -0.8830    0.0140 N.am      6 SEP2        0.0000 
      7 N          44.0485   -3.9675   -2.7235 N.am      2 SEC2        0.0000 
      8 N          43.0520   -3.0620   -2.4760 N.am     10 SEL2        0.0000 
      9 N          45.0450   -4.8730   -2.9710 N.am      6 SEP2        0.0000 
     10 NZ         42.6460   -1.8900    0.6700 N.4       3 LYC4        0.0000 
     11 NZ         43.6570   -2.1250   -0.2240 N.4      11 LYL4        0.0000 
     12 N          42.6460   -1.8900    0.6700 N.am      2 SEC2        0.0000 
     13 N          43.6570   -2.1250   -0.2240 N.am     10 SEL2        0.0000 
     14 N          41.6350   -1.6550    1.5640 N.am      6 SEP2        0.0000 
     15 CA         44.6505   -2.9755   -3.9475 C.3       4 GLC5        0.0000 
     16 CA         44.7300   -0.7610   -3.6250 C.3      12 GLL5        0.0000 
     17 CA         44.5710   -5.1900   -4.2700 C.3       8 GLP5        0.0000 
     18 CA         46.9085   -0.1200   -6.0040 C.3       4 GLC5        0.0000 
     19 CA         46.1620   -0.7790   -4.1640 C.3      12 GLL5        0.0000 
     20 CA         47.6550    0.5390   -7.8440 C.3       8 GLP5        0.0000 
     21 CA         47.6390    1.0655   -1.4370 C.3       4 GLC5        0.0000 
     22 CA         47.9400   -0.8040   -2.6210 C.3      12 GLL5        0.0000 
     23 CA         47.3380    2.9350   -0.2530 C.3       8 GLP5        0.0000 
     24 O          47.6170    1.1390    3.3985 O.2       1 ALC1        0.0000 
     25 O          49.0490    0.6550    3.2200 O.2       9 ALL1        0.0000 
     26 O          46.1850    1.6230    3.5770 O.2       5 ALP1        0.0000 
     27 O          49.8855    1.2375    4.3090 O.2       1 ALC1        0.0000 
     28 O          50.7220    1.8200    5.3980 O.2       5 ALP1        0.0000 
     29 N          51.6595    0.6980    2.7035 N.am      2 SEC2        0.0000 
     30 N          50.7660    0.5990    1.5910 N.am     10 SEL2        0.0000 
     31 N          52.5530    0.7970    3.8160 N.am      6 SEP2        0.0000 
     32 CA         50.2215    2.0525   -0.6735 C.3       4 GLC5        0.0000 
     33 CA         51.1570    0.4180    0.3100 C.3      12 GLL5        0.0000 
     34 CA         49.2860    3.6870   -1.6570 C.3       8 GLP5        0.0000 
     35 CA         52.4020    1.8565   -0.8065 C.3       4 GLC5        0.0000 
     36 CA         53.6470    3.2950   -1.9230 C.3       8 GLP5        0.0000 
     37 CA         51.8395   -0.6105    1.9605 C.3       4 GLC5        0.0000 
     38 CA         52.5220   -1.6390    3.6110 C.3       8 GLP5        0.0000 
     39 CA         52.6520    1.6840    1.3640 C.3       4 GLC5        0.0000 
     40 CA         54.1470    2.9500    2.4180 C.3       8 GLP5        0.0000 
     41 CA         49.1410    1.7730   -1.0535 C.3       4 GLC5        0.0000 
     42 CA         48.9960   -0.1410   -0.4500 C.3      12 GLL5        0.0000 
     43 CA         45.8425   -3.6968   -3.8757 C.3       4 GLC5        0.0000 
     44 CA         46.7670   -2.1730   -4.1480 C.3      12 GLL5        0.0000 
     45 CA         44.9273   -1.6178   -5.5576 C.3       4 GLC5        0.0000 
     46 CA         43.7480   -1.7640   -7.0940 C.3       8 GLP5        0.0000 
     47 CA         49.3065   -1.3570    2.4515 C.3       4 GLC5        0.0000 
     48 CA         48.4970    0.0480    0.9120 C.3      12 GLL5        0.0000 
     49 CA         49.6310   -2.9600    3.4720 C.3       8 GLP5        0.0000 
@<TRIPOS>BOND
@<TRIPOS>SUBSTRUCTURE
     1 ALC1       24 GROUP        1 X    ALC  0     ROOT ALC X 1
     2 SEC2        4 GROUP        1 X    SEC  0     **** SEC X 2
     3 LYC4        1 GROUP        1 X    LYC  0     **** LYC X 4
     4 GLC5       15 GROUP        1 X    GLC  0     **** GLC X 6
     5 ALP1       26 GROUP        1 Y    ALP  0     ROOT ALP Y 8
     6 SEP2        6 GROUP        1 Y    SEP  0     **** SEP Y 9
     7 LYP4        3 GROUP        1 Y    LYP  0     **** LYP Y 11
     8 GLP5       17 GROUP        1 Y    GLP  0     **** GLP Y 13
     9 ALL1       25 GROUP        1 Z    ALL  0     ROOT ALL Z 15
    10 SEL2        5 GROUP        1 Z    SEL  0     **** SEL Z 16
    11 LYL4        2 GROUP        1 Z    LYL  0     **** LYL Z 18
    12 GLL5       16 GROUP        1 Z    GLL  0     **** GLL Z 20
@<TRIPOS>SET

