#    Name: 2jgd_AMP_2_ligand
#    Modification time : Tue Mar 25 20:45:30 2014

@<TRIPOS>MOLECULE
2jgd_AMP_2_ligand
   35    37     1     0     0
SMALL
NO_CHARGES


@<TRIPOS>ATOM
      1 P          43.3160   -1.8060   -1.6530 P.3       1 AMP1934     0.0000 
      2 O1P        42.3220   -0.6750   -1.8670 O.co2     1 AMP1934     0.0000 
      3 O2P        43.0520   -3.0620   -2.4760 O.co2     1 AMP1934     0.0000 
      4 O3P        43.6570   -2.1250   -0.2240 O.co2     1 AMP1934     0.0000 
      5 O5'        44.6920   -1.1960   -2.2510 O.3       1 AMP1934     0.0000 
      6 C5'        44.7300   -0.7610   -3.6250 C.3       1 AMP1934     0.0000 
      7 C4'        46.1620   -0.7790   -4.1640 C.3       1 AMP1934     0.0000 
      8 O4'        47.0040    0.0250   -3.3190 O.3       1 AMP1934     0.0000 
      9 C3'        46.7670   -2.1730   -4.1480 C.3       1 AMP1934     0.0000 
     10 O3'        47.8230   -2.1930   -5.1210 O.3       1 AMP1934     0.0000 
     11 C2'        47.4610   -2.2340   -2.8150 C.3       1 AMP1934     0.0000 
     12 O2'        48.5860   -3.1220   -2.8550 O.3       1 AMP1934     0.0000 
     13 C1'        47.9400   -0.8040   -2.6210 C.3       1 AMP1934     0.0000 
     14 N9         47.9330   -0.4850   -1.1800 N.pl3     1 AMP1934     0.0000 
     15 C8         46.8480   -0.5390   -0.3830 C.2       1 AMP1934     0.0000 
     16 N7         47.1790   -0.2120    0.8890 N.2       1 AMP1934     0.0000 
     17 C5         48.4970    0.0480    0.9120 C.ar      1 AMP1934     0.0000 
     18 C6         49.4670    0.4440    1.9500 C.ar      1 AMP1934     0.0000 
     19 N6         49.0490    0.6550    3.2200 N.pl3     1 AMP1934     0.0000 
     20 N1         50.7660    0.5990    1.5910 N.ar      1 AMP1934     0.0000 
     21 C2         51.1570    0.4180    0.3100 C.ar      1 AMP1934     0.0000 
     22 N3         50.3130    0.0540   -0.6940 N.ar      1 AMP1934     0.0000 
     23 C4         48.9960   -0.1410   -0.4500 C.ar      1 AMP1934     0.0000 
     24 H          44.3437    0.2623   -3.7316 H         1 AMP1934     0.0000 
     25 H          44.1208   -1.4118   -4.2678 H         1 AMP1934     0.0000 
     26 H          46.1706   -0.4101   -5.1668 H         1 AMP1934     0.0000 
     27 H          46.0690   -2.8892   -4.2425 H         1 AMP1934     0.0000 
     28 H          46.7619   -2.4588   -2.0645 H         1 AMP1934     0.0000 
     29 H          48.9166   -0.7197   -3.0255 H         1 AMP1934     0.0000 
     30 H          45.9470   -0.7798   -0.6775 H         1 AMP1934     0.0000 
     31 H          49.7535    0.9262    3.8758 H         1 AMP1934     0.0000 
     32 H          48.0727    0.5210    3.3899 H         1 AMP1934     0.0000 
     33 H          52.1838    0.5678    0.0681 H         1 AMP1934     0.0000 
     34 H          48.6262   -2.5217   -4.6243 H         1 AMP1934     0.0000 
     35 H          48.1939   -4.0395   -2.7879 H         1 AMP1934     0.0000 
@<TRIPOS>BOND
     1    2    1 ar   
     2    3    1 ar   
     3    4    1 ar   
     4    5    1 1    
     5    6    5 1    
     6    7    6 1    
     7   24    6 1    
     8   25    6 1    
     9    8    7 1    
    10    9    7 1    
    11   26    7 1    
    12   13    8 1    
    13   10    9 1    
    14   11    9 1    
    15   27    9 1    
    16   34   10 1    
    17   12   11 1    
    18   13   11 1    
    19   28   11 1    
    20   35   12 1    
    21   14   13 1    
    22   29   13 1    
    23   15   14 1    
    24   23   14 1    
    25   16   15 2    
    26   30   15 1    
    27   17   16 1    
    28   18   17 ar   
    29   23   17 ar   
    30   19   18 1    
    31   20   18 ar   
    32   31   19 1    
    33   32   19 1    
    34   21   20 ar   
    35   22   21 ar   
    36   33   21 1    
    37   23   22 ar   
@<TRIPOS>SUBSTRUCTURE
     1 AMP1934     1 GROUP   
@<TRIPOS>SET

