#    Name: 3P5L_1_CAVITY_N1_6.mol2
#    Modification time : Mon Mar 10 13:10:48 2014

@<TRIPOS>MOLECULE
3P5L_1_CAVITY_N1_6.mol2
   70     0     6     0     0
SMALL
NO_CHARGES


@<TRIPOS>ATOM
      1 CA         -0.9388    8.0184   14.3999 C.3       5 GLY6        0.0000 
      2 CA         -1.9350    6.9513   14.7446 C.3       5 GLY6        0.0000 
      3 CZ         -3.0545    7.9245   14.5223 C.ar      4 PHE5        0.0000 
      4 CA         -0.8810    5.5731   13.5241 C.3       5 GLY6        0.0000 
      5 CA         -2.0005    6.5464   13.3017 C.3       5 GLY6        0.0000 
      6 CZ         -3.1200    7.5196   13.0794 C.ar      4 PHE5        0.0000 
      7 N           0.1730    4.1949   12.3035 N.2       2 ALA2        0.0000 
      8 N          -0.9465    5.1682   12.0812 N.2       2 ALA2        0.0000 
      9 DU         -2.0660    6.1415   11.8589 H         6 CUB7        0.0000 
     10 N           0.1075    3.7900   10.8607 N.2       2 ALA2        0.0000 
     11 N          -1.0120    4.7633   10.6384 N.2       2 ALA2        0.0000 
     12 DU         -2.1315    5.7366   10.4161 H         6 CUB7        0.0000 
     13 CA         -1.8117    4.9108   15.3116 C.3       5 GLY6        0.0000 
     14 CA         -2.9312    5.8841   15.0893 C.3       5 GLY6        0.0000 
     15 CZ         -4.0507    6.8574   14.8670 C.ar      4 PHE5        0.0000 
     16 OG         -1.8772    4.5059   13.8687 O.2       1 SER1        0.0000 
     17 DU         -2.9967    5.4792   13.6464 H         6 CUB7        0.0000 
     18 CZ         -4.1162    6.4525   13.4241 C.ar      4 PHE5        0.0000 
     19 OG         -1.9427    4.1010   12.4259 O.2       1 SER1        0.0000 
     20 DU         -3.0622    5.0743   12.2036 H         6 CUB7        0.0000 
     21 DU         -4.1817    6.0476   11.9813 H         6 CUB7        0.0000 
     22 CZ         -5.3012    7.0208   11.7590 C.ar      4 PHE5        0.0000 
     23 CZ         -6.4207    7.9941   11.5367 C.ar      4 PHE5        0.0000 
     24 N          -2.0082    3.6961   10.9831 N.2       2 ALA2        0.0000 
     25 DU         -3.1277    4.6694   10.7608 H         6 CUB7        0.0000 
     26 O          -4.2472    5.6427   10.5385 O.2       2 ALA2        0.0000 
     27 O          -3.1932    4.2645    9.3179 O.2       2 ALA2        0.0000 
     28 O          -4.3127    5.2378    9.0956 O.2       2 ALA2        0.0000 
     29 CA         -2.8079    3.8437   15.6563 C.3       5 GLY6        0.0000 
     30 CA         -3.9274    4.8170   15.4340 C.3       5 GLY6        0.0000 
     31 CA         -5.0469    5.7902   15.2116 C.3       5 GLY6        0.0000 
     32 OG         -2.8734    3.4388   14.2134 O.2       1 SER1        0.0000 
     33 DU         -3.9929    4.4121   13.9911 H         6 CUB7        0.0000 
     34 CZ         -5.1124    5.3853   13.7688 C.ar      4 PHE5        0.0000 
     35 CZ         -6.2319    6.3586   13.5465 C.ar      4 PHE5        0.0000 
     36 OG         -2.9389    3.0339   12.7706 O.2       1 SER1        0.0000 
     37 DU         -4.0584    4.0072   12.5483 H         6 CUB7        0.0000 
     38 O          -5.1779    4.9804   12.3260 O.2       2 ALA2        0.0000 
     39 O          -6.2974    5.9537   12.1037 O.2       2 ALA2        0.0000 
     40 O          -7.4169    6.9270   11.8814 O.2       2 ALA2        0.0000 
     41 N          -3.0043    2.6290   11.3278 N.2       2 ALA2        0.0000 
     42 O          -4.1239    3.6023   11.1055 O.2       2 ALA2        0.0000 
     43 O          -5.2434    4.5755   10.8831 O.2       2 ALA2        0.0000 
     44 O          -4.1894    3.1974    9.6626 O.2       2 ALA2        0.0000 
     45 OG         -2.6845    1.8033   16.2233 O.2       1 SER1        0.0000 
     46 CA         -3.8041    2.7765   16.0010 C.3       5 GLY6        0.0000 
     47 CA         -4.9236    3.7498   15.7786 C.3       5 GLY6        0.0000 
     48 CA         -6.0431    4.7231   15.5563 C.3       5 GLY6        0.0000 
     49 CA         -7.1626    5.6964   15.3340 C.3       5 GLY6        0.0000 
     50 OG         -3.8696    2.3716   14.5581 O.2       1 SER1        0.0000 
     51 DU         -4.9891    3.3449   14.3358 H         6 CUB7        0.0000 
     52 O          -6.1086    4.3182   14.1135 O.2       2 ALA2        0.0000 
     53 CA         -7.2281    5.2915   13.8912 C.3       5 GLY6        0.0000 
     54 OG         -3.9350    1.9667   13.1153 O.2       1 SER1        0.0000 
     55 O          -5.0546    2.9400   12.8930 O.2       2 ALA2        0.0000 
     56 N          -4.0005    1.5618   11.6725 N.2       2 ALA2        0.0000 
     57 O          -5.1201    2.5351   11.4501 O.2       2 ALA2        0.0000 
     58 N          -5.1855    2.1302   10.0073 N.2       2 ALA2        0.0000 
     59 CA         -4.7348    2.1143   17.7885 C.3       5 GLY6        0.0000 
     60 CA         -6.9738    4.0608   17.3439 C.3       5 GLY6        0.0000 
     61 CA         -4.8002    1.7094   16.3456 C.3       5 GLY6        0.0000 
     62 CA         -5.9198    2.6827   16.1233 C.3       5 GLY6        0.0000 
     63 CA         -7.0393    3.6559   15.9010 C.3       5 GLY6        0.0000 
     64 OD1        -4.8657    1.3045   14.9028 O.3       3 ASP3        0.0000 
     65 N          -5.9853    2.2778   14.6805 N.2       2 ALA2        0.0000 
     66 CA         -7.1048    3.2510   14.4582 C.3       5 GLY6        0.0000 
     67 N          -4.9312    0.8996   13.4600 N.2       2 ALA2        0.0000 
     68 CA         -6.8505    2.0204   17.9109 C.3       5 GLY6        0.0000 
     69 OD1        -6.9160    1.6155   16.4680 O.3       3 ASP3        0.0000 
     70 CA         -8.0355    2.5888   16.2457 C.3       5 GLY6        0.0000 
@<TRIPOS>BOND
@<TRIPOS>SUBSTRUCTURE
     1 SER1       16 GROUP   
     2 ALA2        7 GROUP   
     3 ASP3       64 GROUP   
     4 PHE5        3 GROUP   
     5 GLY6        1 GROUP   
     6 CUB7        9 GROUP   
@<TRIPOS>SET

