#    Name: 3p5l_IT5_1_INTS_M
#    Modification time : Tue Mar 25 05:58:43 2014

@<TRIPOS>MOLECULE
3p5l_IT5_1_INTS_M
   36     0     6     0     0
SMALL
NO_CHARGES


@<TRIPOS>ATOM
      1 N          -5.4985    3.8925    9.3730 N.am      1 SEC2        0.0000 
      2 N          -4.6910    4.1960   10.8940 N.am      5 SEL2        0.0000 
      3 N          -6.3060    3.5890    7.8520 N.am      3 SEP2        0.0000 
      4 CA         -3.9730   -1.0425   17.4240 C.3       2 GLC5        0.0000 
      5 CA         -4.9140    0.1470   15.9500 C.3       6 GLL5        0.0000 
      6 CA         -3.0320   -2.2320   18.8980 C.3       4 GLP5        0.0000 
      7 CA         -3.1345   -0.3660   15.1315 C.3       2 GLC5        0.0000 
      8 CA         -1.3550   -0.8790   14.3130 C.3       4 GLP5        0.0000 
      9 CA         -8.7175    0.4660   16.1765 C.3       2 GLC5        0.0000 
     10 CA         -7.2240    1.8800   16.6470 C.3       6 GLL5        0.0000 
     11 CA        -10.2110   -0.9480   15.7060 C.3       4 GLP5        0.0000 
     12 CA         -8.6240    2.6730   15.6890 C.3       2 GLC5        0.0000 
     13 CA        -10.0240    3.4660   14.7310 C.3       4 GLP5        0.0000 
     14 CA         -8.4690    2.5965   18.0080 C.3       2 GLC5        0.0000 
     15 CA         -9.7140    3.3130   19.3690 C.3       4 GLP5        0.0000 
     16 CA         -3.3740    9.0050   16.1310 C.3       2 GLC5        0.0000 
     17 CA         -2.2550    7.8440   14.6250 C.3       6 GLL5        0.0000 
     18 CA         -4.4930   10.1660   17.6370 C.3       4 GLP5        0.0000 
     19 CA         -0.4075    5.8580   14.1195 C.3       2 GLC5        0.0000 
     20 CA         -1.9570    5.8840   12.6210 C.3       6 GLL5        0.0000 
     21 CA          1.1420    5.8320   15.6180 C.3       4 GLP5        0.0000 
     22 CA         -8.0705    3.5960   14.6020 C.3       2 GLC5        0.0000 
     23 CA         -6.1170    3.7260   14.4730 C.3       6 GLL5        0.0000 
     24 CA         -2.7880    0.6780   14.1080 C.3       2 GLC5        0.0000 
     25 CA         -4.2210    2.2350   13.9030 C.3       6 GLL5        0.0000 
     26 CA         -5.7840    6.8870   14.4835 C.3       2 GLC5        0.0000 
     27 CA         -5.2580    4.9220   14.2010 C.3       6 GLL5        0.0000 
     28 CA         -6.3100    8.8520   14.7660 C.3       4 GLP5        0.0000 
     29 CA         -5.4730    3.2465   17.2740 C.3       2 GLC5        0.0000 
     30 CA         -5.6800    1.7120   15.8590 C.3       6 GLL5        0.0000 
     31 CA         -4.4940    4.6970   18.2950 C.3       4 GLP5        0.0000 
     32 CA         -0.2728    6.7346   14.7605 C.3       2 GLC5        0.0000 
     33 CA         -5.0907    4.5105   16.3160 C.3       2 GLC5        0.0000 
     34 CA         -2.5177    6.0949   15.9411 C.3       2 GLC5        0.0000 
     35 CA         -3.0460    5.8060   13.5610 C.3       6 GLL5        0.0000 
     36 CA         -2.1530    5.6260   17.8000 C.3       4 GLP5        0.0000 
@<TRIPOS>BOND
@<TRIPOS>SUBSTRUCTURE
     1 SEC2        1 GROUP        1 X    SEC  0     ROOT SEC X 2
     2 GLC5        4 GROUP        1 X    GLC  0     **** GLC X 6
     3 SEP2        3 GROUP        1 Y    SEP  0     ROOT SEP Y 9
     4 GLP5        6 GROUP        1 Y    GLP  0     **** GLP Y 13
     5 SEL2        2 GROUP        1 Z    SEL  0     ROOT SEL Z 16
     6 GLL5        5 GROUP        1 Z    GLL  0     **** GLL Z 20
@<TRIPOS>SET

