#    Name: 3p5l_IT5_1_ligand
#    Modification time : Tue Mar 25 05:58:43 2014

@<TRIPOS>MOLECULE
3p5l_IT5_1_ligand
   30    31     1     0     0
SMALL
NO_CHARGES


@<TRIPOS>ATOM
      1 N11        -4.6910    4.1960   10.8940 N.1       1 IT5263      0.0000 
      2 N22        -5.2930    2.5690   14.8150 N.am      1 IT5263      0.0000 
      3 SAB        -4.9140    0.1470   15.9500 S.3       1 IT5263      0.0000 
      4 SAC        -7.2240    1.8800   16.6470 S.2       1 IT5263      0.0000 
      5 CAD        -4.4160    4.3790   11.9910 C.1       1 IT5263      0.0000 
      6 CAE        -1.1950    7.9350   13.6880 C.ar      1 IT5263      0.0000 
      7 CAF        -1.0450    6.9260   12.6740 C.ar      1 IT5263      0.0000 
      8 CAG        -2.2550    7.8440   14.6250 C.ar      1 IT5263      0.0000 
      9 CAH        -1.9570    5.8840   12.6210 C.ar      1 IT5263      0.0000 
     10 CAI        -3.1830    6.7990   14.5820 C.ar      1 IT5263      0.0000 
     11 CAJ        -6.1170    3.7260   14.4730 C.3       1 IT5263      0.0000 
     12 CAK        -4.2210    2.2350   13.9030 C.3       1 IT5263      0.0000 
     13 CAL        -5.2580    4.9220   14.2010 C.3       1 IT5263      0.0000 
     14 CAM        -3.3410    3.4160   13.9020 C.3       1 IT5263      0.0000 
     15 CAN        -5.6800    1.7120   15.8590 C.2       1 IT5263      0.0000 
     16 CAO        -3.0460    5.8060   13.5610 C.ar      1 IT5263      0.0000 
     17 CAQ        -4.0430    4.6290   13.4630 C.3       1 IT5263      0.0000 
     18 H          -0.5377    8.7080   13.7250 H         1 IT5263      0.0000 
     19 H          -0.2743    6.9975   12.0178 H         1 IT5263      0.0000 
     20 H          -2.3367    8.5720   15.3545 H         1 IT5263      0.0000 
     21 H          -1.8762    5.1458   11.9112 H         1 IT5263      0.0000 
     22 H          -3.9379    6.7333   15.2493 H         1 IT5263      0.0000 
     23 H          -6.8064    3.9617   15.2953 H         1 IT5263      0.0000 
     24 H          -6.7248    3.5137   13.5828 H         1 IT5263      0.0000 
     25 H          -4.6017    2.0602   12.9071 H         1 IT5263      0.0000 
     26 H          -3.6742    1.3702   14.2501 H         1 IT5263      0.0000 
     27 H          -5.0088    5.4041   15.1757 H         1 IT5263      0.0000 
     28 H          -5.8696    5.6755   13.6508 H         1 IT5263      0.0000 
     29 H          -2.4730    3.2288   13.2409 H         1 IT5263      0.0000 
     30 H          -2.9305    3.5711   14.9183 H         1 IT5263      0.0000 
@<TRIPOS>BOND
     1    5    1 3    
     2   11    2 1    
     3   12    2 1    
     4   15    2 am   
     5   15    3 1    
     6   15    4 2    
     7   17    5 1    
     8    7    6 ar   
     9    8    6 ar   
    10   18    6 1    
    11    9    7 ar   
    12   19    7 1    
    13   10    8 ar   
    14   20    8 1    
    15   16    9 ar   
    16   21    9 1    
    17   16   10 ar   
    18   22   10 1    
    19   13   11 1    
    20   23   11 1    
    21   24   11 1    
    22   14   12 1    
    23   25   12 1    
    24   26   12 1    
    25   17   13 1    
    26   27   13 1    
    27   28   13 1    
    28   17   14 1    
    29   29   14 1    
    30   30   14 1    
    31   17   16 1    
@<TRIPOS>SUBSTRUCTURE
     1 IT5263      1 GROUP   
@<TRIPOS>SET

