#    Name: 2zb1_GK4_1_INTS_M
#    Modification time : Tue Mar 25 10:27:41 2014

@<TRIPOS>MOLECULE
2zb1_GK4_1_INTS_M
   65     0     6     0     0
SMALL
NO_CHARGES


@<TRIPOS>ATOM
      1 N          45.6425   36.5835   32.7570 N.am      1 SEC2        0.0000 
      2 N          45.7200   34.8960   32.5820 N.am      5 SEL2        0.0000 
      3 N          45.5650   38.2710   32.9320 N.am      3 SEP2        0.0000 
      4 CA         50.3800   32.5520   33.1920 C.3       2 GLC5        0.0000 
      5 CA         49.2800   33.1550   31.4260 C.3       6 GLL5        0.0000 
      6 CA         51.4800   31.9490   34.9580 C.3       4 GLP5        0.0000 
      7 CA         51.1110   35.3405   32.2030 C.3       2 GLC5        0.0000 
      8 CA         50.2910   34.2050   31.0040 C.3       6 GLL5        0.0000 
      9 CA         51.9310   36.4760   33.4020 C.3       4 GLP5        0.0000 
     10 CA         40.2855   33.9520   32.5155 C.3       2 GLC5        0.0000 
     11 CA         42.0360   32.9150   32.1840 C.3       6 GLL5        0.0000 
     12 CA         38.5350   34.9890   32.8470 C.3       4 GLP5        0.0000 
     13 CA         41.3260   32.0220   28.1895 C.3       2 GLC5        0.0000 
     14 CA         39.9510   32.0670   29.7180 C.3       6 GLL5        0.0000 
     15 CA         42.7010   31.9770   26.6610 C.3       4 GLP5        0.0000 
     16 CA         40.8680   33.5665   29.3445 C.3       2 GLC5        0.0000 
     17 CA         41.7850   35.0660   28.9710 C.3       4 GLP5        0.0000 
     18 CA         36.5845   30.6630   30.2085 C.3       2 GLC5        0.0000 
     19 CA         38.5430   30.4580   30.9870 C.3       6 GLL5        0.0000 
     20 CA         34.6260   30.8680   29.4300 C.3       4 GLP5        0.0000 
     21 CA         38.8770   28.2590   30.5985 C.3       2 GLC5        0.0000 
     22 CA         38.3010   29.5920   32.0460 C.3       6 GLL5        0.0000 
     23 CA         39.4530   26.9260   29.1510 C.3       4 GLP5        0.0000 
     24 CA         36.4205   29.0140   31.1245 C.3       2 GLC5        0.0000 
     25 CA         34.5400   28.4360   30.2030 C.3       4 GLP5        0.0000 
     26 CA         41.7610   31.0745   34.2370 C.3       2 GLC5        0.0000 
     27 CA         40.4930   30.0690   32.8940 C.3       6 GLL5        0.0000 
     28 CA         43.0290   32.0800   35.5800 C.3       4 GLP5        0.0000 
     29 N          41.2075   28.0110   35.8525 N.am      1 SEC2        0.0000 
     30 N          40.0380   28.3150   35.0720 N.am      5 SEL2        0.0000 
     31 N          42.3770   27.7070   36.6330 N.am      3 SEP2        0.0000 
     32 N          40.2380   26.3880   36.9825 N.am      1 SEC2        0.0000 
     33 N          39.4920   27.4050   35.9820 N.am      5 SEL2        0.0000 
     34 N          40.9840   25.3710   37.9830 N.am      3 SEP2        0.0000 
     35 CA         35.9590   25.9160   34.3725 C.3       2 GLC5        0.0000 
     36 CA         37.1470   26.3110   35.8800 C.3       6 GLL5        0.0000 
     37 CA         34.7710   25.5210   32.8650 C.3       4 GLP5        0.0000 
     38 CA         36.0315   27.8995   35.5645 C.3       2 GLC5        0.0000 
     39 CA         34.9160   29.4880   35.2490 C.3       4 GLP5        0.0000 
     40 CA         38.0470   26.7080   37.6915 C.3       2 GLC5        0.0000 
     41 CA         38.9470   27.1050   39.5030 C.3       4 GLP5        0.0000 
     42 CA         37.1275   24.6810   35.8150 C.3       2 GLC5        0.0000 
     43 CA         37.1080   23.0510   35.7500 C.3       4 GLP5        0.0000 
     44 CA         48.6933   31.6605   30.7134 C.3       2 GLC5        0.0000 
     45 CA         48.1540   33.8290   32.1750 C.3       6 GLL5        0.0000 
     46 CA         48.3890   29.7390   30.5300 C.3       4 GLP5        0.0000 
     47 CA         44.9057   31.9017   33.5865 C.3       2 GLC5        0.0000 
     48 CA         44.4170   31.5670   31.7720 C.3       6 GLL5        0.0000 
     49 CA         45.3820   31.5480   35.2630 C.3       4 GLP5        0.0000 
     50 CA         44.4270   29.6482   30.7097 C.3       2 GLC5        0.0000 
     51 CA         45.0420   28.0750   29.6920 C.3       4 GLP5        0.0000 
     52 CA         42.8162   31.6505   33.6780 C.3       2 GLC5        0.0000 
     53 CA         43.2070   30.8760   31.6830 C.3       6 GLL5        0.0000 
     54 CA         42.2100   34.1628   30.5970 C.3       2 GLC5        0.0000 
     55 CA         41.7120   34.1073   33.9755 C.3       2 GLC5        0.0000 
     56 CA         40.7890   34.9550   35.7280 C.3       4 GLP5        0.0000 
     57 CA         42.8320   32.6698   33.9015 C.3       2 GLC5        0.0000 
     58 CA         38.9006   32.6239   31.6499 C.3       2 GLC5        0.0000 
     59 CA         37.6970   33.6960   32.7630 C.3       4 GLP5        0.0000 
     60 CA         38.8380   30.3741   28.9902 C.3       2 GLC5        0.0000 
     61 CA         39.7590   31.1380   30.8780 C.3       6 GLL5        0.0000 
     62 CA         38.4770   29.7180   27.3380 C.3       4 GLP5        0.0000 
     63 CA         38.0595   31.8605   32.1397 C.3       2 GLC5        0.0000 
     64 CA         36.9100   29.6075   33.1448 C.3       2 GLC5        0.0000 
     65 CA         35.0240   29.7260   33.7630 C.3       4 GLP5        0.0000 
@<TRIPOS>BOND
@<TRIPOS>SUBSTRUCTURE
     1 SEC2        1 GROUP        1 X    SEC  0     ROOT SEC X 2
     2 GLC5        4 GROUP        1 X    GLC  0     **** GLC X 6
     3 SEP2        3 GROUP        1 Y    SEP  0     ROOT SEP Y 9
     4 GLP5        6 GROUP        1 Y    GLP  0     **** GLP Y 13
     5 SEL2        2 GROUP        1 Z    SEL  0     ROOT SEL Z 16
     6 GLL5        5 GROUP        1 Z    GLL  0     **** GLL Z 20
@<TRIPOS>SET

