#    Name: 2zb1_GK4_1_ligand
#    Modification time : Tue Mar 25 10:27:41 2014

@<TRIPOS>MOLECULE
2zb1_GK4_1_ligand
   47    50     1     0     0
SMALL
NO_CHARGES


@<TRIPOS>ATOM
      1 O2         45.7200   34.8960   32.5820 O.2       1 GK4361      0.0000 
      2 C17        45.7430   33.7180   32.1950 C.2       1 GK4361      0.0000 
      3 N3         46.9130   33.0920   31.9880 N.am      1 GK4361      0.0000 
      4 C18        48.1540   33.8290   32.1750 C.3       1 GK4361      0.0000 
      5 C19        49.2800   33.1550   31.4260 C.3       1 GK4361      0.0000 
      6 C21        49.2780   33.6720   29.9930 C.3       1 GK4361      0.0000 
      7 C20        50.2910   34.2050   31.0040 C.3       1 GK4361      0.0000 
      8 C14        44.4420   32.9440   32.0480 C.ar      1 GK4361      0.0000 
      9 C13        44.4170   31.5670   31.7720 C.ar      1 GK4361      0.0000 
     10 C12        43.2070   30.8760   31.6830 C.ar      1 GK4361      0.0000 
     11 C15        43.2340   33.6040   32.2620 C.ar      1 GK4361      0.0000 
     12 C16        42.0360   32.9150   32.1840 C.ar      1 GK4361      0.0000 
     13 C11        42.0000   31.5660   31.8690 C.ar      1 GK4361      0.0000 
     14 C9         40.7560   30.9350   31.8330 C.ar      1 GK4361      0.0000 
     15 C7         39.7590   31.1380   30.8780 C.ar      1 GK4361      0.0000 
     16 C8         39.9510   32.0670   29.7180 C.3       1 GK4361      0.0000 
     17 C6         38.5430   30.4580   30.9870 C.ar      1 GK4361      0.0000 
     18 C5         38.3010   29.5920   32.0460 C.ar      1 GK4361      0.0000 
     19 C10        40.4930   30.0690   32.8940 C.ar      1 GK4361      0.0000 
     20 C4         39.2910   29.3860   33.0070 C.ar      1 GK4361      0.0000 
     21 C3         39.1150   28.5320   34.1010 C.2       1 GK4361      0.0000 
     22 N2         40.0380   28.3150   35.0720 N.2       1 GK4361      0.0000 
     23 N1         39.4920   27.4050   35.9820 N.2       1 GK4361      0.0000 
     24 O1         38.0990   27.8400   34.3740 O.3       1 GK4361      0.0000 
     25 C2         38.2920   27.1830   35.4370 C.2       1 GK4361      0.0000 
     26 C1         37.1470   26.3110   35.8800 C.3       1 GK4361      0.0000 
     27 H          46.9852   32.1147   31.7028 H         1 GK4361      0.0000 
     28 H          48.4215   33.8778   33.2372 H         1 GK4361      0.0000 
     29 H          48.0557   34.8568   31.8062 H         1 GK4361      0.0000 
     30 H          49.6328   32.3609   31.4841 H         1 GK4361      0.0000 
     31 H          48.5859   34.3114   29.9202 H         1 GK4361      0.0000 
     32 H          49.7212   33.0321   29.4571 H         1 GK4361      0.0000 
     33 H          51.1137   33.7671   30.8406 H         1 GK4361      0.0000 
     34 H          49.9784   35.0463   31.3037 H         1 GK4361      0.0000 
     35 H          45.3060   31.0630   31.6339 H         1 GK4361      0.0000 
     36 H          43.1977   29.8732   31.4836 H         1 GK4361      0.0000 
     37 H          43.2364   34.6125   32.4797 H         1 GK4361      0.0000 
     38 H          41.1452   33.4189   32.3652 H         1 GK4361      0.0000 
     39 H          37.8151   30.6040   30.2672 H         1 GK4361      0.0000 
     40 H          37.4019   29.1064   32.1231 H         1 GK4361      0.0000 
     41 H          41.2252   29.9327   33.6240 H         1 GK4361      0.0000 
     42 H          40.1271   33.0045   30.0182 H         1 GK4361      0.0000 
     43 H          40.7240   31.7923   29.1462 H         1 GK4361      0.0000 
     44 H          39.1447   32.0950   29.1272 H         1 GK4361      0.0000 
     45 H          37.4151   25.3497   35.9430 H         1 GK4361      0.0000 
     46 H          36.8027   26.5788   36.7799 H         1 GK4361      0.0000 
     47 H          36.3761   26.3593   35.2449 H         1 GK4361      0.0000 
@<TRIPOS>BOND
     1    2    1 2    
     2    3    2 am   
     3    8    2 1    
     4    4    3 1    
     5   27    3 1    
     6    5    4 1    
     7   28    4 1    
     8   29    4 1    
     9    6    5 1    
    10    7    5 1    
    11   30    5 1    
    12    7    6 1    
    13   31    6 1    
    14   32    6 1    
    15   33    7 1    
    16   34    7 1    
    17    9    8 ar   
    18   11    8 ar   
    19   10    9 ar   
    20   35    9 1    
    21   13   10 ar   
    22   36   10 1    
    23   12   11 ar   
    24   37   11 1    
    25   13   12 ar   
    26   38   12 1    
    27   14   13 1    
    28   15   14 ar   
    29   19   14 ar   
    30   16   15 1    
    31   17   15 ar   
    32   42   16 1    
    33   43   16 1    
    34   44   16 1    
    35   18   17 ar   
    36   39   17 1    
    37   20   18 ar   
    38   40   18 1    
    39   20   19 ar   
    40   41   19 1    
    41   21   20 1    
    42   22   21 2    
    43   24   21 1    
    44   23   22 1    
    45   25   23 2    
    46   25   24 1    
    47   26   25 1    
    48   45   26 1    
    49   46   26 1    
    50   47   26 1    
@<TRIPOS>SUBSTRUCTURE
     1 GK4361      1 GROUP   
@<TRIPOS>SET

