#    Name: 1e3w_NAD_4_INTS_M
#    Modification time : Mon Mar 24 22:52:35 2014

@<TRIPOS>MOLECULE
1e3w_NAD_4_INTS_M
   96     0     9     0     0
SMALL
NO_CHARGES


@<TRIPOS>ATOM
      1 N           4.6985   53.7685   43.1695 N.am      2 SEC2        0.0000 
      2 N           5.4260   52.8450   42.5910 N.am      8 SEL2        0.0000 
      3 N           3.9710   54.6920   43.7480 N.am      5 SEP2        0.0000 
      4 CA         10.1685   56.0635   44.3105 C.3       3 GLC5        0.0000 
      5 CA          9.1760   55.6660   42.8700 C.3       9 GLL5        0.0000 
      6 CA         11.1610   56.4610   45.7510 C.3       6 GLP5        0.0000 
      7 CA          6.4915   56.0975   43.3770 C.3       3 GLC5        0.0000 
      8 CA          8.1340   56.6260   42.2990 C.3       9 GLL5        0.0000 
      9 CA          4.8490   55.5690   44.4550 C.3       6 GLP5        0.0000 
     10 O           8.3720   58.8175   43.4710 O.2       1 ALC1        0.0000 
     11 O           7.4800   57.3920   43.3720 O.2       7 ALL1        0.0000 
     12 O           9.2640   60.2430   43.5700 O.2       4 ALP1        0.0000 
     13 O           8.2465   58.0545   44.2280 O.2       1 ALC1        0.0000 
     14 O           9.0130   58.7170   45.0840 O.2       4 ALP1        0.0000 
     15 O           8.8920   59.5960   42.4945 O.2       1 ALC1        0.0000 
     16 O           8.5200   58.9490   41.4190 O.2       7 ALL1        0.0000 
     17 CA         10.7605   56.9635   43.9475 C.3       3 GLC5        0.0000 
     18 CA         10.3600   57.4660   42.1440 C.3       9 GLL5        0.0000 
     19 CA         12.0245   56.2935   42.7130 C.3       3 GLC5        0.0000 
     20 CA         13.6890   55.1210   43.2820 C.3       6 GLP5        0.0000 
     21 CA         15.0145   61.6920   41.0515 C.3       3 GLC5        0.0000 
     22 CA         14.2140   59.8170   40.3460 C.3       9 GLL5        0.0000 
     23 CA         15.8150   63.5670   41.7570 C.3       6 GLP5        0.0000 
     24 CA         15.8400   59.2235   40.9910 C.3       3 GLC5        0.0000 
     25 CA         17.4660   58.6300   41.6360 C.3       6 GLP5        0.0000 
     26 O          15.9190   61.2675   39.2550 O.2       1 ALC1        0.0000 
     27 O          15.0470   60.0670   39.3040 O.2       7 ALL1        0.0000 
     28 O          16.7910   62.4680   39.2060 O.2       4 ALP1        0.0000 
     29 N          15.7890   60.9875   41.8465 N.am      2 SEC2        0.0000 
     30 N          14.4820   60.4830   41.5350 N.am      8 SEL2        0.0000 
     31 N          17.0960   61.4920   42.1580 N.am      5 SEP2        0.0000 
     32 CA         12.3835   60.8810   44.0790 C.3       3 GLC5        0.0000 
     33 CA         13.6700   60.2220   42.5830 C.3       9 GLL5        0.0000 
     34 CA         11.0970   61.5400   45.5750 C.3       6 GLP5        0.0000 
     35 CA         12.6395   61.4525   41.6970 C.3       3 GLC5        0.0000 
     36 CA         11.6090   62.6830   40.8110 C.3       6 GLP5        0.0000 
     37 CA         14.7425   61.8945   42.1700 C.3       3 GLC5        0.0000 
     38 CA         15.4060   59.7185   43.3160 C.3       3 GLC5        0.0000 
     39 CA         17.1420   59.2150   44.0490 C.3       6 GLP5        0.0000 
     40 CA         14.0800   58.3100   43.0015 C.3       3 GLC5        0.0000 
     41 CA         14.4900   56.3980   43.4200 C.3       6 GLP5        0.0000 
     42 N           6.1705   48.9835   41.9865 N.am      2 SEC2        0.0000 
     43 N           7.4220   49.1910   42.2440 N.am      8 SEL2        0.0000 
     44 N           4.9190   48.7760   41.7290 N.am      5 SEP2        0.0000 
     45 N           7.3200   50.6455   45.4305 N.am      2 SEC2        0.0000 
     46 N           7.7260   50.8950   44.1350 N.am      8 SEL2        0.0000 
     47 N           6.9140   50.3960   46.7260 N.am      5 SEP2        0.0000 
     48 CA         11.4050   51.4290   45.1785 C.3       3 GLC5        0.0000 
     49 CA         10.4710   50.6020   43.6420 C.3       9 GLL5        0.0000 
     50 CA         12.3390   52.2560   46.7150 C.3       6 GLP5        0.0000 
     51 CA         12.6965   51.0980   44.6085 C.3       3 GLC5        0.0000 
     52 CA         11.7500   49.8750   43.2800 C.3       9 GLL5        0.0000 
     53 CA         13.6430   52.3210   45.9370 C.3       6 GLP5        0.0000 
     54 CA         12.8910   48.5265   44.0355 C.3       3 GLC5        0.0000 
     55 CA         14.0320   47.1780   44.7910 C.3       6 GLP5        0.0000 
     56 CA         12.8755   51.9260   40.8710 C.3       3 GLC5        0.0000 
     57 CA         12.2260   50.2790   41.8940 C.3       9 GLL5        0.0000 
     58 CA         13.5250   53.5730   39.8480 C.3       6 GLP5        0.0000 
     59 N          14.6620   49.5645   41.3510 N.am      2 SEC2        0.0000 
     60 N          13.6550   50.3300   42.0220 N.am      8 SEL2        0.0000 
     61 N          15.6690   48.7990   40.6800 N.am      5 SEP2        0.0000 
     62 CA         13.7825   48.5905   40.1935 C.3       3 GLC5        0.0000 
     63 CA         11.8140   49.1230   41.0160 C.3       9 GLL5        0.0000 
     64 CA         15.7510   48.0580   39.3710 C.3       6 GLP5        0.0000 
     65 CA         10.2880   48.9490   39.7885 C.3       3 GLC5        0.0000 
     66 CA          8.7620   48.7750   38.5610 C.3       6 GLP5        0.0000 
     67 N          12.6480   47.9385   39.1960 N.am      2 SEC2        0.0000 
     68 N          12.7480   49.0200   39.9370 N.am      8 SEL2        0.0000 
     69 N          12.5480   46.8570   38.4550 N.am      5 SEP2        0.0000 
     70 N          14.2085   48.9095   40.3085 N.am      2 SEC2        0.0000 
     71 CA         10.8600   47.5305   43.8240 C.3       3 GLC5        0.0000 
     72 CA         11.9920   47.9560   42.0280 C.3       9 GLL5        0.0000 
     73 CA          9.7280   47.1050   45.6200 C.3       6 GLP5        0.0000 
     74 CA         13.0120   47.5670   43.4095 C.3       3 GLC5        0.0000 
     75 CA          9.7735   46.9710   43.5895 C.3       3 GLC5        0.0000 
     76 CA          9.8190   46.8370   41.5590 C.3       9 GLL5        0.0000 
     77 N           6.3955   43.6245   41.2995 N.am      2 SEC2        0.0000 
     78 N           7.1510   44.4830   40.5150 N.am      8 SEL2        0.0000 
     79 N           5.6400   42.7660   42.0840 N.am      5 SEP2        0.0000 
     80 CA         13.0035   46.3860   43.1225 C.3       3 GLC5        0.0000 
     81 CA         11.9750   45.5940   41.4540 C.3       9 GLL5        0.0000 
     82 CA         12.0620   44.8260   43.1435 C.3       3 GLC5        0.0000 
     83 CA         12.1490   44.0580   44.8330 C.3       6 GLP5        0.0000 
     84 CA         13.6275   57.6287   42.1575 C.3       3 GLC5        0.0000 
     85 CA         13.1260   58.9390   40.3050 C.3       9 GLL5        0.0000 
     86 CA         14.6560   57.9980   39.2152 C.3       3 GLC5        0.0000 
     87 CA         15.6420   56.6180   38.1050 C.3       6 GLP5        0.0000 
     88 CA         12.3230   60.8810   40.8581 C.3       3 GLC5        0.0000 
     89 CA         10.4192   48.6717   44.5405 C.3       3 GLC5        0.0000 
     90 CA          9.1295   47.5125   39.9718 C.3       3 GLC5        0.0000 
     91 CA         10.8285   43.7585   42.6825 C.3       3 GLC5        0.0000 
     92 CA          9.8240   44.4030   40.9460 C.3       9 GLL5        0.0000 
     93 CA         11.1320   43.0700   44.3280 C.3       6 GLP5        0.0000 
     94 CA         13.1438   44.3468   40.3830 C.3       3 GLC5        0.0000 
     95 CA         11.2260   44.4910   41.1280 C.3       9 GLL5        0.0000 
     96 CA         14.6870   43.6510   39.4750 C.3       6 GLP5        0.0000 
@<TRIPOS>BOND
@<TRIPOS>SUBSTRUCTURE
     1 ALC1       10 GROUP        1 X    ALC  0     ROOT ALC X 1
     2 SEC2        1 GROUP        1 X    SEC  0     **** SEC X 2
     3 GLC5        4 GROUP        1 X    GLC  0     **** GLC X 6
     4 ALP1       12 GROUP        1 Y    ALP  0     ROOT ALP Y 8
     5 SEP2        3 GROUP        1 Y    SEP  0     **** SEP Y 9
     6 GLP5        6 GROUP        1 Y    GLP  0     **** GLP Y 13
     7 ALL1       11 GROUP        1 Z    ALL  0     ROOT ALL Z 15
     8 SEL2        2 GROUP        1 Z    SEL  0     **** SEL Z 16
     9 GLL5        5 GROUP        1 Z    GLL  0     **** GLL Z 20
@<TRIPOS>SET

