#    Name: 1e3w_NAD_4_ligand
#    Modification time : Mon Mar 24 22:52:35 2014

@<TRIPOS>MOLECULE
1e3w_NAD_4_ligand
   70    74     1     0     0
SMALL
NO_CHARGES


@<TRIPOS>ATOM
      1 PA          6.7300   53.0130   41.9120 P.3       1 NAD301      0.0000 
      2 O1A         6.7040   53.6320   40.5250 O.co2     1 NAD301      0.0000 
      3 O2A         5.4260   52.8450   42.5910 O.co2     1 NAD301      0.0000 
      4 O5B         7.7310   53.7970   42.7880 O.3       1 NAD301      0.0000 
      5 C5B         9.0700   54.2400   42.3620 C.3       1 NAD301      0.0000 
      6 C4B         9.1760   55.6660   42.8700 C.3       1 NAD301      0.0000 
      7 O4B        10.4630   56.0960   42.4650 O.3       1 NAD301      0.0000 
      8 C3B         8.1340   56.6260   42.2990 C.3       1 NAD301      0.0000 
      9 O3B         7.4800   57.3920   43.3720 O.3       1 NAD301      0.0000 
     10 C2B         8.9790   57.5750   41.4470 C.3       1 NAD301      0.0000 
     11 O2B         8.5200   58.9490   41.4190 O.3       1 NAD301      0.0000 
     12 C1B        10.3600   57.4660   42.1440 C.3       1 NAD301      0.0000 
     13 N9A        11.4120   57.8570   41.2160 N.pl3     1 NAD301      0.0000 
     14 C8A        11.5550   57.4980   39.8550 C.2       1 NAD301      0.0000 
     15 N7A        12.5840   58.1420   39.3450 N.2       1 NAD301      0.0000 
     16 C5A        13.1260   58.9390   40.3050 C.ar      1 NAD301      0.0000 
     17 C6A        14.2140   59.8170   40.3460 C.ar      1 NAD301      0.0000 
     18 N6A        15.0470   60.0670   39.3040 N.pl3     1 NAD301      0.0000 
     19 N1A        14.4820   60.4830   41.5350 N.ar      1 NAD301      0.0000 
     20 C2A        13.6700   60.2220   42.5830 C.ar      1 NAD301      0.0000 
     21 N3A        12.6170   59.4290   42.6630 N.ar      1 NAD301      0.0000 
     22 C4A        12.4040   58.7800   41.4850 C.ar      1 NAD301      0.0000 
     23 O3          7.4330   51.5640   41.6860 O.3       1 NAD301      0.0000 
     24 PN          7.9340   50.5150   42.7360 P.3       1 NAD301      0.0000 
     25 O1N         7.4220   49.1910   42.2440 O.co2     1 NAD301      0.0000 
     26 O2N         7.7260   50.8950   44.1350 O.co2     1 NAD301      0.0000 
     27 O5D         9.5890   50.5710   42.5300 O.3       1 NAD301      0.0000 
     28 C5D        10.4710   50.6020   43.6420 C.3       1 NAD301      0.0000 
     29 C4D        11.7500   49.8750   43.2800 C.3       1 NAD301      0.0000 
     30 O4D        11.3330   48.4650   43.1670 O.3       1 NAD301      0.0000 
     31 C3D        12.2260   50.2790   41.8940 C.3       1 NAD301      0.0000 
     32 O3D        13.6550   50.3300   42.0220 O.3       1 NAD301      0.0000 
     33 C2D        11.8140   49.1230   41.0160 C.3       1 NAD301      0.0000 
     34 O2D        12.7480   49.0200   39.9370 O.3       1 NAD301      0.0000 
     35 C1D        11.9920   47.9560   42.0280 C.3       1 NAD301      0.0000 
     36 N1N        11.1530   46.7610   41.6930 N.pl3     1 NAD301      0.0000 
     37 C2N         9.8190   46.8370   41.5590 C.ar      1 NAD301      0.0000 
     38 C3N         9.1750   45.6630   41.2060 C.ar      1 NAD301      0.0000 
     39 C7N         7.6680   45.4820   41.0050 C.2       1 NAD301      0.0000 
     40 O7N         7.1510   44.4830   40.5150 O.2       1 NAD301      0.0000 
     41 N7N         6.9470   46.5440   41.4730 N.am      1 NAD301      0.0000 
     42 C4N         9.8240   44.4030   40.9460 C.ar      1 NAD301      0.0000 
     43 C5N        11.2260   44.4910   41.1280 C.ar      1 NAD301      0.0000 
     44 C6N        11.9750   45.5940   41.4540 C.ar      1 NAD301      0.0000 
     45 H           9.1527   54.2397   41.2949 H         1 NAD301      0.0000 
     46 H           9.8340   53.6460   42.8192 H         1 NAD301      0.0000 
     47 H           9.1057   55.6564   43.9416 H         1 NAD301      0.0000 
     48 H           7.4732   56.1093   41.6875 H         1 NAD301      0.0000 
     49 H           9.0936   57.1394   40.4789 H         1 NAD301      0.0000 
     50 H          10.3302   58.0776   43.0029 H         1 NAD301      0.0000 
     51 H          10.9620   56.8734   39.4198 H         1 NAD301      0.0000 
     52 H          15.8003   60.6993   39.4848 H         1 NAD301      0.0000 
     53 H          14.8338   59.5968   38.4476 H         1 NAD301      0.0000 
     54 H          13.9393   60.7648   43.5192 H         1 NAD301      0.0000 
     55 H          10.0383   50.1091   44.5197 H         1 NAD301      0.0000 
     56 H          10.7332   51.6272   43.9262 H         1 NAD301      0.0000 
     57 H          12.4751   50.0015   43.9920 H         1 NAD301      0.0000 
     58 H          11.7853   51.1539   41.6144 H         1 NAD301      0.0000 
     59 H          10.8262   49.2063   40.7648 H         1 NAD301      0.0000 
     60 H          12.9650   47.7428   42.1838 H         1 NAD301      0.0000 
     61 H           9.2970   47.6904   41.7027 H         1 NAD301      0.0000 
     62 H           7.4757   47.2930   41.8725 H         1 NAD301      0.0000 
     63 H           5.9539   46.4791   41.3750 H         1 NAD301      0.0000 
     64 H           9.3544   43.6121   40.6835 H         1 NAD301      0.0000 
     65 H          11.7634   43.5566   40.9880 H         1 NAD301      0.0000 
     66 H          12.9397   45.6280   41.5258 H         1 NAD301      0.0000 
     67 H           8.2300   57.7989   43.8934 H         1 NAD301      0.0000 
     68 H           8.4164   59.2068   42.3796 H         1 NAD301      0.0000 
     69 H          13.8973   49.5125   42.5446 H         1 NAD301      0.0000 
     70 H          12.2962   49.4601   39.1610 H         1 NAD301      0.0000 
@<TRIPOS>BOND
     1    2    1 ar   
     2    3    1 ar   
     3    4    1 1    
     4   23    1 1    
     5    5    4 1    
     6    6    5 1    
     7   45    5 1    
     8   46    5 1    
     9    7    6 1    
    10    8    6 1    
    11   47    6 1    
    12   12    7 1    
    13    9    8 1    
    14   10    8 1    
    15   48    8 1    
    16   67    9 1    
    17   11   10 1    
    18   12   10 1    
    19   49   10 1    
    20   68   11 1    
    21   13   12 1    
    22   50   12 1    
    23   14   13 1    
    24   22   13 1    
    25   15   14 2    
    26   51   14 1    
    27   16   15 1    
    28   17   16 ar   
    29   22   16 ar   
    30   18   17 1    
    31   19   17 ar   
    32   52   18 1    
    33   53   18 1    
    34   20   19 ar   
    35   21   20 ar   
    36   54   20 1    
    37   22   21 ar   
    38   24   23 1    
    39   25   24 ar   
    40   26   24 ar   
    41   27   24 1    
    42   28   27 1    
    43   29   28 1    
    44   55   28 1    
    45   56   28 1    
    46   30   29 1    
    47   31   29 1    
    48   57   29 1    
    49   35   30 1    
    50   32   31 1    
    51   33   31 1    
    52   58   31 1    
    53   69   32 1    
    54   34   33 1    
    55   35   33 1    
    56   59   33 1    
    57   70   34 1    
    58   36   35 1    
    59   60   35 1    
    60   37   36 ar   
    61   44   36 ar   
    62   38   37 ar   
    63   61   37 1    
    64   39   38 1    
    65   42   38 ar   
    66   40   39 2    
    67   41   39 am   
    68   62   41 1    
    69   63   41 1    
    70   43   42 ar   
    71   64   42 1    
    72   44   43 ar   
    73   65   43 1    
    74   66   44 1    
@<TRIPOS>SUBSTRUCTURE
     1 NAD301      1 GROUP   
@<TRIPOS>SET

