#    Name: 4agd_B49_1_INTS_M
#    Modification time : Tue Mar 25 05:33:43 2014

@<TRIPOS>MOLECULE
4agd_B49_1_INTS_M
   63     0     9     0     0
SMALL
NO_CHARGES


@<TRIPOS>ATOM
      1 CA         49.2390    0.8300  -17.2385 C.3       3 GLC5        0.0000 
      2 CA         50.6820    0.3670  -16.1610 C.3       9 GLL5        0.0000 
      3 CA         47.7960    1.2930  -18.3160 C.3       6 GLP5        0.0000 
      4 CA         50.2960    2.3865  -15.7460 C.3       3 GLC5        0.0000 
      5 CA         49.9100    4.4060  -15.3310 C.3       6 GLP5        0.0000 
      6 CA         45.4170   -4.5400  -10.3645 C.3       3 GLC5        0.0000 
      7 CA         45.2970   -4.6700  -12.5600 C.3       9 GLL5        0.0000 
      8 CA         45.5370   -4.4100   -8.1690 C.3       6 GLP5        0.0000 
      9 CA         49.7895   -5.3165  -12.8250 C.3       3 GLC5        0.0000 
     10 CA         50.6720   -4.6410  -14.2650 C.3       9 GLL5        0.0000 
     11 CA         48.9070   -5.9920  -11.3850 C.3       6 GLP5        0.0000 
     12 CA         48.1940   -2.6070  -12.0380 C.3       3 GLC5        0.0000 
     13 CA         47.9450   -3.1720  -14.0210 C.3       9 GLL5        0.0000 
     14 CA         48.4430   -2.0420  -10.0550 C.3       6 GLP5        0.0000 
     15 CA         48.4260   -4.5820  -12.7030 C.3       3 GLC5        0.0000 
     16 CA         43.8750   -2.1035  -15.1750 C.3       3 GLC5        0.0000 
     17 CA         44.3520   -2.4790  -13.2330 C.3       9 GLL5        0.0000 
     18 CA         43.3980   -1.7280  -17.1170 C.3       6 GLP5        0.0000 
     19 CA         43.2670   -1.6135  -11.4635 C.3       3 GLC5        0.0000 
     20 CA         42.1820   -0.7480   -9.6940 C.3       6 GLP5        0.0000 
     21 CA         50.5755   -2.1130  -17.1600 C.3       3 GLC5        0.0000 
     22 CA         51.2780   -2.1530  -15.3750 C.3       9 GLL5        0.0000 
     23 CA         49.8730   -2.0730  -18.9450 C.3       6 GLP5        0.0000 
     24 O          43.6545   -0.3010  -13.9225 O.2       1 ALC1        0.0000 
     25 O          44.6980   -1.3280  -13.8490 O.2       7 ALL1        0.0000 
     26 O          42.6110    0.7260  -13.9960 O.2       4 ALP1        0.0000 
     27 N          46.3085    0.9250  -14.6010 N.am      2 SEC2        0.0000 
     28 N          46.5690   -0.5000  -14.7920 N.am      8 SEL2        0.0000 
     29 N          46.0480    2.3500  -14.4100 N.am      5 SEP2        0.0000 
     30 CA         43.2975   -7.0565   -9.5030 C.3       3 GLC5        0.0000 
     31 CA         43.8400   -6.2100  -11.4410 C.3       9 GLL5        0.0000 
     32 CA         42.7550   -7.9030   -7.5650 C.3       6 GLP5        0.0000 
     33 CA         50.2160   -1.2015  -17.4032 C.3       3 GLC5        0.0000 
     34 CA         50.4360   -1.0270  -15.5620 C.3       9 GLL5        0.0000 
     35 CA         50.9945   -0.2470  -13.9608 C.3       3 GLC5        0.0000 
     36 CA         51.4300   -0.1640  -12.0600 C.3       6 GLP5        0.0000 
     37 CA         41.5915   -2.3935  -11.6702 C.3       3 GLC5        0.0000 
     38 CA         42.9760   -4.0970  -12.0930 C.3       9 GLL5        0.0000 
     39 CA         40.1410   -1.3300  -10.9460 C.3       6 GLP5        0.0000 
     40 CA         45.3492   -3.1590  -11.3618 C.3       3 GLC5        0.0000 
     41 CA         46.0220   -1.4700  -10.4330 C.3       6 GLP5        0.0000 
     42 CA         49.9270   -4.0968  -16.2218 C.3       3 GLC5        0.0000 
     43 CA         50.4040   -3.1660  -14.7440 C.3       9 GLL5        0.0000 
     44 CA         49.3160   -4.2900  -17.9390 C.3       6 GLP5        0.0000 
     45 CA         44.4725   -7.3280  -11.0695 C.3       3 GLC5        0.0000 
     46 CA         44.0560   -5.0260  -12.0210 C.3       9 GLL5        0.0000 
     47 CA         44.9970   -9.0380  -10.4080 C.3       6 GLP5        0.0000 
     48 CA         45.4290   -4.1482  -15.1252 C.3       3 GLC5        0.0000 
     49 CA         45.4340   -3.3660  -13.1770 C.3       9 GLL5        0.0000 
     50 CA         44.8300   -5.2720  -16.7430 C.3       6 GLP5        0.0000 
     51 CA         46.0250   -2.2473  -11.9703 C.3       3 GLC5        0.0000 
     52 CA         48.9303   -3.5745  -16.1285 C.3       3 GLC5        0.0000 
     53 CA         42.0355   -2.8480  -13.8379 C.3       3 GLC5        0.0000 
     54 CA         40.3740   -2.7280  -14.8620 C.3       6 GLP5        0.0000 
     55 CA         44.8595   -2.2190  -11.6234 C.3       3 GLC5        0.0000 
     56 CA         43.1080   -2.8170  -12.6960 C.3       9 GLL5        0.0000 
     57 CA         50.9780   -1.3342  -13.5436 C.3       3 GLC5        0.0000 
     58 CA         44.6146   -6.4725  -13.6799 C.3       3 GLC5        0.0000 
     59 CA         44.9710   -7.4160  -15.4940 C.3       6 GLP5        0.0000 
     60 CA         42.2375   -6.1094  -12.3265 C.3       3 GLC5        0.0000 
     61 CA         40.7970   -6.8330  -12.9040 C.3       6 GLP5        0.0000 
     62 CA         43.7505   -4.6019   -9.9905 C.3       3 GLC5        0.0000 
     63 CA         43.8230   -3.8180   -8.2320 C.3       6 GLP5        0.0000 
@<TRIPOS>BOND
@<TRIPOS>SUBSTRUCTURE
     1 ALC1       24 GROUP        1 X    ALC  0     ROOT ALC X 1
     2 SEC2       27 GROUP        1 X    SEC  0     **** SEC X 2
     3 GLC5        1 GROUP        1 X    GLC  0     **** GLC X 6
     4 ALP1       26 GROUP        1 Y    ALP  0     ROOT ALP Y 8
     5 SEP2       29 GROUP        1 Y    SEP  0     **** SEP Y 9
     6 GLP5        3 GROUP        1 Y    GLP  0     **** GLP Y 13
     7 ALL1       25 GROUP        1 Z    ALL  0     ROOT ALL Z 15
     8 SEL2       28 GROUP        1 Z    SEL  0     **** SEL Z 16
     9 GLL5        2 GROUP        1 Z    GLL  0     **** GLL Z 20
@<TRIPOS>SET

