#    Name: 4agd_B49_1_ligand
#    Modification time : Tue Mar 25 05:33:43 2014

@<TRIPOS>MOLECULE
4agd_B49_1_ligand
   57    59     1     0     0
SMALL
NO_CHARGES


@<TRIPOS>ATOM
      1 C4         50.6820    0.3670  -16.1610 C.3       1 B492000     0.0000 
      2 C5         42.9760   -4.0970  -12.0930 C.ar      1 B492000     0.0000 
      3 C6         43.1080   -2.8170  -12.6960 C.ar      1 B492000     0.0000 
      4 C7         45.2970   -4.6700  -12.5600 C.ar      1 B492000     0.0000 
      5 C13        50.4040   -3.1660  -14.7440 C.2       1 B492000     0.0000 
      6 C15        44.0560   -5.0260  -12.0210 C.ar      1 B492000     0.0000 
      7 C17        45.4340   -3.3660  -13.1770 C.ar      1 B492000     0.0000 
      8 C20        46.6220   -2.6830  -13.8380 C.2       1 B492000     0.0000 
      9 C21        46.0000   -1.3910  -14.2210 C.2       1 B492000     0.0000 
     10 C22        52.7490   -2.2040  -15.7730 C.2       1 B492000     0.0000 
     11 C3         50.6720   -4.6410  -14.2650 C.3       1 B492000     0.0000 
     12 C12        47.9450   -3.1720  -14.0210 C.2       1 B492000     0.0000 
     13 C14        50.4360   -1.0270  -15.5620 C.2       1 B492000     0.0000 
     14 C16        44.3520   -2.4790  -13.2330 C.ar      1 B492000     0.0000 
     15 C18        49.1440   -2.5460  -14.6150 C.2       1 B492000     0.0000 
     16 C19        51.2780   -2.1530  -15.3750 C.2       1 B492000     0.0000 
     17 N23        49.2210   -1.3050  -15.1090 N.pl3     1 B492000     0.0000 
     18 N24        44.6980   -1.3280  -13.8490 N.am      1 B492000     0.0000 
     19 N25        53.3480   -1.1340  -16.3410 N.am      1 B492000     0.0000 
     20 O27        46.5690   -0.5000  -14.7920 O.2       1 B492000     0.0000 
     21 O28        53.4890   -3.1810  -15.6130 O.2       1 B492000     0.0000 
     22 F29        43.8400   -6.2100  -11.4410 F         1 B492000     0.0000 
     23 C37        54.7670   -1.1510  -16.7250 C.3       1 B492000     0.0000 
     24 C38        55.7440   -0.0290  -16.2620 C.3       1 B492000     0.0000 
     25 N4         57.0620   -0.2560  -16.9650 N.4       1 B492000     0.0000 
     26 C39        58.1790   -0.1130  -15.9310 C.3       1 B492000     0.0000 
     27 C40        57.2000    0.6510  -18.2320 C.3       1 B492000     0.0000 
     28 C41        57.1470    0.0830  -19.6840 C.3       1 B492000     0.0000 
     29 C42        59.6930   -0.4920  -16.2000 C.3       1 B492000     0.0000 
     30 H          42.0615   -4.3678  -11.6897 H         1 B492000     0.0000 
     31 H          42.3263   -2.1852  -12.7291 H         1 B492000     0.0000 
     32 H          46.0902   -5.2889  -12.5314 H         1 B492000     0.0000 
     33 H          48.1249   -4.1907  -13.6646 H         1 B492000     0.0000 
     34 H          48.4546   -0.6713  -15.1310 H         1 B492000     0.0000 
     35 H          44.1088   -0.5724  -14.0026 H         1 B492000     0.0000 
     36 H          52.8362   -0.2532  -16.5321 H         1 B492000     0.0000 
     37 H          54.8556   -1.2034  -17.8601 H         1 B492000     0.0000 
     38 H          55.2385   -2.1377  -16.4039 H         1 B492000     0.0000 
     39 H          55.8687   -0.1023  -15.1982 H         1 B492000     0.0000 
     40 H          55.3292    0.9213  -16.5403 H         1 B492000     0.0000 
     41 H          57.0642   -1.3068  -17.3109 H         1 B492000     0.0000 
     42 H          57.8695   -0.6822  -14.9870 H         1 B492000     0.0000 
     43 H          58.1820    0.9677  -15.5527 H         1 B492000     0.0000 
     44 H          58.1689    1.2352  -18.1277 H         1 B492000     0.0000 
     45 H          56.4122    1.4660  -18.1538 H         1 B492000     0.0000 
     46 H          51.3925    0.8648  -15.6636 H         1 B492000     0.0000 
     47 H          50.9746    0.3146  -17.1158 H         1 B492000     0.0000 
     48 H          49.8573    0.9320  -16.1378 H         1 B492000     0.0000 
     49 H          51.6168   -4.9209  -14.4352 H         1 B492000     0.0000 
     50 H          50.5064   -4.7490  -13.2847 H         1 B492000     0.0000 
     51 H          50.0825   -5.2973  -14.7359 H         1 B492000     0.0000 
     52 H          57.2547    0.8037  -20.3689 H         1 B492000     0.0000 
     53 H          57.8711   -0.5871  -19.8473 H         1 B492000     0.0000 
     54 H          56.2774   -0.3732  -19.8728 H         1 B492000     0.0000 
     55 H          60.0807    0.0393  -16.9533 H         1 B492000     0.0000 
     56 H          60.2660   -0.3243  -15.3978 H         1 B492000     0.0000 
     57 H          59.7975   -1.4576  -16.4382 H         1 B492000     0.0000 
@<TRIPOS>BOND
     1   13    1 1    
     2   46    1 1    
     3   47    1 1    
     4   48    1 1    
     5    3    2 ar   
     6    6    2 ar   
     7   30    2 1    
     8   14    3 ar   
     9   31    3 1    
    10    6    4 ar   
    11    7    4 ar   
    12   32    4 1    
    13   11    5 1    
    14   15    5 2    
    15   16    5 1    
    16   22    6 1    
    17    8    7 1    
    18   14    7 ar   
    19    9    8 1    
    20   12    8 2    
    21   18    9 am   
    22   20    9 2    
    23   16   10 1    
    24   19   10 am   
    25   21   10 2    
    26   49   11 1    
    27   50   11 1    
    28   51   11 1    
    29   15   12 1    
    30   33   12 1    
    31   16   13 2    
    32   17   13 1    
    33   18   14 1    
    34   17   15 1    
    35   34   17 1    
    36   35   18 1    
    37   23   19 1    
    38   36   19 1    
    39   24   23 1    
    40   37   23 1    
    41   38   23 1    
    42   25   24 1    
    43   39   24 1    
    44   40   24 1    
    45   26   25 1    
    46   27   25 1    
    47   41   25 1    
    48   29   26 1    
    49   42   26 1    
    50   43   26 1    
    51   28   27 1    
    52   44   27 1    
    53   45   27 1    
    54   52   28 1    
    55   53   28 1    
    56   54   28 1    
    57   55   29 1    
    58   56   29 1    
    59   57   29 1    
@<TRIPOS>SUBSTRUCTURE
     1 B492000     1 GROUP   
@<TRIPOS>SET

