#    Name: 2q70_DC8_1_INTS_M
#    Modification time : Mon Mar 24 20:56:22 2014

@<TRIPOS>MOLECULE
2q70_DC8_1_INTS_M
   62     0     9     0     0
SMALL
NO_CHARGES


@<TRIPOS>ATOM
      1 CA          9.9720   51.6810   58.1900 C.3       3 GLC5        0.0000 
      2 CA         10.5620   51.6960   59.9340 C.3       9 GLL5        0.0000 
      3 CA          9.3820   51.6660   56.4460 C.3       6 GLP5        0.0000 
      4 CA         10.0965   52.5765   63.4585 C.3       3 GLC5        0.0000 
      5 CA         11.2730   51.1800   62.3790 C.3       9 GLL5        0.0000 
      6 CA          8.9200   53.9730   64.5380 C.3       6 GLP5        0.0000 
      7 CA          7.8410   49.7995   58.3180 C.3       3 GLC5        0.0000 
      8 CA          8.3050   50.5220   60.0900 C.3       9 GLL5        0.0000 
      9 CA          7.3770   49.0770   56.5460 C.3       6 GLP5        0.0000 
     10 CA          6.0145   49.5320   58.8715 C.3       3 GLC5        0.0000 
     11 CA          6.9350   50.5270   60.3570 C.3       9 GLL5        0.0000 
     12 CA          5.0940   48.5370   57.3860 C.3       6 GLP5        0.0000 
     13 CA         11.6335   47.9385   57.1365 C.3       3 GLC5        0.0000 
     14 CA         12.6390   49.3120   58.1980 C.3       9 GLL5        0.0000 
     15 CA         10.6280   46.5650   56.0750 C.3       6 GLP5        0.0000 
     16 CA         13.3900   54.1890   63.9175 C.3       3 GLC5        0.0000 
     17 CA         12.3120   52.4470   64.1220 C.3       9 GLL5        0.0000 
     18 CA         14.4680   55.9310   63.7130 C.3       6 GLP5        0.0000 
     19 CA         10.6160   53.2100   64.3300 C.3       3 GLC5        0.0000 
     20 CA         11.9585   51.1750   65.8555 C.3       3 GLC5        0.0000 
     21 CA         11.6050   49.9030   67.5890 C.3       6 GLP5        0.0000 
     22 CA         12.2665   50.0880   65.7270 C.3       3 GLC5        0.0000 
     23 CA         12.9280   50.2730   63.8650 C.3       9 GLL5        0.0000 
     24 CA         14.0360   50.5695   65.3340 C.3       3 GLC5        0.0000 
     25 CA         15.1440   50.8660   66.8030 C.3       6 GLP5        0.0000 
     26 CA         14.0575   53.8875   62.9505 C.3       3 GLC5        0.0000 
     27 CA         13.6470   51.8440   62.1880 C.3       9 GLL5        0.0000 
     28 CA         15.8615   52.4720   59.0665 C.3       3 GLC5        0.0000 
     29 CA         14.6420   50.8900   59.4060 C.3       9 GLL5        0.0000 
     30 CA         17.0810   54.0540   58.7270 C.3       6 GLP5        0.0000 
     31 CA         14.4575   51.3415   57.2450 C.3       3 GLC5        0.0000 
     32 CA         14.2730   51.7930   55.0840 C.3       6 GLP5        0.0000 
     33 N           4.1570   51.8750   59.8310 N.am      2 SEC2        0.0000 
     34 N           4.9970   51.7140   61.0400 N.am      8 SEL2        0.0000 
     35 N           3.3170   52.0360   58.6220 N.am      5 SEP2        0.0000 
     36 O           4.7885   52.7905   61.6445 O.2       1 ALC1        0.0000 
     37 O           4.9970   51.7140   61.0400 O.2       7 ALL1        0.0000 
     38 O           4.5800   53.8670   62.2490 O.2       4 ALP1        0.0000 
     39 O          17.3760   49.8930   58.8135 O.2       1 ALC1        0.0000 
     40 O          16.2800   49.7080   58.0850 O.2       7 ALL1        0.0000 
     41 O          18.4720   50.0780   59.5420 O.2       4 ALP1        0.0000 
     42 CA         14.8353   53.2993   60.8675 C.3       3 GLC5        0.0000 
     43 CA         16.3810   54.5980   60.2320 C.3       6 GLP5        0.0000 
     44 CA         12.0286   53.9235   59.9693 C.3       3 GLC5        0.0000 
     45 CA         12.9320   52.1570   60.8180 C.3       9 GLL5        0.0000 
     46 CA         12.0980   55.8100   59.2520 C.3       6 GLP5        0.0000 
     47 CA          6.5395   50.0094   62.0609 C.3       3 GLC5        0.0000 
     48 CA          6.3100   51.7130   60.7780 C.3       9 GLL5        0.0000 
     49 CA          6.1140   48.9000   63.6210 C.3       6 GLP5        0.0000 
     50 CA          6.8252   54.6260   60.0870 C.3       3 GLC5        0.0000 
     51 CA          7.0620   52.9010   60.9240 C.3       9 GLL5        0.0000 
     52 CA          5.9030   56.3530   59.3850 C.3       6 GLP5        0.0000 
     53 CA          8.3338   53.4360   62.6635 C.3       3 GLC5        0.0000 
     54 CA         13.6960   47.3330   57.7140 C.3       3 GLC5        0.0000 
     55 CA         13.9750   49.1260   57.8400 C.3       9 GLL5        0.0000 
     56 CA         14.0850   45.4470   57.4090 C.3       6 GLP5        0.0000 
     57 CA         13.9162   50.6035   56.6266 C.3       3 GLC5        0.0000 
     58 CA         11.4430   49.2206   63.5195 C.3       3 GLC5        0.0000 
     59 CA         10.4680   47.6520   63.7130 C.3       6 GLP5        0.0000 
     60 CA         14.5726   52.1358   63.9926 C.3       3 GLC5        0.0000 
     61 CA         12.5430   51.4310   63.1950 C.3       9 GLL5        0.0000 
     62 CA         16.1080   52.3800   65.0620 C.3       6 GLP5        0.0000 
@<TRIPOS>BOND
@<TRIPOS>SUBSTRUCTURE
     1 ALC1       36 GROUP        1 X    ALC  0     ROOT ALC X 1
     2 SEC2       33 GROUP        1 X    SEC  0     **** SEC X 2
     3 GLC5        1 GROUP        1 X    GLC  0     **** GLC X 6
     4 ALP1       38 GROUP        1 Y    ALP  0     ROOT ALP Y 8
     5 SEP2       35 GROUP        1 Y    SEP  0     **** SEP Y 9
     6 GLP5        3 GROUP        1 Y    GLP  0     **** GLP Y 13
     7 ALL1       37 GROUP        1 Z    ALL  0     ROOT ALL Z 15
     8 SEL2       34 GROUP        1 Z    SEL  0     **** SEL Z 16
     9 GLL5        2 GROUP        1 Z    GLL  0     **** GLL Z 20
@<TRIPOS>SET

