#    Name: 2q70_DC8_1_ligand
#    Modification time : Mon Mar 24 20:56:23 2014

@<TRIPOS>MOLECULE
2q70_DC8_1_ligand
   39    42     1     0     0
SMALL
NO_CHARGES


@<TRIPOS>ATOM
      1 C4         12.2810   50.2890   59.1620 C.ar      1 DC850       0.0000 
      2 C6         10.5620   51.6960   59.9340 C.3       1 DC850       0.0000 
      3 C8         11.4110   52.1380   61.1760 C.3       1 DC850       0.0000 
      4 C10        11.2730   51.1800   62.3790 C.3       1 DC850       0.0000 
      5 C15        12.9320   52.1570   60.8180 C.3       1 DC850       0.0000 
      6 C17        13.2840   51.0830   59.7740 C.ar      1 DC850       0.0000 
      7 C20         8.3050   50.5220   60.0900 C.ar      1 DC850       0.0000 
      8 C21         6.9350   50.5270   60.3570 C.ar      1 DC850       0.0000 
      9 C22         6.3100   51.7130   60.7780 C.ar      1 DC850       0.0000 
     10 C24         7.0620   52.9010   60.9240 C.ar      1 DC850       0.0000 
     11 C1         14.9850   49.9060   58.4410 C.ar      1 DC850       0.0000 
     12 C2         13.9750   49.1260   57.8400 C.ar      1 DC850       0.0000 
     13 C3         12.6390   49.3120   58.1980 C.ar      1 DC850       0.0000 
     14 O5         10.9470   50.3950   59.4550 O.3       1 DC850       0.0000 
     15 C11        12.5430   51.4310   63.1950 C.3       1 DC850       0.0000 
     16 F12        12.3120   52.4470   64.1220 F         1 DC850       0.0000 
     17 F13        12.9280   50.2730   63.8650 F         1 DC850       0.0000 
     18 C14        13.6470   51.8440   62.1880 C.3       1 DC850       0.0000 
     19 C18        14.6420   50.8900   59.4060 C.ar      1 DC850       0.0000 
     20 C19         9.0630   51.7050   60.2350 C.ar      1 DC850       0.0000 
     21 O23         4.9970   51.7140   61.0400 O.3       1 DC850       0.0000 
     22 C25         8.4330   52.8970   60.6540 C.ar      1 DC850       0.0000 
     23 O26        16.2800   49.7080   58.0850 O.3       1 DC850       0.0000 
     24 H          10.7383   52.4487   59.1504 H         1 DC850       0.0000 
     25 H          11.1320   53.1208   61.4746 H         1 DC850       0.0000 
     26 H          11.2570   50.1799   62.0328 H         1 DC850       0.0000 
     27 H          10.4200   51.4471   62.9458 H         1 DC850       0.0000 
     28 H          13.2054   53.1143   60.5099 H         1 DC850       0.0000 
     29 H           8.7701   49.6595   59.7869 H         1 DC850       0.0000 
     30 H           6.3836   49.6716   60.2477 H         1 DC850       0.0000 
     31 H           6.5960   53.7597   61.2276 H         1 DC850       0.0000 
     32 H          14.2298   48.4224   57.1391 H         1 DC850       0.0000 
     33 H          11.9023   48.7424   57.7661 H         1 DC850       0.0000 
     34 H          14.1344   52.7279   62.5293 H         1 DC850       0.0000 
     35 H          14.3245   51.0345   62.0432 H         1 DC850       0.0000 
     36 H          15.3712   51.4581   59.8347 H         1 DC850       0.0000 
     37 H           8.9843   53.7519   60.7577 H         1 DC850       0.0000 
     38 H           4.8987   52.2670   61.8673 H         1 DC850       0.0000 
     39 H          16.8539   49.8508   58.8915 H         1 DC850       0.0000 
@<TRIPOS>BOND
     1    6    1 ar   
     2   13    1 ar   
     3   14    1 1    
     4    3    2 1    
     5   14    2 1    
     6   20    2 1    
     7   24    2 1    
     8    4    3 1    
     9    5    3 1    
    10   25    3 1    
    11   15    4 1    
    12   26    4 1    
    13   27    4 1    
    14    6    5 1    
    15   18    5 1    
    16   28    5 1    
    17   19    6 ar   
    18    8    7 ar   
    19   20    7 ar   
    20   29    7 1    
    21    9    8 ar   
    22   30    8 1    
    23   10    9 ar   
    24   21    9 1    
    25   22   10 ar   
    26   31   10 1    
    27   12   11 ar   
    28   19   11 ar   
    29   23   11 1    
    30   13   12 ar   
    31   32   12 1    
    32   33   13 1    
    33   16   15 1    
    34   17   15 1    
    35   18   15 1    
    36   34   18 1    
    37   35   18 1    
    38   36   19 1    
    39   22   20 ar   
    40   38   21 1    
    41   37   22 1    
    42   39   23 1    
@<TRIPOS>SUBSTRUCTURE
     1 DC850       1 GROUP   
@<TRIPOS>SET

