#    Name: 1flm_FMN_1_INTS_M
#    Modification time : Tue Mar 25 01:28:50 2014

@<TRIPOS>MOLECULE
1flm_FMN_1_INTS_M
   69     0     9     0     0
SMALL
NO_CHARGES


@<TRIPOS>ATOM
      1 N          24.1180   28.4240   29.5540 N.am      2 SEC2        0.0000 
      2 N          24.0320   27.2660   28.7810 N.am      8 SEL2        0.0000 
      3 N          24.2040   29.5820   30.3270 N.am      5 SEP2        0.0000 
      4 N          22.9975   27.5920   29.8415 N.am      2 SEC2        0.0000 
      5 N          21.9630   27.9180   30.9020 N.am      5 SEP2        0.0000 
      6 O          26.2300   28.4880   27.5455 O.2       1 ALC1        0.0000 
      7 O          25.0800   27.7840   26.9080 O.2       7 ALL1        0.0000 
      8 O          27.3800   29.1920   28.1830 O.2       4 ALP1        0.0000 
      9 N          27.3770   27.7690   24.3960 N.am      2 SEC2        0.0000 
     10 N          26.2670   28.2890   25.0370 N.am      8 SEL2        0.0000 
     11 N          28.4870   27.2490   23.7550 N.am      5 SEP2        0.0000 
     12 CA         24.7275   23.1380   17.9840 C.3       3 GLC5        0.0000 
     13 CA         23.6280   24.0830   19.4270 C.3       9 GLL5        0.0000 
     14 CA         25.8270   22.1930   16.5410 C.3       6 GLP5        0.0000 
     15 CA         23.4720   25.5825   18.5360 C.3       3 GLC5        0.0000 
     16 CA         23.3160   27.0820   17.6450 C.3       6 GLP5        0.0000 
     17 CA         20.5575   22.1760   19.3665 C.3       3 GLC5        0.0000 
     18 CA         21.4650   22.8020   20.7590 C.3       9 GLL5        0.0000 
     19 CA         19.6500   21.5500   17.9740 C.3       6 GLP5        0.0000 
     20 CA         20.1105   24.4310   20.9465 C.3       3 GLC5        0.0000 
     21 CA         18.7560   26.0600   21.1340 C.3       6 GLP5        0.0000 
     22 CA         23.5485   21.8755   27.1330 C.3       3 GLC5        0.0000 
     23 CA         22.3380   23.3510   26.4730 C.3       9 GLL5        0.0000 
     24 CA         24.7590   20.4000   27.7930 C.3       6 GLP5        0.0000 
     25 N          24.0455   21.7985   25.2540 N.am      2 SEC2        0.0000 
     26 N          22.7340   22.3610   25.5190 N.am      8 SEL2        0.0000 
     27 N          25.3570   21.2360   24.9890 N.am      5 SEP2        0.0000 
     28 CA         22.6280   21.2415   28.1970 C.3       3 GLC5        0.0000 
     29 CA         21.4680   22.6670   27.5550 C.3       9 GLL5        0.0000 
     30 CA         23.7880   19.8160   28.8390 C.3       6 GLP5        0.0000 
     31 N          22.2330   24.6485   30.4275 N.am      2 SEC2        0.0000 
     32 N          21.9530   24.5310   29.0410 N.am      8 SEL2        0.0000 
     33 N          22.5130   24.7660   31.8140 N.am      5 SEP2        0.0000 
     34 CA         21.9545   23.3775   31.0980 C.3       3 GLC5        0.0000 
     35 CA         20.4090   22.9140   29.8140 C.3       9 GLL5        0.0000 
     36 CA         23.5000   23.8410   32.3820 C.3       6 GLP5        0.0000 
     37 N          22.0065   23.4840   31.1320 N.am      2 SEC2        0.0000 
     38 N          21.5000   22.2020   30.4500 N.am      8 SEL2        0.0000 
     39 N          21.2460   18.7420   30.7915 N.am      2 SEC2        0.0000 
     40 N          20.5500   19.9260   30.8130 N.am      8 SEL2        0.0000 
     41 N          21.9420   17.5580   30.7700 N.am      5 SEP2        0.0000 
     42 N          21.0230   21.2485   33.9225 N.am      2 SEC2        0.0000 
     43 N          20.3810   21.6690   32.6260 N.am      8 SEL2        0.0000 
     44 N          21.6650   20.8280   35.2190 N.am      5 SEP2        0.0000 
     45 N          22.3060   19.1150   31.3845 N.am      2 SEC2        0.0000 
     46 N          22.6700   20.6720   31.9990 N.am      8 SEL2        0.0000 
     47 N          23.3680   20.2555   33.1795 N.am      2 SEC2        0.0000 
     48 N          24.0660   19.8390   34.3600 N.am      5 SEP2        0.0000 
     49 N          23.9515   20.3015   31.8910 N.am      2 SEC2        0.0000 
     50 N          25.2330   19.9310   31.7830 N.am      5 SEP2        0.0000 
     51 CA         24.5503   23.6765   22.4363 C.3       3 GLC5        0.0000 
     52 CA         23.8440   25.7070   22.9450 C.3       9 GLL5        0.0000 
     53 CA         25.1270   21.7860   22.6180 C.3       6 GLP5        0.0000 
     54 CA         25.7303   25.3795   22.6022 C.3       3 GLC5        0.0000 
     55 CA         24.1030   25.4270   21.5640 C.3       9 GLL5        0.0000 
     56 CA         27.4870   25.1920   22.9500 C.3       6 GLP5        0.0000 
     57 CA         24.3235   23.0295   21.3908 C.3       3 GLC5        0.0000 
     58 CA         23.4120   24.4630   20.9000 C.3       9 GLL5        0.0000 
     59 CA         22.1785   25.7125   20.2497 C.3       3 GLC5        0.0000 
     60 CA         20.8370   27.1520   20.3360 C.3       6 GLP5        0.0000 
     61 CA         23.4967   22.5530   21.8787 C.3       3 GLC5        0.0000 
     62 CA         22.2680   23.8380   21.5200 C.3       9 GLL5        0.0000 
     63 CA         23.7683   23.1403   22.9210 C.3       3 GLC5        0.0000 
     64 CA         22.0230   24.0410   22.8590 C.3       9 GLL5        0.0000 
     65 CA         20.9630   25.0670   30.4030 C.3       3 GLC5        0.0000 
     66 CA         20.9270   23.6320   28.5700 C.3       9 GLL5        0.0000 
     67 CA         21.2580   26.8610   31.6140 C.3       6 GLP5        0.0000 
     68 CA         21.8011   25.8753   21.4458 C.3       3 GLC5        0.0000 
     69 CA         22.7960   24.9480   23.5890 C.3       9 GLL5        0.0000 
@<TRIPOS>BOND
@<TRIPOS>SUBSTRUCTURE
     1 ALC1        6 GROUP        1 X    ALC  0     ROOT ALC X 1
     2 SEC2        1 GROUP        1 X    SEC  0     **** SEC X 2
     3 GLC5       12 GROUP        1 X    GLC  0     **** GLC X 6
     4 ALP1        8 GROUP        1 Y    ALP  0     ROOT ALP Y 8
     5 SEP2        3 GROUP        1 Y    SEP  0     **** SEP Y 9
     6 GLP5       14 GROUP        1 Y    GLP  0     **** GLP Y 13
     7 ALL1        7 GROUP        1 Z    ALL  0     ROOT ALL Z 15
     8 SEL2        2 GROUP        1 Z    SEL  0     **** SEL Z 16
     9 GLL5       13 GROUP        1 Z    GLL  0     **** GLL Z 20
@<TRIPOS>SET

