#    Name: 1flm_FMN_1_ligand
#    Modification time : Tue Mar 25 01:28:50 2014

@<TRIPOS>MOLECULE
1flm_FMN_1_ligand
   50    52     1     0     0
SMALL
NO_CHARGES


@<TRIPOS>ATOM
      1 N1         23.2470   26.2320   26.9460 N.2       1 FMN123      0.0000 
      2 C2         24.0320   27.1060   27.6050 C.2       1 FMN123      0.0000 
      3 O2         24.0320   27.2660   28.7810 O.2       1 FMN123      0.0000 
      4 N3         25.0800   27.7840   26.9080 N.am      1 FMN123      0.0000 
      5 C4         25.3200   27.6760   25.5850 C.2       1 FMN123      0.0000 
      6 O4         26.2670   28.2890   25.0370 O.2       1 FMN123      0.0000 
      7 C4A        24.4170   26.8250   24.8430 C.2       1 FMN123      0.0000 
      8 N5         24.5920   26.6480   23.5720 N.2       1 FMN123      0.0000 
      9 C5A        23.8440   25.7070   22.9450 C.ar      1 FMN123      0.0000 
     10 C6         24.1030   25.4270   21.5640 C.ar      1 FMN123      0.0000 
     11 C7         23.4120   24.4630   20.9000 C.ar      1 FMN123      0.0000 
     12 C7M        23.6280   24.0830   19.4270 C.3       1 FMN123      0.0000 
     13 C8         22.2680   23.8380   21.5200 C.ar      1 FMN123      0.0000 
     14 C8M        21.4650   22.8020   20.7590 C.3       1 FMN123      0.0000 
     15 C9         22.0230   24.0410   22.8590 C.ar      1 FMN123      0.0000 
     16 C9A        22.7960   24.9480   23.5890 C.ar      1 FMN123      0.0000 
     17 N10        22.6290   25.1970   24.9530 N.pl3     1 FMN123      0.0000 
     18 C10        23.3950   26.0980   25.6210 C.2       1 FMN123      0.0000 
     19 C1'        21.5940   24.4710   25.7450 C.3       1 FMN123      0.0000 
     20 C2'        22.3380   23.3510   26.4730 C.3       1 FMN123      0.0000 
     21 O2'        22.7340   22.3610   25.5190 O.3       1 FMN123      0.0000 
     22 C3'        21.4680   22.6670   27.5550 C.3       1 FMN123      0.0000 
     23 O3'        20.2720   22.1120   26.8650 O.3       1 FMN123      0.0000 
     24 C4'        20.9270   23.6320   28.5700 C.3       1 FMN123      0.0000 
     25 O4'        21.9530   24.5310   29.0410 O.3       1 FMN123      0.0000 
     26 C5'        20.4090   22.9140   29.8140 C.3       1 FMN123      0.0000 
     27 O5'        21.5000   22.2020   30.4500 O.3       1 FMN123      0.0000 
     28 P          21.2680   21.0560   31.5140 P.3       1 FMN123      0.0000 
     29 O1P        20.5500   19.9260   30.8130 O.co2     1 FMN123      0.0000 
     30 O2P        20.3810   21.6690   32.6260 O.co2     1 FMN123      0.0000 
     31 O3P        22.6700   20.6720   31.9990 O.co2     1 FMN123      0.0000 
     32 H          25.6977   28.4114   27.5041 H         1 FMN123      0.0000 
     33 H          24.8353   25.9860   21.0919 H         1 FMN123      0.0000 
     34 H          21.2665   23.5252   23.3352 H         1 FMN123      0.0000 
     35 H          20.8572   24.0392   25.0971 H         1 FMN123      0.0000 
     36 H          21.1466   25.1230   26.4688 H         1 FMN123      0.0000 
     37 H          23.2033   23.7739   26.9621 H         1 FMN123      0.0000 
     38 H          22.0068   21.8924   28.0159 H         1 FMN123      0.0000 
     39 H          20.1080   24.1899   28.1495 H         1 FMN123      0.0000 
     40 H          19.6152   22.2297   29.5064 H         1 FMN123      0.0000 
     41 H          19.9795   23.6616   30.4845 H         1 FMN123      0.0000 
     42 H          24.5613   23.7660   19.2582 H         1 FMN123      0.0000 
     43 H          23.0126   23.3494   19.1386 H         1 FMN123      0.0000 
     44 H          23.4667   24.8580   18.8160 H         1 FMN123      0.0000 
     45 H          22.0252   22.0156   20.4988 H         1 FMN123      0.0000 
     46 H          20.7018   22.4515   21.3018 H         1 FMN123      0.0000 
     47 H          21.0777   23.1774   19.9169 H         1 FMN123      0.0000 
     48 H          22.0075   21.6742   25.5422 H         1 FMN123      0.0000 
     49 H          19.7977   21.5742   27.5619 H         1 FMN123      0.0000 
     50 H          22.5274   24.7093   28.2420 H         1 FMN123      0.0000 
@<TRIPOS>BOND
     1    2    1 1    
     2   18    1 2    
     3    3    2 2    
     4    4    2 am   
     5    5    4 am   
     6   32    4 1    
     7    6    5 2    
     8    7    5 1    
     9    8    7 2    
    10   18    7 1    
    11    9    8 1    
    12   10    9 ar   
    13   16    9 ar   
    14   11   10 ar   
    15   33   10 1    
    16   12   11 1    
    17   13   11 ar   
    18   42   12 1    
    19   43   12 1    
    20   44   12 1    
    21   14   13 1    
    22   15   13 ar   
    23   45   14 1    
    24   46   14 1    
    25   47   14 1    
    26   16   15 ar   
    27   34   15 1    
    28   17   16 1    
    29   18   17 1    
    30   19   17 1    
    31   20   19 1    
    32   35   19 1    
    33   36   19 1    
    34   21   20 1    
    35   22   20 1    
    36   37   20 1    
    37   48   21 1    
    38   23   22 1    
    39   24   22 1    
    40   38   22 1    
    41   49   23 1    
    42   25   24 1    
    43   26   24 1    
    44   39   24 1    
    45   50   25 1    
    46   27   26 1    
    47   40   26 1    
    48   41   26 1    
    49   28   27 1    
    50   29   28 ar   
    51   30   28 ar   
    52   31   28 ar   
@<TRIPOS>SUBSTRUCTURE
     1 FMN123      1 GROUP   
@<TRIPOS>SET

