#    Name: 1vp6_CMP_2_INTS_M
#    Modification time : Tue Mar 25 08:11:01 2014

@<TRIPOS>MOLECULE
1vp6_CMP_2_INTS_M
   55     0     9     0     0
SMALL
NO_CHARGES


@<TRIPOS>ATOM
      1 N          -6.7790   15.5785   11.8110 N.am      2 SEC2        0.0000 
      2 N          -5.6090   14.8910   12.1240 N.am      8 SEL2        0.0000 
      3 N          -7.9490   16.2660   11.4980 N.am      5 SEP2        0.0000 
      4 N          -5.5495   15.9795   11.1300 N.am      2 SEC2        0.0000 
      5 N          -5.4900   17.0680   10.1360 N.am      5 SEP2        0.0000 
      6 N          -4.8020   13.1800   14.3415 N.am      2 SEC2        0.0000 
      7 N          -5.3620   12.6990   13.1520 N.am      8 SEL2        0.0000 
      8 N          -4.2420   13.6610   15.5310 N.am      5 SEP2        0.0000 
      9 N          -5.9305   11.3200   13.4210 N.am      2 SEC2        0.0000 
     10 N          -6.4990    9.9410   13.6900 N.am      5 SEP2        0.0000 
     11 CA         -8.0475   13.4920   10.6735 C.3       3 GLC5        0.0000 
     12 CA         -6.2050   13.4650    9.4770 C.3       9 GLL5        0.0000 
     13 CA         -9.8900   13.5190   11.8700 C.3       6 GLP5        0.0000 
     14 CA         -7.4730   14.8010    8.4435 C.3       3 GLC5        0.0000 
     15 CA         -8.7410   16.1370    7.4100 C.3       6 GLP5        0.0000 
     16 N          -3.4085   11.6325   10.9205 N.am      2 SEC2        0.0000 
     17 N          -3.8510   13.2360   11.2630 N.am      8 SEL2        0.0000 
     18 N          -2.9660   10.0290   10.5780 N.am      5 SEP2        0.0000 
     19 N          -2.8345   13.2050   12.6285 N.am      2 SEC2        0.0000 
     20 N          -1.8180   13.1740   13.9940 N.am      5 SEP2        0.0000 
     21 CA         -2.3815   11.3995    8.3190 C.3       3 GLC5        0.0000 
     22 CA         -2.5150   13.3990    9.0270 C.3       9 GLL5        0.0000 
     23 CA         -2.2480    9.4000    7.6110 C.3       6 GLP5        0.0000 
     24 CA         -0.6165   14.3190    8.4830 C.3       3 GLC5        0.0000 
     25 CA          1.2820   15.2390    7.9390 C.3       6 GLP5        0.0000 
     26 N          -2.4470   11.0945    9.8675 N.am      2 SEC2        0.0000 
     27 N          -1.9280   12.1600    9.1570 N.am      8 SEL2        0.0000 
     28 O          -1.0525   11.8410   10.0595 O.2       1 ALC1        0.0000 
     29 O          -1.9280   12.1600    9.1570 O.2       7 ALL1        0.0000 
     30 O          -0.1770   11.5220   10.9620 O.2       4 ALP1        0.0000 
     31 CA         -4.0175   14.2840    5.9365 C.3       3 GLC5        0.0000 
     32 CA         -3.1550   13.8160    7.6170 C.3       9 GLL5        0.0000 
     33 CA         -4.8800   14.7520    4.2560 C.3       6 GLP5        0.0000 
     34 CA         -1.9725   14.0950    4.0165 C.3       3 GLC5        0.0000 
     35 CA         -0.3060   15.4920    4.4770 C.3       9 GLL5        0.0000 
     36 CA         -3.6390   12.6980    3.5560 C.3       6 GLP5        0.0000 
     37 CA         -0.1085   15.1170    2.5390 C.3       3 GLC5        0.0000 
     38 CA          0.0890   14.7420    0.6010 C.3       6 GLP5        0.0000 
     39 CA          0.4880   15.3655    6.2080 C.3       3 GLC5        0.0000 
     40 CA         -0.2850   15.4755    7.0085 C.3       3 GLC5        0.0000 
     41 CA         -1.8520   15.7120    6.0780 C.3       9 GLL5        0.0000 
     42 CA         -6.0488   12.1640    7.6942 C.3       3 GLC5        0.0000 
     43 CA         -4.8460   12.9670    8.9940 C.3       9 GLL5        0.0000 
     44 CA         -6.5720   11.1120    6.1530 C.3       6 GLP5        0.0000 
     45 CA         -4.0640   11.5742   10.5840 C.3       3 GLC5        0.0000 
     46 CA         -3.8260    9.8880   11.7380 C.3       6 GLP5        0.0000 
     47 CA         -2.5128   15.0633   10.2443 C.3       3 GLC5        0.0000 
     48 CA         -3.7580   13.5540    9.8660 C.3       9 GLL5        0.0000 
     49 CA         -1.8890   16.6500   11.0420 C.3       6 GLP5        0.0000 
     50 CA         -3.4055   15.5705    5.1707 C.3       3 GLC5        0.0000 
     51 CA         -3.2133   18.0490    4.7510 C.3       3 GLC5        0.0000 
     52 CA         -2.0100   17.0660    6.0930 C.3       9 GLL5        0.0000 
     53 CA         -4.8410   18.7170    3.8910 C.3       6 GLP5        0.0000 
     54 CA         -0.4157   17.5340    6.9900 C.3       3 GLC5        0.0000 
     55 CA          0.7540   17.6870    8.3690 C.3       6 GLP5        0.0000 
@<TRIPOS>BOND
@<TRIPOS>SUBSTRUCTURE
     1 ALC1       28 GROUP        1 X    ALC  0     ROOT ALC X 1
     2 SEC2        1 GROUP        1 X    SEC  0     **** SEC X 2
     3 GLC5       11 GROUP        1 X    GLC  0     **** GLC X 6
     4 ALP1       30 GROUP        1 Y    ALP  0     ROOT ALP Y 8
     5 SEP2        3 GROUP        1 Y    SEP  0     **** SEP Y 9
     6 GLP5       13 GROUP        1 Y    GLP  0     **** GLP Y 13
     7 ALL1       29 GROUP        1 Z    ALL  0     ROOT ALL Z 15
     8 SEL2        2 GROUP        1 Z    SEL  0     **** SEL Z 16
     9 GLL5       12 GROUP        1 Z    GLL  0     **** GLL Z 20
@<TRIPOS>SET

