#    Name: 1vp6_CMP_2_ligand
#    Modification time : Tue Mar 25 08:11:01 2014

@<TRIPOS>MOLECULE
1vp6_CMP_2_ligand
   33    36     1     0     0
SMALL
NO_CHARGES


@<TRIPOS>ATOM
      1 P          -5.2410   13.4660   11.8680 P.3       1 CMP360      0.0000 
      2 O1P        -5.6090   14.8910   12.1240 O.co2     1 CMP360      0.0000 
      3 O2P        -5.3620   12.6990   13.1520 O.co2     1 CMP360      0.0000 
      4 O5'        -6.1850   12.9160   10.8240 O.3       1 CMP360      0.0000 
      5 C5'        -6.2050   13.4650    9.4770 C.3       1 CMP360      0.0000 
      6 C4'        -4.8460   12.9670    8.9940 C.3       1 CMP360      0.0000 
      7 O4'        -4.4770   13.2700    7.6560 O.3       1 CMP360      0.0000 
      8 C3'        -3.7580   13.5540    9.8660 C.3       1 CMP360      0.0000 
      9 O3'        -3.8510   13.2360   11.2630 O.3       1 CMP360      0.0000 
     10 C2'        -2.5150   13.3990    9.0270 C.3       1 CMP360      0.0000 
     11 O2'        -1.9280   12.1600    9.1570 O.3       1 CMP360      0.0000 
     12 C1'        -3.1550   13.8160    7.6170 C.3       1 CMP360      0.0000 
     13 N9         -2.7150   15.2130    7.0320 N.pl3     1 CMP360      0.0000 
     14 C8         -3.3310   16.3820    7.5480 C.2       1 CMP360      0.0000 
     15 N7         -2.9330   17.5110    7.0100 N.2       1 CMP360      0.0000 
     16 C5         -2.0100   17.0660    6.0930 C.ar      1 CMP360      0.0000 
     17 C6         -1.1610   17.6960    5.1290 C.ar      1 CMP360      0.0000 
     18 N6         -1.1190   19.0100    4.9350 N.pl3     1 CMP360      0.0000 
     19 N1         -0.3640   16.8470    4.3860 N.ar      1 CMP360      0.0000 
     20 C2         -0.3060   15.4920    4.4770 C.ar      1 CMP360      0.0000 
     21 N3         -1.0910   14.8430    5.3740 N.ar      1 CMP360      0.0000 
     22 C4         -1.8520   15.7120    6.0780 C.ar      1 CMP360      0.0000 
     23 H          -6.2018   14.5169    9.4815 H         1 CMP360      0.0000 
     24 H          -6.9585   13.0292    8.8864 H         1 CMP360      0.0000 
     25 H          -4.8037   11.8773    9.1649 H         1 CMP360      0.0000 
     26 H          -3.9978   14.7122    9.7517 H         1 CMP360      0.0000 
     27 H          -1.8851   14.2531    9.2911 H         1 CMP360      0.0000 
     28 H          -2.5419   13.0232    6.9241 H         1 CMP360      0.0000 
     29 H          -4.0198   16.2956    8.2764 H         1 CMP360      0.0000 
     30 H          -1.7383   19.5578    5.4974 H         1 CMP360      0.0000 
     31 H          -0.4718   19.3323    4.2441 H         1 CMP360      0.0000 
     32 H           0.3361   14.9568    3.8627 H         1 CMP360      0.0000 
     33 H          -1.2948   12.2531    9.9254 H         1 CMP360      0.0000 
@<TRIPOS>BOND
     1    2    1 ar   
     2    3    1 ar   
     3    4    1 1    
     4    9    1 1    
     5    5    4 1    
     6    6    5 1    
     7   23    5 1    
     8   24    5 1    
     9    7    6 1    
    10    8    6 1    
    11   25    6 1    
    12   12    7 1    
    13    9    8 1    
    14   10    8 1    
    15   26    8 1    
    16   11   10 1    
    17   12   10 1    
    18   27   10 1    
    19   33   11 1    
    20   13   12 1    
    21   28   12 1    
    22   14   13 1    
    23   22   13 1    
    24   15   14 2    
    25   29   14 1    
    26   16   15 1    
    27   17   16 ar   
    28   22   16 ar   
    29   18   17 1    
    30   19   17 ar   
    31   30   18 1    
    32   31   18 1    
    33   20   19 ar   
    34   21   20 ar   
    35   32   20 1    
    36   22   21 ar   
@<TRIPOS>SUBSTRUCTURE
     1 CMP360      1 GROUP   
@<TRIPOS>SET

