#    Name: 4c77_N01_1_INTS_M
#    Modification time : Tue Mar 25 09:04:29 2014

@<TRIPOS>MOLECULE
4c77_N01_1_INTS_M
   99     0     9     0     0
SMALL
NO_CHARGES


@<TRIPOS>ATOM
      1 CA         53.6610  -33.5345  -42.5880 C.3       3 GLC5        0.0000 
      2 CA         52.8400  -33.2210  -44.2990 C.3       9 GLL5        0.0000 
      3 CA         54.4820  -33.8480  -40.8770 C.3       6 GLP5        0.0000 
      4 CA         44.9490  -25.7115  -36.3140 C.3       3 GLC5        0.0000 
      5 CA         46.0490  -25.1500  -37.7030 C.3       9 GLL5        0.0000 
      6 CA         43.8490  -26.2730  -34.9250 C.3       6 GLP5        0.0000 
      7 N          50.9290  -28.9800  -37.5770 N.am      1 SEC2        0.0000 
      8 N          50.4370  -29.3760  -38.7950 N.am      7 SEL2        0.0000 
      9 N          51.4210  -28.5840  -36.3590 N.am      4 SEP2        0.0000 
     10 N          53.7145  -28.5635  -45.5975 N.am      1 SEC2        0.0000 
     11 N          53.4730  -29.3790  -46.7900 N.am      7 SEL2        0.0000 
     12 N          53.9560  -27.7480  -44.4050 N.am      4 SEP2        0.0000 
     13 CA         54.4145  -37.5015  -44.3480 C.3       3 GLC5        0.0000 
     14 CA         54.4000  -36.8710  -46.3420 C.3       9 GLL5        0.0000 
     15 CA         54.4290  -38.1320  -42.3540 C.3       6 GLP5        0.0000 
     16 CA         55.0075  -35.7855  -47.8060 C.3       3 GLC5        0.0000 
     17 CA         55.6150  -34.7000  -49.2700 C.3       6 GLP5        0.0000 
     18 N          48.4915  -29.9490  -37.3045 N.am      1 SEC2        0.0000 
     19 N          47.9760  -30.1320  -38.5810 N.am      7 SEL2        0.0000 
     20 N          49.0070  -29.7660  -36.0280 N.am      4 SEP2        0.0000 
     21 N          54.7110  -32.5105  -48.5530 N.am      1 SEC2        0.0000 
     22 N          55.0650  -31.0310  -48.0220 N.am      7 SEL2        0.0000 
     23 N          54.3570  -33.9900  -49.0840 N.am      4 SEP2        0.0000 
     24 N          56.4445  -30.9320  -47.8265 N.am      1 SEC2        0.0000 
     25 N          57.8240  -30.8330  -47.6310 N.am      4 SEP2        0.0000 
     26 N          55.7490  -30.3050  -48.7765 N.am      1 SEC2        0.0000 
     27 N          56.4330  -29.5790  -49.5310 N.am      4 SEP2        0.0000 
     28 CA         54.0440  -29.1405  -43.9340 C.3       3 GLC5        0.0000 
     29 CA         52.8720  -30.9460  -43.8310 C.3       9 GLL5        0.0000 
     30 CA         55.2160  -27.3350  -44.0370 C.3       6 GLP5        0.0000 
     31 N          54.9105  -31.3795  -42.1050 N.am      1 SEC2        0.0000 
     32 N          54.2160  -31.0640  -43.3600 N.am      7 SEL2        0.0000 
     33 N          55.6050  -31.6950  -40.8500 N.am      4 SEP2        0.0000 
     34 CA         49.1895  -25.4375  -38.2575 C.3       3 GLC5        0.0000 
     35 CA         47.5480  -25.1820  -39.5030 C.3       9 GLL5        0.0000 
     36 CA         50.8310  -25.6930  -37.0120 C.3       6 GLP5        0.0000 
     37 N          47.3625  -25.0375  -41.8430 N.am      1 SEC2        0.0000 
     38 N          48.0140  -24.6230  -40.7210 N.am      7 SEL2        0.0000 
     39 N          46.7110  -25.4520  -42.9650 N.am      4 SEP2        0.0000 
     40 NZ         53.3740  -32.7060  -48.4330 N.4       2 LYC4        0.0000 
     41 NZ         52.3910  -31.4220  -47.7820 N.4       8 LYL4        0.0000 
     42 NZ         53.1530  -34.5000  -49.3590 N.4       5 LYP4        0.0000 
     43 N          53.3740  -32.7060  -48.4330 N.am      1 SEC2        0.0000 
     44 N          52.3910  -31.4220  -47.7820 N.am      7 SEL2        0.0000 
     45 N          52.2195  -32.6005  -48.4630 N.am      1 SEC2        0.0000 
     46 N          52.0480  -33.7790  -49.1440 N.am      4 SEP2        0.0000 
     47 CA         51.8655  -36.0200  -43.8440 C.3       3 GLC5        0.0000 
     48 CA         52.8250  -35.3010  -45.7100 C.3       9 GLL5        0.0000 
     49 CA         50.9060  -36.7390  -41.9780 C.3       6 GLP5        0.0000 
     50 CA         44.6820  -25.8760  -39.3630 C.3       3 GLC5        0.0000 
     51 CA         46.4790  -26.2880  -39.7480 C.3       9 GLL5        0.0000 
     52 CA         42.8850  -25.4640  -38.9780 C.3       6 GLP5        0.0000 
     53 CA         45.9795  -25.5680  -41.3780 C.3       3 GLC5        0.0000 
     54 CA         45.4800  -24.8480  -43.0080 C.3       6 GLP5        0.0000 
     55 CA         48.6465  -31.7070  -41.9565 C.3       3 GLC5        0.0000 
     56 CA         50.4760  -31.2380  -42.7190 C.3       9 GLL5        0.0000 
     57 CA         46.8170  -32.1760  -41.1940 C.3       6 GLP5        0.0000 
     58 CA         45.6505  -29.2755  -39.6195 C.3       3 GLC5        0.0000 
     59 CA         47.0990  -27.6910  -39.9510 C.3       9 GLL5        0.0000 
     60 CA         44.2020  -30.8600  -39.2880 C.3       6 GLP5        0.0000 
     61 CA         46.9260  -27.0610  -41.9385 C.3       3 GLC5        0.0000 
     62 CA         46.7530  -26.4310  -43.9260 C.3       6 GLP5        0.0000 
     63 CA         49.7750  -28.3045  -35.3310 C.3       3 GLC5        0.0000 
     64 CA         48.2830  -26.9880  -35.2870 C.3       9 GLL5        0.0000 
     65 CA         51.2670  -29.6210  -35.3750 C.3       6 GLP5        0.0000 
     66 N          50.6395  -23.7220  -35.4705 N.am      1 SEC2        0.0000 
     67 N          50.2430  -23.1390  -33.9550 N.am      7 SEL2        0.0000 
     68 N          51.0360  -24.3050  -36.9860 N.am      4 SEP2        0.0000 
     69 CA         47.8805  -21.7270  -31.8385 C.3       3 GLC5        0.0000 
     70 CA         48.0780  -22.5070  -33.8190 C.3       9 GLL5        0.0000 
     71 CA         47.6830  -20.9470  -29.8580 C.3       6 GLP5        0.0000 
     72 CA         48.4210  -20.8245  -33.9180 C.3       3 GLC5        0.0000 
     73 CA         48.7640  -19.1420  -34.0170 C.3       6 GLP5        0.0000 
     74 CA         46.3030  -23.1465  -33.8115 C.3       3 GLC5        0.0000 
     75 CA         44.5280  -23.7860  -33.8040 C.3       6 GLP5        0.0000 
     76 CA         44.6502  -25.0542  -38.5718 C.3       3 GLC5        0.0000 
     77 CA         47.6265  -22.9718  -40.0027 C.3       3 GLC5        0.0000 
     78 CA         46.7820  -24.1390  -38.6280 C.3       9 GLL5        0.0000 
     79 CA         48.0880  -21.2830  -40.9400 C.3       6 GLP5        0.0000 
     80 CA         46.0615  -24.2368  -40.6437 C.3       3 GLC5        0.0000 
     81 CA         44.9580  -23.8130  -42.2220 C.3       6 GLP5        0.0000 
     82 CA         49.3855  -25.0940  -36.2113 C.3       3 GLC5        0.0000 
     83 CA         47.4840  -24.4180  -35.9440 C.3       9 GLL5        0.0000 
     84 CA         46.7750  -25.9660  -34.4213 C.3       3 GLC5        0.0000 
     85 CA         48.3960  -24.5720  -34.8770 C.3       9 GLL5        0.0000 
     86 CA         45.6100  -27.4370  -33.4320 C.3       6 GLP5        0.0000 
     87 CA         53.4548  -32.5687  -42.0888 C.3       3 GLC5        0.0000 
     88 CA         51.9830  -31.6330  -42.7700 C.3       9 GLL5        0.0000 
     89 CA         52.8162  -29.8112  -41.7527 C.3       3 GLC5        0.0000 
     90 CA         53.2050  -28.3330  -40.2050 C.3       6 GLP5        0.0000 
     91 CA         50.3888  -33.0662  -42.0363 C.3       3 GLC5        0.0000 
     92 CA         49.5480  -34.6970  -41.3280 C.3       6 GLP5        0.0000 
     93 CA         51.2570  -38.0620  -45.7892 C.3       3 GLC5        0.0000 
     94 CA         51.8120  -35.9650  -46.4550 C.3       9 GLL5        0.0000 
     95 CA         50.5200  -39.5710  -44.7740 C.3       6 GLP5        0.0000 
     96 CA         49.3931  -26.1474  -36.3183 C.3       3 GLC5        0.0000 
     97 CA         47.3720  -26.7600  -36.3310 C.3       9 GLL5        0.0000 
     98 CA         46.7826  -27.0194  -34.5282 C.3       3 GLC5        0.0000 
     99 CA         48.7940  -25.8990  -34.5490 C.3       9 GLL5        0.0000 
@<TRIPOS>BOND
@<TRIPOS>SUBSTRUCTURE
     1 SEC2        7 GROUP        1 X    SEC  0     ROOT SEC X 2
     2 LYC4       40 GROUP        1 X    LYC  0     **** LYC X 4
     3 GLC5        1 GROUP        1 X    GLC  0     **** GLC X 6
     4 SEP2        9 GROUP        1 Y    SEP  0     ROOT SEP Y 9
     5 LYP4       42 GROUP        1 Y    LYP  0     **** LYP Y 11
     6 GLP5        3 GROUP        1 Y    GLP  0     **** GLP Y 13
     7 SEL2        8 GROUP        1 Z    SEL  0     ROOT SEL Z 16
     8 LYL4       41 GROUP        1 Z    LYL  0     **** LYL Z 18
     9 GLL5        2 GROUP        1 Z    GLL  0     **** GLL Z 20
@<TRIPOS>SET

