#    Name: 4c77_N01_1_ligand
#    Modification time : Tue Mar 25 09:04:29 2014

@<TRIPOS>MOLECULE
4c77_N01_1_ligand
   74    78     1     0     0
SMALL
NO_CHARGES


@<TRIPOS>ATOM
      1 O3         48.7180  -29.7810  -40.8250 O.3       1 N01701      0.0000 
      2 PA         49.2980  -29.0690  -42.1510 P.3       1 N01701      0.0000 
      3 PN         48.9880  -29.1990  -39.3340 P.3       1 N01701      0.0000 
      4 N1A        53.4770  -37.5490  -47.0610 N.ar      1 N01701      0.0000 
      5 O1A        49.6200  -27.6350  -41.8750 O.co2     1 N01701      0.0000 
      6 C1B        52.8400  -33.2210  -44.2990 C.3       1 N01701      0.0000 
      7 C1D        46.0490  -25.1500  -37.7030 C.3       1 N01701      0.0000 
      8 N1N        47.0020  -25.4910  -36.6220 N.pl3     1 N01701      0.0000 
      9 O1N        50.4370  -29.3760  -38.7950 O.co2     1 N01701      0.0000 
     10 O1X        53.4730  -29.3790  -46.7900 O.co2     1 N01701      0.0000 
     11 C2A        54.4000  -36.8710  -46.3420 C.ar      1 N01701      0.0000 
     12 O2A        48.1440  -29.2740  -43.2570 O.co2     1 N01701      0.0000 
     13 C2B        52.7560  -31.8900  -45.0550 C.3       1 N01701      0.0000 
     14 O2B        53.9020  -31.9970  -45.9200 O.3       1 N01701      0.0000 
     15 P2B        53.8150  -30.9440  -47.1570 P.3       1 N01701      0.0000 
     16 C2D        46.7820  -24.1390  -38.6280 C.3       1 N01701      0.0000 
     17 O2D        45.7460  -23.3390  -39.2110 O.3       1 N01701      0.0000 
     18 C2N        47.4840  -24.4180  -35.9440 C.ar      1 N01701      0.0000 
     19 O2N        47.9760  -30.1320  -38.5810 O.co2     1 N01701      0.0000 
     20 O2X        55.0650  -31.0310  -48.0220 O.co2     1 N01701      0.0000 
     21 N3A        54.0890  -35.7640  -45.6720 N.ar      1 N01701      0.0000 
     22 C3B        52.8720  -30.9460  -43.8310 C.3       1 N01701      0.0000 
     23 O3B        54.2160  -31.0640  -43.3600 O.3       1 N01701      0.0000 
     24 C3D        47.5480  -25.1820  -39.5030 C.3       1 N01701      0.0000 
     25 O3D        48.0140  -24.6230  -40.7210 O.3       1 N01701      0.0000 
     26 C3N        48.3960  -24.5720  -34.8770 C.ar      1 N01701      0.0000 
     27 O3X        52.3910  -31.4220  -47.7820 O.co2     1 N01701      0.0000 
     28 C4A        52.8250  -35.3010  -45.7100 C.ar      1 N01701      0.0000 
     29 C4B        51.9830  -31.6330  -42.7700 C.3       1 N01701      0.0000 
     30 O4B        52.1320  -33.0430  -43.0350 O.3       1 N01701      0.0000 
     31 C4D        46.4790  -26.2880  -39.7480 C.3       1 N01701      0.0000 
     32 O4D        45.7040  -26.3190  -38.5090 O.3       1 N01701      0.0000 
     33 C4N        48.7940  -25.8990  -34.5490 C.ar      1 N01701      0.0000 
     34 C5A        51.8120  -35.9650  -46.4550 C.ar      1 N01701      0.0000 
     35 C5B        50.4760  -31.2380  -42.7190 C.3       1 N01701      0.0000 
     36 O5B        50.6400  -29.8650  -42.4270 O.3       1 N01701      0.0000 
     37 C5D        47.0990  -27.6910  -39.9510 C.3       1 N01701      0.0000 
     38 O5D        48.4280  -27.7070  -39.3960 O.3       1 N01701      0.0000 
     39 C5N        48.2830  -26.9880  -35.2870 C.ar      1 N01701      0.0000 
     40 C6A        52.1760  -37.1410  -47.1540 C.ar      1 N01701      0.0000 
     41 N6A        51.2040  -37.8290  -47.9080 N.pl3     1 N01701      0.0000 
     42 C6N        47.3720  -26.7600  -36.3310 C.ar      1 N01701      0.0000 
     43 N7A        50.6490  -35.2640  -46.3280 N.2       1 N01701      0.0000 
     44 C7N        48.9010  -23.3570  -34.1700 C.2       1 N01701      0.0000 
     45 O7N        50.2430  -23.1390  -33.9550 O.2       1 N01701      0.0000 
     46 C8A        50.8650  -34.2190  -45.5720 C.2       1 N01701      0.0000 
     47 N9A        52.1880  -34.2040  -45.1730 N.pl3     1 N01701      0.0000 
     48 CAA        48.0780  -22.5070  -33.8190 C.3       1 N01701      0.0000 
     49 H          53.8606  -33.4485  -44.1572 H         1 N01701      0.0000 
     50 H          45.1929  -24.6659  -37.3159 H         1 N01701      0.0000 
     51 H          55.3904  -37.2369  -46.3174 H         1 N01701      0.0000 
     52 H          51.8473  -31.8349  -45.4901 H         1 N01701      0.0000 
     53 H          47.4658  -23.6401  -38.0138 H         1 N01701      0.0000 
     54 H          47.1899  -23.4532  -36.1976 H         1 N01701      0.0000 
     55 H          52.5441  -30.0280  -44.0459 H         1 N01701      0.0000 
     56 H          48.3071  -25.6086  -38.8911 H         1 N01701      0.0000 
     57 H          52.4289  -31.4198  -41.7896 H         1 N01701      0.0000 
     58 H          45.8806  -26.0225  -40.5625 H         1 N01701      0.0000 
     59 H          49.4460  -26.0562  -33.7829 H         1 N01701      0.0000 
     60 H          50.0328  -31.7833  -41.9375 H         1 N01701      0.0000 
     61 H          50.0696  -31.4190  -43.6712 H         1 N01701      0.0000 
     62 H          47.1040  -27.8962  -41.0221 H         1 N01701      0.0000 
     63 H          46.4456  -28.4131  -39.4603 H         1 N01701      0.0000 
     64 H          48.5774  -27.9397  -35.0596 H         1 N01701      0.0000 
     65 H          50.2770  -37.4554  -47.8764 H         1 N01701      0.0000 
     66 H          51.5242  -38.6322  -48.4104 H         1 N01701      0.0000 
     67 H          47.0034  -27.5636  -36.8548 H         1 N01701      0.0000 
     68 H          50.2232  -33.5345  -45.3072 H         1 N01701      0.0000 
     69 H          48.5154  -21.7343  -33.3590 H         1 N01701      0.0000 
     70 H          47.5719  -22.1362  -34.5977 H         1 N01701      0.0000 
     71 H          47.4037  -22.8831  -33.1834 H         1 N01701      0.0000 
     72 H          45.5035  -22.6745  -38.5041 H         1 N01701      0.0000 
     73 H          54.6935  -30.2713  -43.7390 H         1 N01701      0.0000 
     74 H          47.3489  -23.9126  -40.9508 H         1 N01701      0.0000 
@<TRIPOS>BOND
     1    2    1 1    
     2    3    1 1    
     3    5    2 ar   
     4   12    2 ar   
     5   36    2 1    
     6    9    3 ar   
     7   19    3 ar   
     8   38    3 1    
     9   11    4 ar   
    10   40    4 ar   
    11   13    6 1    
    12   30    6 1    
    13   47    6 1    
    14   49    6 1    
    15    8    7 1    
    16   16    7 1    
    17   32    7 1    
    18   50    7 1    
    19   18    8 ar   
    20   42    8 ar   
    21   15   10 ar   
    22   21   11 ar   
    23   51   11 1    
    24   14   13 1    
    25   22   13 1    
    26   52   13 1    
    27   15   14 1    
    28   20   15 ar   
    29   27   15 ar   
    30   17   16 1    
    31   24   16 1    
    32   53   16 1    
    33   72   17 1    
    34   26   18 ar   
    35   54   18 1    
    36   28   21 ar   
    37   23   22 1    
    38   29   22 1    
    39   55   22 1    
    40   73   23 1    
    41   25   24 1    
    42   31   24 1    
    43   56   24 1    
    44   74   25 1    
    45   33   26 ar   
    46   44   26 1    
    47   34   28 ar   
    48   47   28 1    
    49   30   29 1    
    50   35   29 1    
    51   57   29 1    
    52   32   31 1    
    53   37   31 1    
    54   58   31 1    
    55   39   33 ar   
    56   59   33 1    
    57   40   34 ar   
    58   43   34 1    
    59   36   35 1    
    60   60   35 1    
    61   61   35 1    
    62   38   37 1    
    63   62   37 1    
    64   63   37 1    
    65   42   39 ar   
    66   64   39 1    
    67   41   40 1    
    68   65   41 1    
    69   66   41 1    
    70   67   42 1    
    71   46   43 2    
    72   45   44 2    
    73   48   44 1    
    74   47   46 1    
    75   68   46 1    
    76   69   48 1    
    77   70   48 1    
    78   71   48 1    
@<TRIPOS>SUBSTRUCTURE
     1 N01701      1 GROUP   
@<TRIPOS>SET

