#    Name: 2vau_V20_1_INTS_M
#    Modification time : Tue Mar 25 01:20:50 2014

@<TRIPOS>MOLECULE
2vau_V20_1_INTS_M
   59     0     9     0     0
SMALL
NO_CHARGES


@<TRIPOS>ATOM
      1 NZ         18.8680   35.5900    3.8960 N.4       2 LYC4        0.0000 
      2 NZ         17.5410   35.8780    4.3210 N.4       8 LYL4        0.0000 
      3 NZ         21.1840   35.4970    4.3020 N.4       5 LYP4        0.0000 
      4 N          18.8680   35.5900    3.8960 N.am      1 SEC2        0.0000 
      5 N          17.5410   35.8780    4.3210 N.am      7 SEL2        0.0000 
      6 N          20.1950   35.3020    3.4710 N.am      4 SEP2        0.0000 
      7 N          17.0550   34.8100    3.6460 N.am      1 SEC2        0.0000 
      8 N          16.5690   33.7420    2.9710 N.am      4 SEP2        0.0000 
      9 NZ         19.6400   36.1480    5.9405 N.4       2 LYC4        0.0000 
     10 NZ         18.3210   36.2230    6.3890 N.4       8 LYL4        0.0000 
     11 N          19.6400   36.1480    5.9405 N.am      1 SEC2        0.0000 
     12 N          18.3210   36.2230    6.3890 N.am      7 SEL2        0.0000 
     13 N          20.9590   36.0730    5.4920 N.am      4 SEP2        0.0000 
     14 CA         16.3820   34.5820    6.7940 C.3       3 GLC5        0.0000 
     15 CA         15.9820   36.3330    6.1100 C.3       9 GLL5        0.0000 
     16 CA         16.7820   32.8310    7.4780 C.3       6 GLP5        0.0000 
     17 CA         14.5200   34.9305    5.8715 C.3       3 GLC5        0.0000 
     18 CA         13.0580   33.5280    5.6330 C.3       6 GLP5        0.0000 
     19 CA         16.3105   39.1360    4.7535 C.3       3 GLC5        0.0000 
     20 CA         15.4190   37.5570    5.4140 C.3       9 GLL5        0.0000 
     21 CA         17.2020   40.7150    4.0930 C.3       6 GLP5        0.0000 
     22 CA         13.5115   35.7025    5.7445 C.3       3 GLC5        0.0000 
     23 CA         13.9650   37.8770    5.8560 C.3       9 GLL5        0.0000 
     24 CA         15.3500   39.9650    4.7035 C.3       3 GLC5        0.0000 
     25 CA         13.4980   39.2150    5.3140 C.3       9 GLL5        0.0000 
     26 CA         13.0760   41.0375    4.9790 C.3       3 GLC5        0.0000 
     27 CA         12.6540   42.8600    4.6440 C.3       6 GLP5        0.0000 
     28 CA         10.7260   38.2030    3.4855 C.3       3 GLC5        0.0000 
     29 CA          9.7430   39.6210    4.8720 C.3       9 GLL5        0.0000 
     30 CA         11.7090   36.7850    2.0990 C.3       6 GLP5        0.0000 
     31 CA         10.6520   38.3345    2.1230 C.3       3 GLC5        0.0000 
     32 CA          9.5950   39.8840    2.1470 C.3       9 GLL5        0.0000 
     33 CA          7.2100   36.0750    5.4005 C.3       3 GLC5        0.0000 
     34 CA          6.8190   37.3810    4.1840 C.3       9 GLL5        0.0000 
     35 CA          7.6010   34.7690    6.6170 C.3       6 GLP5        0.0000 
     36 N           4.6215   38.1855    7.0305 N.am      1 SEC2        0.0000 
     37 N           5.4010   38.1460    5.9830 N.am      7 SEL2        0.0000 
     38 N           3.8420   38.2250    8.0780 N.am      4 SEP2        0.0000 
     39 N           4.5615   35.4545    4.2005 N.am      1 SEC2        0.0000 
     40 N           4.5030   36.7250    4.5240 N.am      7 SEL2        0.0000 
     41 N           4.6200   34.1840    3.8770 N.am      4 SEP2        0.0000 
     42 CA          4.5400   36.8830    0.4220 C.3       3 GLC5        0.0000 
     43 CA          4.5000   38.8310    1.5040 C.3       9 GLL5        0.0000 
     44 CA          4.5800   34.9350   -0.6600 C.3       6 GLP5        0.0000 
     45 CA          2.8360   38.6570    1.3415 C.3       3 GLC5        0.0000 
     46 CA          1.1720   38.4830    1.1790 C.3       6 GLP5        0.0000 
     47 CA         13.3815   37.1920    4.0597 C.3       3 GLC5        0.0000 
     48 CA         12.6680   35.9180    2.6450 C.3       6 GLP5        0.0000 
     49 CA          8.5990   41.4860    5.0938 C.3       3 GLC5        0.0000 
     50 CA          7.6930   42.8890    5.8490 C.3       6 GLP5        0.0000 
     51 CA         11.0795   41.4715    4.4912 C.3       3 GLC5        0.0000 
     52 CA          9.2670   40.5450    3.8050 C.3       9 GLL5        0.0000 
     53 CA          8.9440   41.8203    2.3055 C.3       3 GLC5        0.0000 
     54 CA          8.4570   43.4260    1.6350 C.3       6 GLP5        0.0000 
     55 CA          5.1182   40.3930    0.5817 C.3       3 GLC5        0.0000 
     56 CA          6.0210   39.3090    2.3070 C.3       9 GLL5        0.0000 
     57 CA          4.9760   41.7160   -0.7420 C.3       6 GLP5        0.0000 
     58 CA          3.9232   39.6565    3.1982 C.3       3 GLC5        0.0000 
     59 CA          2.5860   40.2430    4.4910 C.3       6 GLP5        0.0000 
@<TRIPOS>BOND
@<TRIPOS>SUBSTRUCTURE
     1 SEC2        4 GROUP        1 X    SEC  0     ROOT SEC X 2
     2 LYC4        1 GROUP        1 X    LYC  0     **** LYC X 4
     3 GLC5       14 GROUP        1 X    GLC  0     **** GLC X 6
     4 SEP2        6 GROUP        1 Y    SEP  0     ROOT SEP Y 9
     5 LYP4        3 GROUP        1 Y    LYP  0     **** LYP Y 11
     6 GLP5       16 GROUP        1 Y    GLP  0     **** GLP Y 13
     7 SEL2        5 GROUP        1 Z    SEL  0     ROOT SEL Z 16
     8 LYL4        2 GROUP        1 Z    LYL  0     **** LYL Z 18
     9 GLL5       15 GROUP        1 Z    GLL  0     **** GLL Z 20
@<TRIPOS>SET

