#    Name: 2vau_V20_1_ligand
#    Modification time : Tue Mar 25 01:20:50 2014

@<TRIPOS>MOLECULE
2vau_V20_1_ligand
   44    43     1     0     0
SMALL
NO_CHARGES


@<TRIPOS>ATOM
      1 O          17.5410   35.8780    4.3210 O.co2     1 V201333     0.0000 
      2 C          17.3710   36.1330    5.5740 C.2       1 V201333     0.0000 
      3 OXT        18.3210   36.2230    6.3890 O.co2     1 V201333     0.0000 
      4 CA         15.9820   36.3330    6.1100 C.3       1 V201333     0.0000 
      5 N          15.9500   36.4610    7.6110 N.4       1 V201333     0.0000 
      6 CB         15.4190   37.5570    5.4140 C.3       1 V201333     0.0000 
      7 CAJ        13.9650   37.8770    5.8560 C.3       1 V201333     0.0000 
      8 CAL        13.4980   39.2150    5.3140 C.3       1 V201333     0.0000 
      9 CAT        12.0420   39.4830    5.6570 C.2       1 V201333     0.0000 
     10 OAE        11.7050   39.7800    6.7850 O.2       1 V201333     0.0000 
     11 NAO        11.1700   39.3770    4.6730 N.am      1 V201333     0.0000 
     12 CAW         9.7430   39.6210    4.8720 C.3       1 V201333     0.0000 
     13 CAK         9.2670   40.5450    3.8050 C.3       1 V201333     0.0000 
     14 SAI         9.5950   39.8840    2.1470 S.3       1 V201333     0.0000 
     15 CAU         8.9870   38.3250    4.7550 C.2       1 V201333     0.0000 
     16 OAF         9.4950   37.2440    4.5920 O.2       1 V201333     0.0000 
     17 OAP         7.6040   38.4680    4.7120 O.3       1 V201333     0.0000 
     18 CAX         6.8190   37.3810    4.1840 C.3       1 V201333     0.0000 
     19 CAS         5.4900   37.4130    4.9430 C.2       1 V201333     0.0000 
     20 OAD         5.4010   38.1460    5.9830 O.co2     1 V201333     0.0000 
     21 OAH         4.5030   36.7250    4.5240 O.co2     1 V201333     0.0000 
     22 CAN         6.6940   37.7080    2.6930 C.3       1 V201333     0.0000 
     23 SAQ         6.0210   39.3090    2.3070 S.3       1 V201333     0.0000 
     24 CAA         4.5000   38.8310    1.5040 C.3       1 V201333     0.0000 
     25 H          15.3774   35.4767    5.8062 H         1 V201333     0.0000 
     26 H          15.4225   37.4009    4.3305 H         1 V201333     0.0000 
     27 H          16.0446   38.4281    5.6335 H         1 V201333     0.0000 
     28 H          13.9305   37.8868    6.9460 H         1 V201333     0.0000 
     29 H          13.3119   37.0825    5.4933 H         1 V201333     0.0000 
     30 H          13.6196   39.2269    4.2263 H         1 V201333     0.0000 
     31 H          14.1193   40.0121    5.7342 H         1 V201333     0.0000 
     32 H          11.4472   39.1142    3.7007 H         1 V201333     0.0000 
     33 H           9.5607   40.0532    5.8282 H         1 V201333     0.0000 
     34 H           9.7810   41.4879    3.7702 H         1 V201333     0.0000 
     35 H           8.2019   40.6839    3.7783 H         1 V201333     0.0000 
     36 H           7.3053   36.4654    4.3170 H         1 V201333     0.0000 
     37 H           6.0240   37.0281    2.1705 H         1 V201333     0.0000 
     38 H           7.6563   37.7177    2.1849 H         1 V201333     0.0000 
     39 H          16.3121   35.6448    8.0611 H         1 V201333     0.0000 
     40 H          16.4944   37.2371    7.9292 H         1 V201333     0.0000 
     41 H          15.0198   36.5958    7.9525 H         1 V201333     0.0000 
     42 H           4.6661   38.4260    0.6049 H         1 V201333     0.0000 
     43 H           3.9930   38.1562    2.0403 H         1 V201333     0.0000 
     44 H           3.8916   39.6125    1.3656 H         1 V201333     0.0000 
@<TRIPOS>BOND
     1    2    1 ar   
     2    3    2 ar   
     3    4    2 1    
     4    5    4 1    
     5    6    4 1    
     6   25    4 1    
     7   39    5 1    
     8   40    5 1    
     9   41    5 1    
    10    7    6 1    
    11   26    6 1    
    12   27    6 1    
    13    8    7 1    
    14   28    7 1    
    15   29    7 1    
    16    9    8 1    
    17   30    8 1    
    18   31    8 1    
    19   10    9 2    
    20   11    9 am   
    21   12   11 1    
    22   32   11 1    
    23   13   12 1    
    24   15   12 1    
    25   33   12 1    
    26   14   13 1    
    27   34   13 1    
    28   35   13 1    
    29   16   15 2    
    30   17   15 1    
    31   18   17 1    
    32   19   18 1    
    33   22   18 1    
    34   36   18 1    
    35   20   19 ar   
    36   21   19 ar   
    37   23   22 1    
    38   37   22 1    
    39   38   22 1    
    40   24   23 1    
    41   42   24 1    
    42   43   24 1    
    43   44   24 1    
@<TRIPOS>SUBSTRUCTURE
     1 V201333     1 GROUP   
@<TRIPOS>SET

