#    Name: 4e9b_BB2_1_INTS_M
#    Modification time : Tue Mar 25 10:46:38 2014

@<TRIPOS>MOLECULE
4e9b_BB2_1_INTS_M
   73     0    12     0     0
SMALL
NO_CHARGES


@<TRIPOS>ATOM
      1 CA         80.3470   88.1565   51.7355 C.3       4 GLC5        0.0000 
      2 CA         79.3220   88.6150   53.2900 C.3      12 GLL5        0.0000 
      3 CA         81.3720   87.6980   50.1810 C.3       8 GLP5        0.0000 
      4 Zn         79.3125   85.4555   54.0730 Zn        3 ZIC7        0.0000 
      5 Zn         79.5530   86.2380   53.3700 Zn       11 ZIL7        0.0000 
      6 Zn         79.0720   84.6730   54.7760 Zn        7 ZIP7        0.0000 
      7 N          80.8425   85.2770   53.5660 N.am      2 SEC2        0.0000 
      8 N          79.5530   86.2380   53.3700 N.am     10 SEL2        0.0000 
      9 N          82.1320   84.3160   53.7620 N.am      6 SEP2        0.0000 
     10 N          79.4695   85.8250   52.0285 N.am      2 SEC2        0.0000 
     11 N          79.3860   85.4120   50.6870 N.am      6 SEP2        0.0000 
     12 O          81.1360   88.7160   54.8765 O.2       1 ALC1        0.0000 
     13 O          80.1640   87.3670   55.2030 O.2       9 ALL1        0.0000 
     14 O          82.1080   90.0650   54.5500 O.2       5 ALP1        0.0000 
     15 O          80.0855   88.1030   56.2845 O.2       1 ALC1        0.0000 
     16 O          80.0070   88.8390   57.3660 O.2       5 ALP1        0.0000 
     17 Zn         79.6745   85.3965   55.3125 Zn        3 ZIC7        0.0000 
     18 Zn         80.2770   86.1200   55.8490 Zn       11 ZIL7        0.0000 
     19 O          80.7525   86.6810   57.0620 O.2       1 ALC1        0.0000 
     20 O          80.2770   86.1200   55.8490 O.2       9 ALL1        0.0000 
     21 O          81.2280   87.2420   58.2750 O.2       5 ALP1        0.0000 
     22 N          78.9480   91.9735   52.4665 N.am      2 SEC2        0.0000 
     23 N          78.0630   90.8630   52.2130 N.am     10 SEL2        0.0000 
     24 N          79.8330   93.0840   52.7200 N.am      6 SEP2        0.0000 
     25 CA         79.4765   90.5855   55.5325 C.3       4 GLC5        0.0000 
     26 CA         77.6520   89.6050   54.8490 C.3      12 GLL5        0.0000 
     27 CA         81.3010   91.5660   56.2160 C.3       8 GLP5        0.0000 
     28 CA         77.5380   87.7645   55.9095 C.3       4 GLC5        0.0000 
     29 CA         77.4240   85.9240   56.9700 C.3       8 GLP5        0.0000 
     30 CA         75.7515   87.5665   56.6020 C.3       4 GLC5        0.0000 
     31 CA         75.3680   89.0130   55.7530 C.3      12 GLL5        0.0000 
     32 CA         76.1350   86.1200   57.4510 C.3       8 GLP5        0.0000 
     33 CA         74.8320   88.1360   57.5085 C.3       4 GLC5        0.0000 
     34 CA         74.0300   89.5390   56.3020 C.3      12 GLL5        0.0000 
     35 CA         75.6340   86.7330   58.7150 C.3       8 GLP5        0.0000 
     36 CA         71.2530   91.2820   55.1970 C.3       4 GLC5        0.0000 
     37 CA         73.2060   90.3340   55.2970 C.3      12 GLL5        0.0000 
     38 CA         69.3000   92.2300   55.0970 C.3       8 GLP5        0.0000 
     39 CA         72.7840   92.1825   55.9700 C.3       4 GLC5        0.0000 
     40 CA         72.3620   94.0310   56.6430 C.3       8 GLP5        0.0000 
     41 O          75.7175   88.0635   52.1025 O.2       1 ALC1        0.0000 
     42 O          76.3170   89.5190   51.7680 O.2       9 ALL1        0.0000 
     43 O          75.1180   86.6080   52.4370 O.2       5 ALP1        0.0000 
     44 CA         74.6730   87.9380   50.0335 C.3       4 GLC5        0.0000 
     45 CA         75.7170   89.7990   49.4520 C.3      12 GLL5        0.0000 
     46 CA         73.6290   86.0770   50.6150 C.3       8 GLP5        0.0000 
     47 CA         79.1185   88.8710   48.8815 C.3       4 GLC5        0.0000 
     48 CA         77.1620   89.6140   49.0040 C.3      12 GLL5        0.0000 
     49 CA         81.0750   88.1280   48.7590 C.3       8 GLP5        0.0000 
     50 N          73.1885   88.2240   51.5225 N.am      2 SEC2        0.0000 
     51 N          73.6180   89.5410   51.6380 N.am     10 SEL2        0.0000 
     52 N          72.7590   86.9070   51.4070 N.am      6 SEP2        0.0000 
     53 CA         72.2725   93.6745   54.4960 C.3       4 GLC5        0.0000 
     54 CA         72.1830   93.3180   52.3490 C.3      12 GLL5        0.0000 
     55 O          69.6490   90.5875   52.0690 O.2       1 ALC1        0.0000 
     56 O          69.9630   91.6930   51.3370 O.2       9 ALL1        0.0000 
     57 O          69.3350   89.4820   52.8010 O.2       5 ALP1        0.0000 
     58 CA         77.1258   91.6322   54.6590 C.3       4 GLC5        0.0000 
     59 CA         76.2290   90.0820   55.1210 C.3      12 GLL5        0.0000 
     60 CA         77.3110   93.4210   54.3330 C.3       8 GLP5        0.0000 
     61 CA         75.1420   90.1130   57.9102 C.3       4 GLC5        0.0000 
     62 CA         75.5850   90.9500   59.7930 C.3       8 GLP5        0.0000 
     63 CA         72.2765   88.5503   55.6358 C.3       4 GLC5        0.0000 
     64 CA         70.9350   87.1640   55.4720 C.3       8 GLP5        0.0000 
     65 CA         72.4275   89.7532   57.2947 C.3       4 GLC5        0.0000 
     66 CA         71.2370   89.5700   58.7900 C.3       8 GLP5        0.0000 
     67 CA         74.1275   88.8955   47.9940 C.3       4 GLC5        0.0000 
     68 CA         72.9280   87.5870   47.0480 C.3       8 GLP5        0.0000 
     69 CA         70.7690   92.4087   53.6195 C.3       4 GLC5        0.0000 
     70 CA         72.2930   91.8570   51.9350 C.3      12 GLL5        0.0000 
     71 CA         74.8515   93.7375   53.0965 C.3       4 GLC5        0.0000 
     72 CA         73.2640   94.0850   51.6140 C.3      12 GLL5        0.0000 
     73 CA         75.9440   93.9070   54.8450 C.3       8 GLP5        0.0000 
@<TRIPOS>BOND
@<TRIPOS>SUBSTRUCTURE
     1 ALC1       12 GROUP        1 X    ALC  0     ROOT ALC X 1
     2 SEC2        7 GROUP        1 X    SEC  0     **** SEC X 2
     3 ZIC7        4 GROUP        1 X    ZIC  0     **** ZIC X 5
     4 GLC5        1 GROUP        1 X    GLC  0     **** GLC X 6
     5 ALP1       14 GROUP        1 Y    ALP  0     ROOT ALP Y 8
     6 SEP2        9 GROUP        1 Y    SEP  0     **** SEP Y 9
     7 ZIP7        6 GROUP        1 Y    ZIP  0     **** ZIP Y 12
     8 GLP5        3 GROUP        1 Y    GLP  0     **** GLP Y 13
     9 ALL1       13 GROUP        1 Z    ALL  0     ROOT ALL Z 15
    10 SEL2        8 GROUP        1 Z    SEL  0     **** SEL Z 16
    11 ZIL7        5 GROUP        1 Z    ZIL  0     **** ZIL Z 19
    12 GLL5        2 GROUP        1 Z    GLL  0     **** GLL Z 20
@<TRIPOS>SET

