#    Name: 4e9b_BB2_1_ligand
#    Modification time : Tue Mar 25 10:46:38 2014

@<TRIPOS>MOLECULE
4e9b_BB2_1_ligand
   62    62     1     0     0
SMALL
NO_CHARGES


@<TRIPOS>ATOM
      1 C5         79.3220   88.6150   53.2900 C.3       1 BB2202      0.0000 
      2 C3         79.6900   87.3100   53.9550 C.2       1 BB2202      0.0000 
      3 O4         79.5530   86.2380   53.3700 O.2       1 BB2202      0.0000 
      4 N1         80.1640   87.3670   55.2030 N.am      1 BB2202      0.0000 
      5 O2         80.2770   86.1200   55.8490 O.3       1 BB2202      0.0000 
      6 C6         77.8360   88.8980   53.5010 C.3       1 BB2202      0.0000 
      7 C12        77.4130   89.8620   52.4360 C.2       1 BB2202      0.0000 
      8 O13        78.0630   90.8630   52.2130 O.2       1 BB2202      0.0000 
      9 C7         77.6520   89.6050   54.8490 C.3       1 BB2202      0.0000 
     10 C8         76.2290   90.0820   55.1210 C.3       1 BB2202      0.0000 
     11 C9         75.3680   89.0130   55.7530 C.3       1 BB2202      0.0000 
     12 C10        74.0300   89.5390   56.3020 C.3       1 BB2202      0.0000 
     13 C11        73.2060   90.3340   55.2970 C.3       1 BB2202      0.0000 
     14 N14        76.3170   89.5190   51.7680 N.am      1 BB2202      0.0000 
     15 C15        75.6440   90.4210   50.8510 C.3       1 BB2202      0.0000 
     16 C16        75.7170   89.7990   49.4520 C.3       1 BB2202      0.0000 
     17 C18        74.9370   90.6090   48.4280 C.3       1 BB2202      0.0000 
     18 C17        77.1620   89.6140   49.0040 C.3       1 BB2202      0.0000 
     19 C19        74.2150   90.5510   51.3040 C.2       1 BB2202      0.0000 
     20 O20        73.6180   89.5410   51.6380 O.2       1 BB2202      0.0000 
     21 N21        73.6490   91.7570   51.3940 N.am      1 BB2202      0.0000 
     22 C22        72.2930   91.8570   51.9350 C.3       1 BB2202      0.0000 
     23 C23        74.2540   93.0510   51.0820 C.3       1 BB2202      0.0000 
     24 C24        73.2640   94.0850   51.6140 C.3       1 BB2202      0.0000 
     25 C25        72.1830   93.3180   52.3490 C.3       1 BB2202      0.0000 
     26 C26        71.2960   91.5070   50.8210 C.3       1 BB2202      0.0000 
     27 O27        69.9630   91.6930   51.3370 O.3       1 BB2202      0.0000 
     28 H          79.5246   88.5550   52.2249 H         1 BB2202      0.0000 
     29 H          79.9028   89.4244   53.7219 H         1 BB2202      0.0000 
     30 H          80.4276   88.2082   55.6733 H         1 BB2202      0.0000 
     31 H          77.2821   88.0241   53.4650 H         1 BB2202      0.0000 
     32 H          78.3357   90.4708   54.8908 H         1 BB2202      0.0000 
     33 H          77.9607   88.9165   55.6548 H         1 BB2202      0.0000 
     34 H          75.7751   90.4039   54.1737 H         1 BB2202      0.0000 
     35 H          76.2684   90.9580   55.7829 H         1 BB2202      0.0000 
     36 H          75.9201   88.5365   56.5793 H         1 BB2202      0.0000 
     37 H          75.1548   88.2260   55.0115 H         1 BB2202      0.0000 
     38 H          74.2364   90.1720   57.1822 H         1 BB2202      0.0000 
     39 H          73.4354   88.6805   56.6590 H         1 BB2202      0.0000 
     40 H          75.8807   88.5712   51.8716 H         1 BB2202      0.0000 
     41 H          76.1121   91.3701   50.8371 H         1 BB2202      0.0000 
     42 H          75.2585   88.7998   49.5089 H         1 BB2202      0.0000 
     43 H          72.1682   91.2369   52.7628 H         1 BB2202      0.0000 
     44 H          74.3601   93.1883   50.0238 H         1 BB2202      0.0000 
     45 H          75.1902   93.1777   51.5893 H         1 BB2202      0.0000 
     46 H          72.8344   94.6246   50.7915 H         1 BB2202      0.0000 
     47 H          73.7684   94.7466   52.2924 H         1 BB2202      0.0000 
     48 H          72.3348   93.4028   53.4121 H         1 BB2202      0.0000 
     49 H          71.2139   93.6982   52.0718 H         1 BB2202      0.0000 
     50 H          71.4731   90.4761   50.5249 H         1 BB2202      0.0000 
     51 H          71.4955   92.1606   49.9756 H         1 BB2202      0.0000 
     52 H          73.6975   91.1408   54.9692 H         1 BB2202      0.0000 
     53 H          72.9717   89.7869   54.4934 H         1 BB2202      0.0000 
     54 H          72.3461   90.6556   55.6934 H         1 BB2202      0.0000 
     55 H          75.2840   91.5437   48.3515 H         1 BB2202      0.0000 
     56 H          74.9876   90.2020   47.5160 H         1 BB2202      0.0000 
     57 H          73.9680   90.6746   48.6664 H         1 BB2202      0.0000 
     58 H          77.6531   90.4842   48.9651 H         1 BB2202      0.0000 
     59 H          77.6703   89.0182   49.6259 H         1 BB2202      0.0000 
     60 H          77.2190   89.2043   48.0936 H         1 BB2202      0.0000 
     61 H          80.9139   86.2765   56.6039 H         1 BB2202      0.0000 
     62 H          69.9385   91.1655   52.1862 H         1 BB2202      0.0000 
@<TRIPOS>BOND
     1    2    1 1    
     2    6    1 1    
     3   28    1 1    
     4   29    1 1    
     5    3    2 2    
     6    4    2 am   
     7    5    4 1    
     8   30    4 1    
     9   61    5 1    
    10    7    6 1    
    11    9    6 1    
    12   31    6 1    
    13    8    7 2    
    14   14    7 am   
    15   10    9 1    
    16   32    9 1    
    17   33    9 1    
    18   11   10 1    
    19   34   10 1    
    20   35   10 1    
    21   12   11 1    
    22   36   11 1    
    23   37   11 1    
    24   13   12 1    
    25   38   12 1    
    26   39   12 1    
    27   52   13 1    
    28   53   13 1    
    29   54   13 1    
    30   15   14 1    
    31   40   14 1    
    32   16   15 1    
    33   19   15 1    
    34   41   15 1    
    35   17   16 1    
    36   18   16 1    
    37   42   16 1    
    38   55   17 1    
    39   56   17 1    
    40   57   17 1    
    41   58   18 1    
    42   59   18 1    
    43   60   18 1    
    44   20   19 2    
    45   21   19 am   
    46   22   21 1    
    47   23   21 1    
    48   25   22 1    
    49   26   22 1    
    50   43   22 1    
    51   24   23 1    
    52   44   23 1    
    53   45   23 1    
    54   25   24 1    
    55   46   24 1    
    56   47   24 1    
    57   48   25 1    
    58   49   25 1    
    59   27   26 1    
    60   50   26 1    
    61   51   26 1    
    62   62   27 1    
@<TRIPOS>SUBSTRUCTURE
     1 BB2202      1 GROUP   
@<TRIPOS>SET

