#    Name: 2hv9_SFG_1_INTS_M
#    Modification time : Tue Mar 25 17:05:28 2014

@<TRIPOS>MOLECULE
2hv9_SFG_1_INTS_M
   71     0    12     0     0
SMALL
NO_CHARGES


@<TRIPOS>ATOM
      1 O          14.2920   29.1395   91.4065 O.2       1 ALC1        0.0000 
      2 O          13.8370   30.4570   91.5330 O.2       9 ALL1        0.0000 
      3 O          14.7470   27.8220   91.2800 O.2       5 ALP1        0.0000 
      4 O          13.5695   30.8865   90.2395 O.2       1 ALC1        0.0000 
      5 O          13.3020   31.3160   88.9460 O.2       5 ALP1        0.0000 
      6 O          12.6400   30.1495   92.1330 O.2       1 ALC1        0.0000 
      7 O          11.4430   29.8420   92.7330 O.2       5 ALP1        0.0000 
      8 NZ         12.0855   33.9320   92.4000 N.4       3 LYC4        0.0000 
      9 NZ         12.8280   32.9600   91.6870 N.4      11 LYL4        0.0000 
     10 NZ         11.3430   34.9040   93.1130 N.4       7 LYP4        0.0000 
     11 N          12.0855   33.9320   92.4000 N.am      2 SEC2        0.0000 
     12 N          12.8280   32.9600   91.6870 N.am     10 SEL2        0.0000 
     13 N          11.3430   34.9040   93.1130 N.am      6 SEP2        0.0000 
     14 NZ         12.9495   34.3600   93.0325 N.4       3 LYC4        0.0000 
     15 NZ         14.5560   33.8160   92.9520 N.4      11 LYL4        0.0000 
     16 N          12.9495   34.3600   93.0325 N.am      2 SEC2        0.0000 
     17 N          14.5560   33.8160   92.9520 N.am     10 SEL2        0.0000 
     18 CA         18.6290   29.6355   87.2020 C.3       4 GLC5        0.0000 
     19 CA         17.7980   29.8290   89.0830 C.3      12 GLL5        0.0000 
     20 CA         19.4600   29.4420   85.3210 C.3       8 GLP5        0.0000 
     21 CA         16.5645   27.0885   90.0010 C.3       4 GLC5        0.0000 
     22 CA         18.0630   28.4800   89.7610 C.3      12 GLL5        0.0000 
     23 CA         15.0660   25.6970   90.2410 C.3       8 GLP5        0.0000 
     24 N          16.9690   27.2730   87.8895 N.am      2 SEC2        0.0000 
     25 N          18.0490   27.5030   88.7110 N.am     10 SEL2        0.0000 
     26 N          15.8890   27.0430   87.0680 N.am      6 SEP2        0.0000 
     27 O          18.4235   27.1865   92.1845 O.2       1 ALC1        0.0000 
     28 O          19.2600   28.3760   91.8300 O.2       9 ALL1        0.0000 
     29 O          17.5870   25.9970   92.5390 O.2       5 ALP1        0.0000 
     30 O          19.9465   25.3775   91.7705 O.2       1 ALC1        0.0000 
     31 O          20.5500   26.0720   90.8790 O.2       9 ALL1        0.0000 
     32 O          19.3430   24.6830   92.6620 O.2       5 ALP1        0.0000 
     33 O          19.0685   26.0345   91.7090 O.2       1 ALC1        0.0000 
     34 CA         16.9020   26.0565   89.7195 C.3       4 GLC5        0.0000 
     35 CA         18.7380   26.4160   89.1980 C.3      12 GLL5        0.0000 
     36 CA         19.1440   25.1065   84.9635 C.3       4 GLC5        0.0000 
     37 CA         19.2250   23.8380   86.7890 C.3      12 GLL5        0.0000 
     38 CA         19.0630   26.3750   83.1380 C.3       8 GLP5        0.0000 
     39 CA         19.9475   22.1180   87.9660 C.3       4 GLC5        0.0000 
     40 CA         18.8900   22.5150   86.4070 C.3      12 GLL5        0.0000 
     41 CA         21.0050   21.7210   89.5250 C.3       8 GLP5        0.0000 
     42 CA         18.8965   20.4255   87.0965 C.3       4 GLC5        0.0000 
     43 CA         18.9030   18.3360   87.7860 C.3       8 GLP5        0.0000 
     44 CA         17.6455   21.8415   84.7315 C.3       4 GLC5        0.0000 
     45 CA         16.4010   21.1680   83.0560 C.3       8 GLP5        0.0000 
     46 O          19.0735   20.5755   85.1955 O.2       1 ALC1        0.0000 
     47 O          19.4100   21.9690   85.2890 O.2       9 ALL1        0.0000 
     48 O          18.7370   19.1820   85.1020 O.2       5 ALP1        0.0000 
     49 N          17.3120   20.3175   87.2300 N.am      2 SEC2        0.0000 
     50 N          18.0150   21.7730   87.2010 N.am     10 SEL2        0.0000 
     51 N          16.6090   18.8620   87.2590 N.am      6 SEP2        0.0000 
     52 CA         17.3400   22.4675   90.3860 C.3       4 GLC5        0.0000 
     53 CA         17.4930   22.3550   88.3430 C.3      12 GLL5        0.0000 
     54 CA         17.1870   22.5800   92.4290 C.3       8 GLP5        0.0000 
     55 CA         19.2490   22.0380   88.9340 C.3       4 GLC5        0.0000 
     56 CA         18.1980   20.3455   88.0645 C.3       4 GLC5        0.0000 
     57 CA         15.8755   20.8630   88.0385 C.3       4 GLC5        0.0000 
     58 CA         14.2580   19.3710   87.7340 C.3       8 GLP5        0.0000 
     59 N          18.4750   22.8290   89.9950 N.am      2 SEC2        0.0000 
     60 N          17.7450   23.6130   88.8020 N.am     10 SEL2        0.0000 
     61 N          19.2050   22.0450   91.1880 N.am      6 SEP2        0.0000 
     62 CA         16.8455   25.0010   89.1050 C.3       4 GLC5        0.0000 
     63 CA         18.6250   24.3050   87.9690 C.3      12 GLL5        0.0000 
     64 CA         16.0577   30.0173   93.2660 C.3       4 GLC5        0.0000 
     65 CA         16.0170   31.7300   91.7320 C.3      12 GLL5        0.0000 
     66 CA         16.8020   28.4250   94.5190 C.3       8 GLP5        0.0000 
     67 CA         16.5197   28.6867   88.2375 C.3       4 GLC5        0.0000 
     68 CA         15.1090   28.2190   87.0530 C.3       8 GLP5        0.0000 
     69 CA         20.4360   24.9177   89.5215 C.3       4 GLC5        0.0000 
     70 CA         21.5230   23.1460   89.4610 C.3       8 GLP5        0.0000 
     71 CA         20.2240   23.6088   88.4200 C.3       4 GLC5        0.0000 
@<TRIPOS>BOND
@<TRIPOS>SUBSTRUCTURE
     1 ALC1        1 GROUP        1 X    ALC  0     ROOT ALC X 1
     2 SEC2       11 GROUP        1 X    SEC  0     **** SEC X 2
     3 LYC4        8 GROUP        1 X    LYC  0     **** LYC X 4
     4 GLC5       18 GROUP        1 X    GLC  0     **** GLC X 6
     5 ALP1        3 GROUP        1 Y    ALP  0     ROOT ALP Y 8
     6 SEP2       13 GROUP        1 Y    SEP  0     **** SEP Y 9
     7 LYP4       10 GROUP        1 Y    LYP  0     **** LYP Y 11
     8 GLP5       20 GROUP        1 Y    GLP  0     **** GLP Y 13
     9 ALL1        2 GROUP        1 Z    ALL  0     ROOT ALL Z 15
    10 SEL2       12 GROUP        1 Z    SEL  0     **** SEL Z 16
    11 LYL4        9 GROUP        1 Z    LYL  0     **** LYL Z 18
    12 GLL5       19 GROUP        1 Z    GLL  0     **** GLL Z 20
@<TRIPOS>SET

