#    Name: 2hv9_SFG_1_ligand
#    Modification time : Tue Mar 25 17:05:28 2014

@<TRIPOS>MOLECULE
2hv9_SFG_1_ligand
   48    50     1     0     0
SMALL
NO_CHARGES


@<TRIPOS>ATOM
      1 N          13.8370   30.4570   91.5330 N.4       1 SFG299      0.0000 
      2 CA         14.6100   31.4890   92.2940 C.3       1 SFG299      0.0000 
      3 C          13.9060   32.8390   92.2850 C.2       1 SFG299      0.0000 
      4 O          12.8280   32.9600   91.6870 O.co2     1 SFG299      0.0000 
      5 OXT        14.5560   33.8160   92.9520 O.co2     1 SFG299      0.0000 
      6 CB         16.0170   31.7300   91.7320 C.3       1 SFG299      0.0000 
      7 CG         16.4030   30.8130   90.6530 C.3       1 SFG299      0.0000 
      8 CD         17.7460   30.9990   89.9890 C.3       1 SFG299      0.0000 
      9 NE         17.5780   32.1670   89.1030 N.3       1 SFG299      0.0000 
     10 C5'        17.7980   29.8290   89.0830 C.3       1 SFG299      0.0000 
     11 C4'        18.0630   28.4800   89.7610 C.3       1 SFG299      0.0000 
     12 O4'        18.0490   27.5030   88.7110 O.3       1 SFG299      0.0000 
     13 C3'        19.4690   28.3260   90.3720 C.3       1 SFG299      0.0000 
     14 O3'        19.2600   28.3760   91.8300 O.3       1 SFG299      0.0000 
     15 C2'        19.9600   26.9630   89.9660 C.3       1 SFG299      0.0000 
     16 O2'        20.5500   26.0720   90.8790 O.3       1 SFG299      0.0000 
     17 C1'        18.7380   26.4160   89.1980 C.3       1 SFG299      0.0000 
     18 N9         19.0990   25.5680   88.1100 N.pl3     1 SFG299      0.0000 
     19 C8         19.9360   25.7970   87.0340 C.2       1 SFG299      0.0000 
     20 N7         20.0420   24.7940   86.2160 N.2       1 SFG299      0.0000 
     21 C5         19.2250   23.8380   86.7890 C.ar      1 SFG299      0.0000 
     22 C6         18.8900   22.5150   86.4070 C.ar      1 SFG299      0.0000 
     23 N6         19.4100   21.9690   85.2890 N.pl3     1 SFG299      0.0000 
     24 N1         18.0150   21.7730   87.2010 N.ar      1 SFG299      0.0000 
     25 C2         17.4930   22.3550   88.3430 C.ar      1 SFG299      0.0000 
     26 N3         17.7450   23.6130   88.8020 N.ar      1 SFG299      0.0000 
     27 C4         18.6250   24.3050   87.9690 C.ar      1 SFG299      0.0000 
     28 H          14.7196   31.1855   93.3319 H         1 SFG299      0.0000 
     29 H          16.7352   31.6581   92.5756 H         1 SFG299      0.0000 
     30 H          16.0654   32.7821   91.3807 H         1 SFG299      0.0000 
     31 H          15.6124   30.8344   89.8425 H         1 SFG299      0.0000 
     32 H          16.3506   29.7468   91.0309 H         1 SFG299      0.0000 
     33 H          18.4916   31.0517   90.6285 H         1 SFG299      0.0000 
     34 H          18.5854   29.9830   88.3101 H         1 SFG299      0.0000 
     35 H          16.8418   29.7448   88.5176 H         1 SFG299      0.0000 
     36 H          17.3328   28.2699   90.4807 H         1 SFG299      0.0000 
     37 H          20.0796   29.0801   90.0267 H         1 SFG299      0.0000 
     38 H          20.6892   27.1858   89.0969 H         1 SFG299      0.0000 
     39 H          18.1353   25.8732   89.9252 H         1 SFG299      0.0000 
     40 H          20.4052   26.6832   86.9315 H         1 SFG299      0.0000 
     41 H          20.0532   22.5398   84.7787 H         1 SFG299      0.0000 
     42 H          19.1061   21.0419   85.0697 H         1 SFG299      0.0000 
     43 H          16.8180   21.7432   88.9241 H         1 SFG299      0.0000 
     44 H          13.7088   30.7195   90.5766 H         1 SFG299      0.0000 
     45 H          14.2999   29.5706   91.5342 H         1 SFG299      0.0000 
     46 H          12.9271   30.3130   91.9219 H         1 SFG299      0.0000 
     47 H          18.6967   27.5764   92.0382 H         1 SFG299      0.0000 
     48 H          19.7874   25.7041   91.4111 H         1 SFG299      0.0000 
@<TRIPOS>BOND
     1    2    1 1    
     2   44    1 1    
     3   45    1 1    
     4   46    1 1    
     5    3    2 1    
     6    6    2 1    
     7   28    2 1    
     8    4    3 ar   
     9    5    3 ar   
    10    7    6 1    
    11   29    6 1    
    12   30    6 1    
    13    8    7 1    
    14   31    7 1    
    15   32    7 1    
    16    9    8 1    
    17   10    8 1    
    18   33    8 1    
    19   11   10 1    
    20   34   10 1    
    21   35   10 1    
    22   12   11 1    
    23   13   11 1    
    24   36   11 1    
    25   17   12 1    
    26   14   13 1    
    27   15   13 1    
    28   37   13 1    
    29   47   14 1    
    30   16   15 1    
    31   17   15 1    
    32   38   15 1    
    33   48   16 1    
    34   18   17 1    
    35   39   17 1    
    36   19   18 1    
    37   27   18 1    
    38   20   19 2    
    39   40   19 1    
    40   21   20 1    
    41   22   21 ar   
    42   27   21 ar   
    43   23   22 1    
    44   24   22 ar   
    45   41   23 1    
    46   42   23 1    
    47   25   24 ar   
    48   26   25 ar   
    49   43   25 1    
    50   27   26 ar   
@<TRIPOS>SUBSTRUCTURE
     1 SFG299      1 GROUP   
@<TRIPOS>SET

