#    Name: 1dm6_PH3_1_INTS_M
#    Modification time : Mon Mar 24 22:06:12 2014

@<TRIPOS>MOLECULE
1dm6_PH3_1_INTS_M
   23     0     9     0     0
SMALL
NO_CHARGES


@<TRIPOS>ATOM
      1 CA         14.5290   11.1350   33.1095 C.3       3 GLC5        0.0000 
      2 CA         13.0450   12.2270   33.6920 C.3       9 GLL5        0.0000 
      3 CA         16.0130   10.0430   32.5270 C.3       6 GLP5        0.0000 
      4 O           6.5295   13.2410   33.2770 O.2       1 ALC1        0.0000 
      5 O           7.0970   12.5420   32.4440 O.2       7 ALL1        0.0000 
      6 O           5.9620   13.9400   34.1100 O.2       4 ALP1        0.0000 
      7 OD1         5.5560   12.9520   32.7885 O.co2     2 ASC3        0.0000 
      8 OD1         6.4550   11.9510   31.4200 O.co2     8 ASL3        0.0000 
      9 OD1         3.8870   13.2880   33.7490 O.co2     5 ASP3        0.0000 
     10 OD1         5.9620   13.9400   34.1100 O.co2     5 ASP3        0.0000 
     11 O           3.9975   11.7150   30.6720 O.2       1 ALC1        0.0000 
     12 O           5.1500   11.9640   31.4670 O.2       7 ALL1        0.0000 
     13 O           2.8450   11.4660   29.8770 O.2       4 ALP1        0.0000 
     14 O           4.5185   12.6260   32.6080 O.2       1 ALC1        0.0000 
     15 O           3.8870   13.2880   33.7490 O.2       4 ALP1        0.0000 
     16 O           5.5560   12.9520   32.7885 O.2       1 ALC1        0.0000 
     17 CA         10.4928   12.4872   31.4055 C.3       3 GLC5        0.0000 
     18 CA          9.3190   11.1760   32.3320 C.3       9 GLL5        0.0000 
     19 CA         12.0700   13.1560   30.2730 C.3       6 GLP5        0.0000 
     20 CA         11.7876   12.4124   31.6741 C.3       3 GLC5        0.0000 
     21 CA         10.8110   11.1050   32.6500 C.3       9 GLL5        0.0000 
     22 CA         10.9853   13.2995   31.9045 C.3       3 GLC5        0.0000 
     23 CA         10.5940   13.3980   33.6780 C.3       9 GLL5        0.0000 
@<TRIPOS>BOND
@<TRIPOS>SUBSTRUCTURE
     1 ALC1        4 GROUP        1 X    ALC  0     ROOT ALC X 1
     2 ASC3        7 GROUP        1 X    ASC  0     **** ASC X 3
     3 GLC5        1 GROUP        1 X    GLC  0     **** GLC X 6
     4 ALP1        6 GROUP        1 Y    ALP  0     ROOT ALP Y 8
     5 ASP3        9 GROUP        1 Y    ASP  0     **** ASP Y 10
     6 GLP5        3 GROUP        1 Y    GLP  0     **** GLP Y 13
     7 ALL1        5 GROUP        1 Z    ALL  0     ROOT ALL Z 15
     8 ASL3        8 GROUP        1 Z    ASL  0     **** ASL Z 17
     9 GLL5        2 GROUP        1 Z    GLL  0     **** GLL Z 20
@<TRIPOS>SET

