#    Name: 1dm6_PH3_1_ligand
#    Modification time : Mon Mar 24 22:06:12 2014

@<TRIPOS>MOLECULE
1dm6_PH3_1_ligand
   21    21     1     0     0
SMALL
NO_CHARGES


@<TRIPOS>ATOM
      1 CL         13.0450   12.2270   33.6920 Cl        1 PH31780     0.0000 
      2 C1          8.5120   12.4610   32.7440 C.ar      1 PH31780     0.0000 
      3 C2          9.3190   11.1760   32.3320 C.ar      1 PH31780     0.0000 
      4 C3         10.8110   11.1050   32.6500 C.ar      1 PH31780     0.0000 
      5 C4         11.3540   12.2380   33.3090 C.ar      1 PH31780     0.0000 
      6 C5         10.5940   13.3980   33.6780 C.ar      1 PH31780     0.0000 
      7 C6          9.2070   13.4880   33.3940 C.ar      1 PH31780     0.0000 
      8 NE          7.0970   12.5420   32.4440 N.pl3     1 PH31780     0.0000 
      9 CZ          6.4550   11.9510   31.4200 C.cat     1 PH31780     0.0000 
     10 NH1         7.0700   11.3240   30.3810 N.pl3     1 PH31780     0.0000 
     11 NH2         5.1500   11.9640   31.4670 N.pl3     1 PH31780     0.0000 
     12 OH          6.4780   10.7550   29.3470 O.3       1 PH31780     0.0000 
     13 H           8.8591   10.4517   31.8844 H         1 PH31780     0.0000 
     14 H          11.3103   10.3126   32.3961 H         1 PH31780     0.0000 
     15 H          11.0680   14.1712   34.1548 H         1 PH31780     0.0000 
     16 H           8.6984   14.3454   33.6803 H         1 PH31780     0.0000 
     17 H           6.5350   13.1463   33.1341 H         1 PH31780     0.0000 
     18 H           8.1583   11.2969   30.4203 H         1 PH31780     0.0000 
     19 H           4.6781   11.4935   30.7214 H         1 PH31780     0.0000 
     20 H           4.7424   12.4433   32.2443 H         1 PH31780     0.0000 
     21 H           7.1447   10.8117   28.6038 H         1 PH31780     0.0000 
@<TRIPOS>BOND
     1    5    1 1    
     2    3    2 ar   
     3    7    2 ar   
     4    8    2 1    
     5    4    3 ar   
     6   13    3 1    
     7    5    4 ar   
     8   14    4 1    
     9    6    5 ar   
    10    7    6 ar   
    11   15    6 1    
    12   16    7 1    
    13    9    8 ar   
    14   17    8 1    
    15   10    9 ar   
    16   11    9 ar   
    17   12   10 1    
    18   18   10 1    
    19   19   11 1    
    20   20   11 1    
    21   21   12 1    
@<TRIPOS>SUBSTRUCTURE
     1 PH31780     1 GROUP   
@<TRIPOS>SET

