#    Name: 1q4j_GTX_2_INTS_M
#    Modification time : Mon Mar 24 23:04:38 2014

@<TRIPOS>MOLECULE
1q4j_GTX_2_INTS_M
   76     0    12     0     0
SMALL
NO_CHARGES


@<TRIPOS>ATOM
      1 O           6.2660   -3.1855   23.0660 O.2       1 ALC1        0.0000 
      2 O           6.1120   -2.5660   21.7880 O.2       9 ALL1        0.0000 
      3 O           6.4200   -3.8050   24.3440 O.2       5 ALP1        0.0000 
      4 NZ          6.2820    0.5435   21.7025 N.4       3 LYC4        0.0000 
      5 NZ          7.1220   -0.4370   23.0220 N.4      11 LYL4        0.0000 
      6 NZ          5.4420    1.5240   20.3830 N.4       7 LYP4        0.0000 
      7 N           7.4505    0.5605   23.7585 N.am      2 SEC2        0.0000 
      8 N           7.1220   -0.4370   23.0220 N.am     10 SEL2        0.0000 
      9 N           7.7790    1.5580   24.4950 N.am      6 SEP2        0.0000 
     10 N           8.9285   -0.8960   24.7685 N.am      2 SEC2        0.0000 
     11 N           9.1750   -1.3410   23.3090 N.am     10 SEL2        0.0000 
     12 N           8.6820   -0.4510   26.2280 N.am      6 SEP2        0.0000 
     13 N           8.4770    0.1085   23.9020 N.am      2 SEC2        0.0000 
     14 CA          7.9540   -0.0135   20.3240 C.3       4 GLC5        0.0000 
     15 CA          8.0790   -2.1560   20.4200 C.3      12 GLL5        0.0000 
     16 CA          7.8290    2.1290   20.2280 C.3       8 GLP5        0.0000 
     17 CA         10.7970   -3.8405   20.5365 C.3       4 GLC5        0.0000 
     18 CA          9.5940   -2.2080   20.3450 C.3      12 GLL5        0.0000 
     19 CA         12.0000   -5.4730   20.7280 C.3       8 GLP5        0.0000 
     20 O          12.1105   -1.8140   19.9210 O.2       1 ALC1        0.0000 
     21 O          11.4230   -2.2640   18.7580 O.2       9 ALL1        0.0000 
     22 O          12.7980   -1.3640   21.0840 O.2       5 ALP1        0.0000 
     23 N          13.9785   -3.5465   19.8695 N.am      2 SEC2        0.0000 
     24 N          13.7220   -3.6040   18.3930 N.am     10 SEL2        0.0000 
     25 N          14.2350   -3.4890   21.3460 N.am      6 SEP2        0.0000 
     26 CA         14.4880   -0.6225   17.1485 C.3       4 GLC5        0.0000 
     27 CA         12.5360   -0.5240   17.4490 C.3      12 GLL5        0.0000 
     28 CA         16.4400   -0.7210   16.8480 C.3       8 GLP5        0.0000 
     29 CA          9.9915    1.9910   19.0080 C.3       4 GLC5        0.0000 
     30 CA         11.2180    0.6670   17.8310 C.3      12 GLL5        0.0000 
     31 CA          8.7650    3.3150   20.1850 C.3       8 GLP5        0.0000 
     32 CA         10.0585   -0.5375   14.6980 C.3       4 GLC5        0.0000 
     33 CA         10.3530    0.6350   16.2250 C.3      12 GLL5        0.0000 
     34 CA          9.7640   -1.7100   13.1710 C.3       8 GLP5        0.0000 
     35 CA          8.4550    1.8180   18.2420 C.3       4 GLC5        0.0000 
     36 CA          9.0810    1.5070   16.2560 C.3      12 GLL5        0.0000 
     37 CA          9.8660    2.9325   13.8955 C.3       4 GLC5        0.0000 
     38 CA          9.2970    2.8470   15.5670 C.3      12 GLL5        0.0000 
     39 CA         10.4350    3.0180   12.2240 C.3       8 GLP5        0.0000 
     40 CA          9.0570    4.1525   13.9815 C.3       4 GLC5        0.0000 
     41 CA          8.2700    3.9150   15.9400 C.3      12 GLL5        0.0000 
     42 CA          9.8440    4.3900   12.0230 C.3       8 GLP5        0.0000 
     43 CA          9.6845    5.3050   14.6285 C.3       4 GLC5        0.0000 
     44 CA          8.9230    5.0920   16.6740 C.3      12 GLL5        0.0000 
     45 CA         10.4460    5.5180   12.5830 C.3       8 GLP5        0.0000 
     46 CA         10.8020    5.6360   16.1140 C.3       4 GLC5        0.0000 
     47 CA         12.6810    6.1800   15.5540 C.3       8 GLP5        0.0000 
     48 CA          9.2665    6.6175   14.2125 C.3       4 GLC5        0.0000 
     49 CA          8.6140    6.4440   16.0460 C.3      12 GLL5        0.0000 
     50 CA          9.9190    6.7910   12.3790 C.3       8 GLP5        0.0000 
     51 CA          7.0915    7.1860   14.9525 C.3       4 GLC5        0.0000 
     52 CA          5.5690    7.9280   13.8590 C.3       8 GLP5        0.0000 
     53 CA         10.3760    6.9285   15.6295 C.3       4 GLC5        0.0000 
     54 CA         12.1380    7.4130   15.2130 C.3       8 GLP5        0.0000 
     55 O          13.0045   -2.7745   14.8315 O.2       1 ALC1        0.0000 
     56 O          13.5840   -3.1360   16.0600 O.2       9 ALL1        0.0000 
     57 O          12.4250   -2.4130   13.6030 O.2       5 ALP1        0.0000 
     58 CA         14.5825   -2.2710   14.5325 C.3       4 GLC5        0.0000 
     59 CA         14.6290   -4.0910   15.7330 C.3      12 GLL5        0.0000 
     60 CA         14.5360   -0.4510   13.3320 C.3       8 GLP5        0.0000 
     61 CA         14.6910   -4.2905   13.5070 C.3       4 GLC5        0.0000 
     62 CA         14.7530   -4.4900   11.2810 C.3       8 GLP5        0.0000 
     63 CA         16.0620   -2.8005   16.1155 C.3       4 GLC5        0.0000 
     64 CA         17.4950   -1.5100   16.4980 C.3       8 GLP5        0.0000 
     65 CA         16.1110   -4.8270   16.3190 C.3       4 GLC5        0.0000 
     66 CA         17.5930   -5.5630   16.9050 C.3       8 GLP5        0.0000 
     67 N          14.5745   -6.8135   12.9735 N.am      2 SEC2        0.0000 
     68 N          15.0310   -6.0850   14.4840 N.am     10 SEL2        0.0000 
     69 N          14.1180   -7.5420   11.4630 N.am      6 SEP2        0.0000 
     70 CA         12.9105    1.1607   18.9575 C.3       4 GLC5        0.0000 
     71 CA         13.9440    2.2500   20.2750 C.3       8 GLP5        0.0000 
     72 CA          8.3765    0.8965   14.5563 C.3       4 GLC5        0.0000 
     73 CA          7.5640   -0.3840   13.2010 C.3       8 GLP5        0.0000 
     74 CA          8.6807    3.9093   18.2460 C.3       4 GLC5        0.0000 
     75 CA         10.0957    6.4315   17.7015 C.3       4 GLC5        0.0000 
     76 CA         11.4230    7.0950   19.0430 C.3       8 GLP5        0.0000 
@<TRIPOS>BOND
@<TRIPOS>SUBSTRUCTURE
     1 ALC1        1 GROUP        1 X    ALC  0     ROOT ALC X 1
     2 SEC2        7 GROUP        1 X    SEC  0     **** SEC X 2
     3 LYC4        4 GROUP        1 X    LYC  0     **** LYC X 4
     4 GLC5       14 GROUP        1 X    GLC  0     **** GLC X 6
     5 ALP1        3 GROUP        1 Y    ALP  0     ROOT ALP Y 8
     6 SEP2        9 GROUP        1 Y    SEP  0     **** SEP Y 9
     7 LYP4        6 GROUP        1 Y    LYP  0     **** LYP Y 11
     8 GLP5       16 GROUP        1 Y    GLP  0     **** GLP Y 13
     9 ALL1        2 GROUP        1 Z    ALL  0     ROOT ALL Z 15
    10 SEL2        8 GROUP        1 Z    SEL  0     **** SEL Z 16
    11 LYL4        5 GROUP        1 Z    LYL  0     **** LYL Z 18
    12 GLL5       15 GROUP        1 Z    GLL  0     **** GLL Z 20
@<TRIPOS>SET

