#    Name: 1q4j_GTX_2_ligand
#    Modification time : Mon Mar 24 23:04:38 2014

@<TRIPOS>MOLECULE
1q4j_GTX_2_ligand
   54    53     1     0     0
SMALL
NO_CHARGES


@<TRIPOS>ATOM
      1 N1          6.1120   -2.5660   21.7880 N.4       1 GTX212      0.0000 
      2 CA1         7.5740   -2.4710   21.8180 C.3       1 GTX212      0.0000 
      3 C1          7.9850   -1.3760   22.7660 C.2       1 GTX212      0.0000 
      4 O11         7.1220   -0.4370   23.0220 O.co2     1 GTX212      0.0000 
      5 O12         9.1750   -1.3410   23.3090 O.co2     1 GTX212      0.0000 
      6 CB1         8.0790   -2.1560   20.4200 C.3       1 GTX212      0.0000 
      7 CG1         9.5940   -2.2080   20.3450 C.3       1 GTX212      0.0000 
      8 CD1        10.1120   -2.2070   18.9100 C.2       1 GTX212      0.0000 
      9 OE1         9.2940   -2.1160   17.7870 O.2       1 GTX212      0.0000 
     10 N2         11.4230   -2.2640   18.7580 N.am      1 GTX212      0.0000 
     11 CA2        12.0600   -1.9820   17.4880 C.3       1 GTX212      0.0000 
     12 C2         13.1800   -2.9480   17.2970 C.2       1 GTX212      0.0000 
     13 O2         13.7220   -3.6040   18.3930 O.2       1 GTX212      0.0000 
     14 CB2        12.5360   -0.5240   17.4490 C.3       1 GTX212      0.0000 
     15 SG2        11.2180    0.6670   17.8310 S.3       1 GTX212      0.0000 
     16 C1S        10.3530    0.6350   16.2250 C.3       1 GTX212      0.0000 
     17 C2S         9.0810    1.5070   16.2560 C.3       1 GTX212      0.0000 
     18 C3S         9.2970    2.8470   15.5670 C.3       1 GTX212      0.0000 
     19 C4S         8.2700    3.9150   15.9400 C.3       1 GTX212      0.0000 
     20 C5S         8.9230    5.0920   16.6740 C.3       1 GTX212      0.0000 
     21 C6S         8.6140    6.4440   16.0460 C.3       1 GTX212      0.0000 
     22 N3         13.5840   -3.1360   16.0600 N.am      1 GTX212      0.0000 
     23 CA3        14.6290   -4.0910   15.7330 C.3       1 GTX212      0.0000 
     24 C3         14.1320   -5.3290   15.0280 C.2       1 GTX212      0.0000 
     25 O31        15.0310   -6.0850   14.4840 O.co2     1 GTX212      0.0000 
     26 O32        12.8660   -5.6770   14.9520 O.co2     1 GTX212      0.0000 
     27 H           8.0030   -3.3982   22.1393 H         1 GTX212      0.0000 
     28 H           7.7370   -1.1575   20.1300 H         1 GTX212      0.0000 
     29 H           7.6573   -2.8780   19.7136 H         1 GTX212      0.0000 
     30 H           9.9511   -3.1139   20.8525 H         1 GTX212      0.0000 
     31 H          10.0130   -1.3431   20.8761 H         1 GTX212      0.0000 
     32 H          12.0661   -2.5145   19.5431 H         1 GTX212      0.0000 
     33 H          11.3397   -2.1188   16.6829 H         1 GTX212      0.0000 
     34 H          12.8569   -0.2065   16.4750 H         1 GTX212      0.0000 
     35 H          13.2739   -0.2966   18.1949 H         1 GTX212      0.0000 
     36 H          10.1523   -0.4017   16.0948 H         1 GTX212      0.0000 
     37 H          11.0982    0.9971   15.5575 H         1 GTX212      0.0000 
     38 H           8.7954    1.6735   17.2968 H         1 GTX212      0.0000 
     39 H           8.2733    0.9665   15.7581 H         1 GTX212      0.0000 
     40 H           9.2735    2.6974   14.4736 H         1 GTX212      0.0000 
     41 H          10.3054    3.2210   15.8155 H         1 GTX212      0.0000 
     42 H           7.5077    3.4725   16.5833 H         1 GTX212      0.0000 
     43 H           7.7881    4.2837   15.0330 H         1 GTX212      0.0000 
     44 H          10.0125    4.9401   16.6876 H         1 GTX212      0.0000 
     45 H           8.5796    5.0918   17.7191 H         1 GTX212      0.0000 
     46 H          13.1805   -2.6144   15.2496 H         1 GTX212      0.0000 
     47 H          15.1647   -4.4093   16.6555 H         1 GTX212      0.0000 
     48 H          15.4023   -3.6134   15.0902 H         1 GTX212      0.0000 
     49 H           5.7350   -2.7776   22.6897 H         1 GTX212      0.0000 
     50 H           5.6903   -1.7106   21.4873 H         1 GTX212      0.0000 
     51 H           5.7991   -3.2822   21.1641 H         1 GTX212      0.0000 
     52 H           9.0520    7.1931   16.5430 H         1 GTX212      0.0000 
     53 H           8.9318    6.4951   15.0992 H         1 GTX212      0.0000 
     54 H           7.6321    6.6333   16.0362 H         1 GTX212      0.0000 
@<TRIPOS>BOND
     1    2    1 1    
     2   49    1 1    
     3   50    1 1    
     4   51    1 1    
     5    3    2 1    
     6    6    2 1    
     7   27    2 1    
     8    4    3 ar   
     9    5    3 ar   
    10    7    6 1    
    11   28    6 1    
    12   29    6 1    
    13    8    7 1    
    14   30    7 1    
    15   31    7 1    
    16    9    8 2    
    17   10    8 am   
    18   11   10 1    
    19   32   10 1    
    20   12   11 1    
    21   14   11 1    
    22   33   11 1    
    23   13   12 2    
    24   22   12 am   
    25   15   14 1    
    26   34   14 1    
    27   35   14 1    
    28   16   15 1    
    29   17   16 1    
    30   36   16 1    
    31   37   16 1    
    32   18   17 1    
    33   38   17 1    
    34   39   17 1    
    35   19   18 1    
    36   40   18 1    
    37   41   18 1    
    38   20   19 1    
    39   42   19 1    
    40   43   19 1    
    41   21   20 1    
    42   44   20 1    
    43   45   20 1    
    44   52   21 1    
    45   53   21 1    
    46   54   21 1    
    47   23   22 1    
    48   46   22 1    
    49   24   23 1    
    50   47   23 1    
    51   48   23 1    
    52   25   24 ar   
    53   26   24 ar   
@<TRIPOS>SUBSTRUCTURE
     1 GTX212      1 GROUP   
@<TRIPOS>SET

