#    Name: 4geb_0LD_1_INTS_M
#    Modification time : Mon Mar 24 21:59:34 2014

@<TRIPOS>MOLECULE
4geb_0LD_1_INTS_M
   98     0    12     0     0
SMALL
NO_CHARGES


@<TRIPOS>ATOM
      1 CA          6.8255    5.3085  -51.4745 C.3       4 GLC5        0.0000 
      2 CA          6.0940    5.5220  -53.1440 C.3      12 GLL5        0.0000 
      3 CA          7.5570    5.0950  -49.8050 C.3       8 GLP5        0.0000 
      4 CA          1.8385    8.0010  -49.6340 C.3       4 GLC5        0.0000 
      5 CA          3.5260    8.7040  -50.5050 C.3      12 GLL5        0.0000 
      6 CA          0.1510    7.2980  -48.7630 C.3       8 GLP5        0.0000 
      7 CA          2.6935    8.3230  -52.4745 C.3       4 GLC5        0.0000 
      8 CA          1.8610    7.9420  -54.4440 C.3       8 GLP5        0.0000 
      9 CA          0.9750   11.4655  -51.2340 C.3       4 GLC5        0.0000 
     10 CA          2.8110   10.7210  -51.7730 C.3      12 GLL5        0.0000 
     11 CA         -0.8610   12.2100  -50.6950 C.3       8 GLP5        0.0000 
     12 CA          4.3225   12.2305  -51.9225 C.3       4 GLC5        0.0000 
     13 CA          5.8340   13.7400  -52.0720 C.3       8 GLP5        0.0000 
     14 CA          7.4980    1.9755  -51.0915 C.3       4 GLC5        0.0000 
     15 CA          6.4270    3.0470  -52.6440 C.3      12 GLL5        0.0000 
     16 CA          8.5690    0.9040  -49.5390 C.3       8 GLP5        0.0000 
     17 CA          8.9200    0.7185  -52.7655 C.3       4 GLC5        0.0000 
     18 CA          6.9200    0.6950  -53.1510 C.3      12 GLL5        0.0000 
     19 CA         10.9200    0.7420  -52.3800 C.3       8 GLP5        0.0000 
     20 CA          4.3375    7.1445  -54.8675 C.3       4 GLC5        0.0000 
     21 CA          6.0930    6.4570  -54.1120 C.3      12 GLL5        0.0000 
     22 CA          2.5820    7.8320  -55.6230 C.3       8 GLP5        0.0000 
     23 CA          3.0000   14.0930  -55.4540 C.3       4 GLC5        0.0000 
     24 CA          3.7500   12.4650  -54.8190 C.3      12 GLL5        0.0000 
     25 CA          2.2500   15.7210  -56.0890 C.3       8 GLP5        0.0000 
     26 CA          4.6900   12.0905  -56.5390 C.3       4 GLC5        0.0000 
     27 CA          5.6300   11.7160  -58.2590 C.3       8 GLP5        0.0000 
     28 CA          5.8325   12.8315  -54.8840 C.3       4 GLC5        0.0000 
     29 CA          7.9150   13.1980  -54.9490 C.3       8 GLP5        0.0000 
     30 CA          3.7405    8.1670  -53.5260 C.3       4 GLC5        0.0000 
     31 CA          5.6200    8.3920  -52.6080 C.3      12 GLL5        0.0000 
     32 CA          7.3150    9.0115  -51.9340 C.3       4 GLC5        0.0000 
     33 CA          9.0100    9.6310  -51.2600 C.3       8 GLP5        0.0000 
     34 N           1.8615   12.6730  -52.8735 N.am      2 SEC2        0.0000 
     35 N           2.8040   11.6240  -52.7570 N.am     10 SEL2        0.0000 
     36 N           0.9190   13.7220  -52.9900 N.am      6 SEP2        0.0000 
     37 N           3.7380    9.7475  -46.3695 N.am      2 SEC2        0.0000 
     38 N           4.8650    9.5090  -47.2530 N.am     10 SEL2        0.0000 
     39 N           2.6110    9.9860  -45.4860 N.am      6 SEP2        0.0000 
     40 N           3.8980   10.5175  -47.6620 N.am      2 SEC2        0.0000 
     41 N           2.9310   11.5260  -48.0710 N.am      6 SEP2        0.0000 
     42 N           5.9020   10.2990  -47.1355 N.am      2 SEC2        0.0000 
     43 N           6.9390   11.0890  -47.0180 N.am      6 SEP2        0.0000 
     44 N           6.2430    8.7455  -46.9070 N.am      2 SEC2        0.0000 
     45 N           7.6210    7.9820  -46.5610 N.am      6 SEP2        0.0000 
     46 N           5.5590    9.7600  -45.9355 N.am      2 SEC2        0.0000 
     47 N           6.2530   10.0110  -44.6180 N.am      6 SEP2        0.0000 
     48 NZ          5.4525    6.2440  -46.9910 N.4       3 LYC4        0.0000 
     49 NZ          5.5960    7.2190  -48.0320 N.4      11 LYL4        0.0000 
     50 NZ          4.0660    4.8240  -45.7530 N.4       7 LYP4        0.0000 
     51 N           6.6085    7.6005  -47.2965 N.am      2 SEC2        0.0000 
     52 N           5.5960    7.2190  -48.0320 N.am     10 SEL2        0.0000 
     53 N           5.4525    6.2440  -46.9910 N.am      2 SEC2        0.0000 
     54 N           5.3090    5.2690  -45.9500 N.am      6 SEP2        0.0000 
     55 N           6.4090    6.8195  -48.9600 N.am      2 SEC2        0.0000 
     56 N           7.2220    6.4200  -49.8880 N.am      6 SEP2        0.0000 
     57 N           6.0870    8.1595  -56.9185 N.am      2 SEC2        0.0000 
     58 N           6.3880    6.8280  -56.4500 N.am     10 SEL2        0.0000 
     59 N           5.7860    9.4910  -57.3870 N.am      6 SEP2        0.0000 
     60 N           6.6855    6.9500  -58.0925 N.am      2 SEC2        0.0000 
     61 N           6.9830    7.0720  -59.7350 N.am      6 SEP2        0.0000 
     62 NZ          3.1015    6.5925  -47.0655 N.4       3 LYC4        0.0000 
     63 NZ          3.1400    7.7540  -47.7810 N.4      11 LYL4        0.0000 
     64 N           1.9330    8.5250  -47.6015 N.am      2 SEC2        0.0000 
     65 N           3.1400    7.7540  -47.7810 N.am     10 SEL2        0.0000 
     66 N           0.7260    9.2960  -47.4220 N.am      6 SEP2        0.0000 
     67 N           3.1015    6.5925  -47.0655 N.am      2 SEC2        0.0000 
     68 N           3.0630    5.4310  -46.3500 N.am      6 SEP2        0.0000 
     69 N           5.6855    9.9380  -56.0405 N.am      2 SEC2        0.0000 
     70 N           5.5850   10.3850  -54.6940 N.am     10 SEL2        0.0000 
     71 O           6.8815   10.6040  -54.7720 O.2       1 ALC1        0.0000 
     72 O           5.5850   10.3850  -54.6940 O.2       9 ALL1        0.0000 
     73 O           8.1780   10.8230  -54.8500 O.2       5 ALP1        0.0000 
     74 N           7.4725    4.6575  -58.4600 N.am      2 SEC2        0.0000 
     75 N           6.8060    4.2120  -57.0840 N.am     10 SEL2        0.0000 
     76 N           8.1390    5.1030  -59.8360 N.am      6 SEP2        0.0000 
     77 N           3.7630   10.2115  -48.8260 N.am      2 SEC2        0.0000 
     78 N           4.5950    8.8970  -49.5810 N.am     10 SEL2        0.0000 
     79 CA          6.4690   -1.4905  -54.3037 C.3       4 GLC5        0.0000 
     80 CA          7.9010   -0.0440  -53.7750 C.3      12 GLL5        0.0000 
     81 CA          4.9260   -2.2860  -55.0310 C.3       8 GLP5        0.0000 
     82 CA          8.2905    0.1045  -51.5577 C.3       4 GLC5        0.0000 
     83 CA          5.2415   11.8655  -52.6150 C.3       4 GLC5        0.0000 
     84 CA          4.6400    9.5270  -52.6460 C.3      12 GLL5        0.0000 
     85 CA          5.8905   -1.9078  -53.5517 C.3       4 GLC5        0.0000 
     86 CA          6.3570   -1.1590  -51.7690 C.3      12 GLL5        0.0000 
     87 CA          9.3012   -0.2777  -52.6781 C.3       4 GLC5        0.0000 
     88 CA          7.3530   -1.9000  -52.3760 C.3      12 GLL5        0.0000 
     89 CA          7.7120   -0.3127  -50.8057 C.3       4 GLC5        0.0000 
     90 CA          7.2450   -2.3978  -50.0892 C.3       4 GLC5        0.0000 
     91 CA          7.6350   -3.2660  -48.1060 C.3       8 GLP5        0.0000 
     92 CA          5.7285   -0.9318  -53.8413 C.3       4 GLC5        0.0000 
     93 CA          6.1420    0.1500  -52.1520 C.3      12 GLL5        0.0000 
     94 CA          7.5500    0.6633  -51.0953 C.3       4 GLC5        0.0000 
     95 CA          2.6450   11.2082  -55.6103 C.3       4 GLC5        0.0000 
     96 CA          3.7310   11.4680  -53.7040 C.3      12 GLL5        0.0000 
     97 CA          1.5990    9.9030  -56.4340 C.3       8 GLP5        0.0000 
     98 CA          4.7873   12.8532  -53.1668 C.3       4 GLC5        0.0000 
@<TRIPOS>BOND
@<TRIPOS>SUBSTRUCTURE
     1 ALC1       71 GROUP        1 X    ALC  0     ROOT ALC X 1
     2 SEC2       34 GROUP        1 X    SEC  0     **** SEC X 2
     3 LYC4       48 GROUP        1 X    LYC  0     **** LYC X 4
     4 GLC5        1 GROUP        1 X    GLC  0     **** GLC X 6
     5 ALP1       73 GROUP        1 Y    ALP  0     ROOT ALP Y 8
     6 SEP2       36 GROUP        1 Y    SEP  0     **** SEP Y 9
     7 LYP4       50 GROUP        1 Y    LYP  0     **** LYP Y 11
     8 GLP5        3 GROUP        1 Y    GLP  0     **** GLP Y 13
     9 ALL1       72 GROUP        1 Z    ALL  0     ROOT ALL Z 15
    10 SEL2       35 GROUP        1 Z    SEL  0     **** SEL Z 16
    11 LYL4       49 GROUP        1 Z    LYL  0     **** LYL Z 18
    12 GLL5        2 GROUP        1 Z    GLL  0     **** GLL Z 20
@<TRIPOS>SET

