#    Name: 4geb_0LD_1_ligand
#    Modification time : Mon Mar 24 21:59:35 2014

@<TRIPOS>MOLECULE
4geb_0LD_1_ligand
   50    53     1     0     0
SMALL
NO_CHARGES


@<TRIPOS>ATOM
      1 C33         7.9010   -0.0440  -53.7750 C.ar      1 0LD501      0.0000 
      2 C32         8.1230   -1.3460  -53.3780 C.ar      1 0LD501      0.0000 
      3 C4          6.0940    5.5220  -53.1440 C.2       1 0LD501      0.0000 
      4 C13         3.5260    8.7040  -50.5050 C.3       1 0LD501      0.0000 
      5 C20         6.3630    4.1680  -53.4350 C.2       1 0LD501      0.0000 
      6 C21         2.8110   10.7210  -51.7730 C.ar      1 0LD501      0.0000 
      7 C18         4.6400    9.5270  -52.6460 C.ar      1 0LD501      0.0000 
      8 C16         6.4270    3.0470  -52.6440 C.2       1 0LD501      0.0000 
      9 C19         3.6800    9.6620  -51.6600 C.ar      1 0LD501      0.0000 
     10 C31         7.3530   -1.9000  -52.3760 C.ar      1 0LD501      0.0000 
     11 C30         6.3570   -1.1590  -51.7690 C.ar      1 0LD501      0.0000 
     12 C29         6.1420    0.1500  -52.1520 C.ar      1 0LD501      0.0000 
     13 C28         6.9200    0.6950  -53.1510 C.ar      1 0LD501      0.0000 
     14 C17         4.6580   10.4550  -53.6700 C.ar      1 0LD501      0.0000 
     15 C15         3.7310   11.4680  -53.7040 C.ar      1 0LD501      0.0000 
     16 C22         6.6220    3.7380  -54.7410 C.2       1 0LD501      0.0000 
     17 C3          6.0930    6.4570  -54.1120 C.2       1 0LD501      0.0000 
     18 C2          6.3760    6.0170  -55.5340 C.2       1 0LD501      0.0000 
     19 C1          3.7500   12.4650  -54.8190 C.3       1 0LD501      0.0000 
     20 C14         5.6200    8.3920  -52.6080 C.3       1 0LD501      0.0000 
     21 N12         2.8040   11.6240  -52.7570 N.ar      1 0LD501      0.0000 
     22 N10         6.8450    2.4240  -54.7980 N.2       1 0LD501      0.0000 
     23 N11         6.7280    2.0310  -53.5140 N.pl3     1 0LD501      0.0000 
     24 N9          6.6060    4.6630  -55.7520 N.am      1 0LD501      0.0000 
     25 N8          5.8470    7.8060  -53.9270 N.pl3     1 0LD501      0.0000 
     26 O6          4.8650    9.5090  -47.2530 O.co2     1 0LD501      0.0000 
     27 O27         5.5960    7.2190  -48.0320 O.co2     1 0LD501      0.0000 
     28 O5          6.3880    6.8280  -56.4500 O.2       1 0LD501      0.0000 
     29 O7          3.1400    7.7540  -47.7810 O.co2     1 0LD501      0.0000 
     30 O26         5.5850   10.3850  -54.6940 O.3       1 0LD501      0.0000 
     31 O25         6.8060    4.2120  -57.0840 O.2       1 0LD501      0.0000 
     32 O24         4.5950    8.8970  -49.5810 O.3       1 0LD501      0.0000 
     33 P23         4.5290    8.2870  -48.0630 P.3       1 0LD501      0.0000 
     34 H           8.4627    0.3706  -54.5296 H         1 0LD501      0.0000 
     35 H           8.8631   -1.9047  -53.8290 H         1 0LD501      0.0000 
     36 H           5.8959    5.7741  -52.1532 H         1 0LD501      0.0000 
     37 H           3.5189    7.6824  -50.9053 H         1 0LD501      0.0000 
     38 H           2.5506    8.8856  -50.0364 H         1 0LD501      0.0000 
     39 H           2.0742   10.8183  -50.9889 H         1 0LD501      0.0000 
     40 H           6.2953    2.9911  -51.7236 H         1 0LD501      0.0000 
     41 H           7.5215   -2.8756  -52.0768 H         1 0LD501      0.0000 
     42 H           5.7755   -1.5834  -51.0312 H         1 0LD501      0.0000 
     43 H           5.4114    0.7098  -51.6977 H         1 0LD501      0.0000 
     44 H           5.2437    7.6227  -51.9076 H         1 0LD501      0.0000 
     45 H           6.5731    8.7612  -52.1846 H         1 0LD501      0.0000 
     46 H           5.8160    8.4538  -54.7366 H         1 0LD501      0.0000 
     47 H           4.6166   12.9625  -54.8577 H         1 0LD501      0.0000 
     48 H           3.6226   12.0286  -55.7097 H         1 0LD501      0.0000 
     49 H           3.0249   13.1466  -54.7202 H         1 0LD501      0.0000 
     50 H           6.4491   10.6722  -54.2808 H         1 0LD501      0.0000 
@<TRIPOS>BOND
     1    2    1 ar   
     2   13    1 ar   
     3   34    1 1    
     4   10    2 ar   
     5   35    2 1    
     6    5    3 1    
     7   17    3 2    
     8   36    3 1    
     9    9    4 1    
    10   32    4 1    
    11   37    4 1    
    12   38    4 1    
    13    8    5 2    
    14   16    5 1    
    15    9    6 ar   
    16   21    6 ar   
    17   39    6 1    
    18    9    7 ar   
    19   14    7 ar   
    20   20    7 1    
    21   23    8 1    
    22   40    8 1    
    23   11   10 ar   
    24   41   10 1    
    25   12   11 ar   
    26   42   11 1    
    27   13   12 ar   
    28   43   12 1    
    29   23   13 1    
    30   15   14 ar   
    31   30   14 1    
    32   19   15 1    
    33   21   15 ar   
    34   22   16 2    
    35   24   16 1    
    36   18   17 1    
    37   25   17 1    
    38   24   18 am   
    39   28   18 2    
    40   47   19 1    
    41   48   19 1    
    42   49   19 1    
    43   25   20 1    
    44   44   20 1    
    45   45   20 1    
    46   23   22 1    
    47   31   24 1    
    48   46   25 1    
    49   33   26 ar   
    50   33   27 ar   
    51   33   29 ar   
    52   50   30 1    
    53   33   32 1    
@<TRIPOS>SUBSTRUCTURE
     1 0LD501      1 GROUP   
@<TRIPOS>SET

