#    Name: 2zv2_609_1_INTS_M
#    Modification time : Tue Mar 25 11:09:24 2014

@<TRIPOS>MOLECULE
2zv2_609_1_INTS_M
   59     0     9     0     0
SMALL
NO_CHARGES


@<TRIPOS>ATOM
      1 CA          2.4100   -7.6195  -28.0285 C.3       3 GLC5        0.0000 
      2 CA          1.1000   -8.2610  -26.3270 C.3       9 GLL5        0.0000 
      3 CA          3.7200   -6.9780  -29.7300 C.3       6 GLP5        0.0000 
      4 CA         -2.6380   -7.3730  -26.0210 C.3       3 GLC5        0.0000 
      5 CA         -1.1470   -8.0970  -27.1910 C.3       9 GLL5        0.0000 
      6 CA         -4.1290   -6.6490  -24.8510 C.3       6 GLP5        0.0000 
      7 N          -2.2990   -4.9155  -26.6760 N.am      1 SEC2        0.0000 
      8 N          -0.9380   -5.4210  -26.8560 N.am      7 SEL2        0.0000 
      9 N          -3.6600   -4.4100  -26.4960 N.am      4 SEP2        0.0000 
     10 CA          0.5160   -5.8140  -24.4990 C.3       3 GLC5        0.0000 
     11 CA          1.4630   -4.1890  -25.6090 C.3       9 GLL5        0.0000 
     12 CA         -0.4310   -7.4390  -23.3890 C.3       6 GLP5        0.0000 
     13 CA         -0.2965   -2.8175  -27.3370 C.3       3 GLC5        0.0000 
     14 CA          0.7390   -3.0040  -25.6640 C.3       9 GLL5        0.0000 
     15 CA         -1.3320   -2.6310  -29.0100 C.3       6 GLP5        0.0000 
     16 CA          2.6970   -3.6985  -26.9105 C.3       3 GLC5        0.0000 
     17 CA          2.7360   -4.2180  -25.0510 C.3       9 GLL5        0.0000 
     18 CA          2.6580   -3.1790  -28.7700 C.3       6 GLP5        0.0000 
     19 N           1.1610  -13.1055  -24.7825 N.am      1 SEC2        0.0000 
     20 N           1.0460  -12.5440  -26.0990 N.am      7 SEL2        0.0000 
     21 N           1.2760  -13.6670  -23.4660 N.am      4 SEP2        0.0000 
     22 NZ          3.7830  -13.8410  -27.3310 N.4       2 LYC4        0.0000 
     23 NZ          3.2220  -12.5280  -26.4370 N.4       8 LYL4        0.0000 
     24 NZ          4.3440  -15.1540  -28.2250 N.4       5 LYP4        0.0000 
     25 N           3.7830  -13.8410  -27.3310 N.am      1 SEC2        0.0000 
     26 N           3.2220  -12.5280  -26.4370 N.am      7 SEL2        0.0000 
     27 N           4.3440  -15.1540  -28.2250 N.am      4 SEP2        0.0000 
     28 CA          0.3252   -8.1958  -24.8960 C.3       3 GLC5        0.0000 
     29 CA          1.0630   -9.6440  -26.4790 C.3       9 GLL5        0.0000 
     30 CA         -2.0228   -9.8290  -25.7449 C.3       3 GLC5        0.0000 
     31 CA         -3.1560  -10.6780  -24.3110 C.3       6 GLP5        0.0000 
     32 CA         -1.7337   -9.5015  -28.7219 C.3       3 GLC5        0.0000 
     33 CA         -1.1830   -9.4780  -27.3430 C.3       9 GLL5        0.0000 
     34 CA         -2.5780  -10.0230  -30.2650 C.3       6 GLP5        0.0000 
     35 CA         -0.5030   -7.6162  -25.1630 C.3       3 GLC5        0.0000 
     36 CA         -0.4040   -7.2564  -28.6295 C.3       3 GLC5        0.0000 
     37 CA         -0.0030   -7.4900  -26.6830 C.3       9 GLL5        0.0000 
     38 CA         -0.2240   -6.3740  -30.2840 C.3       6 GLP5        0.0000 
     39 CA          0.8825   -2.3355  -23.5038 C.3       3 GLC5        0.0000 
     40 CA          0.7490   -2.2510  -21.5990 C.3       6 GLP5        0.0000 
     41 CA          1.9275   -2.9476  -27.0824 C.3       3 GLC5        0.0000 
     42 CA          1.2930   -1.8360  -25.1530 C.3       9 GLL5        0.0000 
     43 CA          3.8230   -2.1723  -26.2820 C.3       3 GLC5        0.0000 
     44 CA          2.5660   -1.8600  -24.5930 C.3       9 GLL5        0.0000 
     45 CA          4.7190   -1.8910  -27.9960 C.3       6 GLP5        0.0000 
     46 CA          3.0945   -2.8838  -22.6160 C.3       3 GLC5        0.0000 
     47 CA          3.2620   -3.3140  -20.6640 C.3       6 GLP5        0.0000 
     48 CA          1.7903   -2.7934  -23.2043 C.3       3 GLC5        0.0000 
     49 CA          3.2880   -3.0470  -24.5430 C.3       9 GLL5        0.0000 
     50 CA          3.9232   -8.4340  -27.1635 C.3       3 GLC5        0.0000 
     51 CA          2.2370   -7.6530  -25.8030 C.3       9 GLL5        0.0000 
     52 CA          5.0610   -8.8290  -28.7070 C.3       6 GLP5        0.0000 
     53 CA          1.1772   -7.7390  -24.5045 C.3       3 GLC5        0.0000 
     54 CA          3.3340   -8.4250  -25.4370 C.3       9 GLL5        0.0000 
     55 CA          3.8937   -9.4707  -27.2803 C.3       3 GLC5        0.0000 
     56 CA          3.2940   -9.8060  -25.5940 C.3       9 GLL5        0.0000 
     57 CA          0.6725  -10.6388  -24.5644 C.3       3 GLC5        0.0000 
     58 CA          2.1590  -10.4190  -26.1130 C.3       9 GLL5        0.0000 
     59 CA          0.0200  -11.0950  -22.7050 C.3       6 GLP5        0.0000 
@<TRIPOS>BOND
@<TRIPOS>SUBSTRUCTURE
     1 SEC2        7 GROUP        1 X    SEC  0     ROOT SEC X 2
     2 LYC4       22 GROUP        1 X    LYC  0     **** LYC X 4
     3 GLC5        1 GROUP        1 X    GLC  0     **** GLC X 6
     4 SEP2        9 GROUP        1 Y    SEP  0     ROOT SEP Y 9
     5 LYP4       24 GROUP        1 Y    LYP  0     **** LYP Y 11
     6 GLP5        3 GROUP        1 Y    GLP  0     **** GLP Y 13
     7 SEL2        8 GROUP        1 Z    SEL  0     ROOT SEL Z 16
     8 LYL4       23 GROUP        1 Z    LYL  0     **** LYL Z 18
     9 GLL5        2 GROUP        1 Z    GLL  0     **** GLL Z 20
@<TRIPOS>SET

