#    Name: 2zv2_609_1_ligand
#    Modification time : Tue Mar 25 11:09:24 2014

@<TRIPOS>MOLECULE
2zv2_609_1_ligand
   33    37     1     0     0
SMALL
NO_CHARGES


@<TRIPOS>ATOM
      1 CAW         1.1000   -8.2610  -26.3270 C.ar      1 609501      0.0000 
      2 CAR         1.0630   -9.6440  -26.4790 C.ar      1 609501      0.0000 
      3 CAI        -0.0810  -10.2480  -26.9900 C.ar      1 609501      0.0000 
      4 CAF        -1.1830   -9.4780  -27.3430 C.ar      1 609501      0.0000 
      5 CAJ        -1.1470   -8.0970  -27.1910 C.ar      1 609501      0.0000 
      6 CAS        -0.0030   -7.4900  -26.6830 C.ar      1 609501      0.0000 
      7 CAP         0.0240   -6.1090  -26.5180 C.2       1 609501      0.0000 
      8 OAB        -0.9380   -5.4210  -26.8560 O.2       1 609501      0.0000 
      9 NAX         1.1650   -5.5030  -25.9810 N.am      1 609501      0.0000 
     10 CAU         1.4630   -4.1890  -25.6090 C.ar      1 609501      0.0000 
     11 CAK         0.7390   -3.0040  -25.6640 C.ar      1 609501      0.0000 
     12 CAE         1.2930   -1.8360  -25.1530 C.ar      1 609501      0.0000 
     13 CAD         2.5660   -1.8600  -24.5930 C.ar      1 609501      0.0000 
     14 CAH         3.2880   -3.0470  -24.5430 C.ar      1 609501      0.0000 
     15 CAQ         2.7360   -4.2180  -25.0510 C.ar      1 609501      0.0000 
     16 NAM         3.1890   -5.4700  -25.0840 N.2       1 609501      0.0000 
     17 CAV         2.2760   -6.2750  -25.6250 C.2       1 609501      0.0000 
     18 CAT         2.2370   -7.6530  -25.8030 C.ar      1 609501      0.0000 
     19 CAL         3.3340   -8.4250  -25.4370 C.ar      1 609501      0.0000 
     20 CAG         3.2940   -9.8060  -25.5940 C.ar      1 609501      0.0000 
     21 CAO         2.1590  -10.4190  -26.1130 C.ar      1 609501      0.0000 
     22 CAN         2.1340  -11.9460  -26.2390 C.2       1 609501      0.0000 
     23 OAC         1.0460  -12.5440  -26.0990 O.co2     1 609501      0.0000 
     24 OAA         3.2220  -12.5280  -26.4370 O.co2     1 609501      0.0000 
     25 H          -0.1113  -11.2714  -27.1073 H         1 609501      0.0000 
     26 H          -2.0277   -9.9317  -27.7179 H         1 609501      0.0000 
     27 H          -1.9596   -7.5276  -27.4519 H         1 609501      0.0000 
     28 H          -0.1989   -2.9912  -26.0793 H         1 609501      0.0000 
     29 H           0.7634   -0.9562  -25.1887 H         1 609501      0.0000 
     30 H           2.9755   -0.9940  -24.2136 H         1 609501      0.0000 
     31 H           4.2298   -3.0593  -24.1306 H         1 609501      0.0000 
     32 H           4.1737   -7.9753  -25.0508 H         1 609501      0.0000 
     33 H           4.1079  -10.3769  -25.3249 H         1 609501      0.0000 
@<TRIPOS>BOND
     1    2    1 ar   
     2    6    1 ar   
     3   18    1 ar   
     4    3    2 ar   
     5   21    2 ar   
     6    4    3 ar   
     7   25    3 1    
     8    5    4 ar   
     9   26    4 1    
    10    6    5 ar   
    11   27    5 1    
    12    7    6 1    
    13    8    7 2    
    14    9    7 am   
    15   10    9 1    
    16   17    9 1    
    17   11   10 ar   
    18   15   10 ar   
    19   12   11 ar   
    20   28   11 1    
    21   13   12 ar   
    22   29   12 1    
    23   14   13 ar   
    24   30   13 1    
    25   15   14 ar   
    26   31   14 1    
    27   16   15 1    
    28   17   16 2    
    29   18   17 1    
    30   19   18 ar   
    31   20   19 ar   
    32   32   19 1    
    33   21   20 ar   
    34   33   20 1    
    35   22   21 1    
    36   23   22 ar   
    37   24   22 ar   
@<TRIPOS>SUBSTRUCTURE
     1 609501      1 GROUP   
@<TRIPOS>SET

