#    Name: 1p44_GEQ_3_INTS_M
#    Modification time : Mon Mar 24 21:06:29 2014

@<TRIPOS>MOLECULE
1p44_GEQ_3_INTS_M
   63     0     6     0     0
SMALL
NO_CHARGES


@<TRIPOS>ATOM
      1 CA         53.2405   11.5545   56.7030 C.3       2 GLC5        0.0000 
      2 CA         53.4110   11.1290   54.5650 C.3       6 GLL5        0.0000 
      3 CA         53.0700   11.9800   58.8410 C.3       4 GLP5        0.0000 
      4 N          50.9155    8.7855   54.2825 N.am      1 SEC2        0.0000 
      5 N          51.6130    8.8650   55.4870 N.am      5 SEL2        0.0000 
      6 N          50.2180    8.7060   53.0780 N.am      3 SEP2        0.0000 
      7 CA         51.0480    6.6005   58.3090 C.3       2 GLC5        0.0000 
      8 CA         52.7950    7.1690   57.2370 C.3       6 GLL5        0.0000 
      9 CA         49.3010    6.0320   59.3810 C.3       4 GLP5        0.0000 
     10 CA         52.9065    5.8385   55.8430 C.3       2 GLC5        0.0000 
     11 CA         53.0180    4.5080   54.4490 C.3       4 GLP5        0.0000 
     12 CA         51.8110    6.4465   59.4800 C.3       2 GLC5        0.0000 
     13 CA         53.3530    7.2910   58.6610 C.3       6 GLL5        0.0000 
     14 CA         50.2690    5.6020   60.2990 C.3       4 GLP5        0.0000 
     15 CA         57.4855    6.4655   57.5810 C.3       2 GLC5        0.0000 
     16 CA         55.5940    6.9840   57.4340 C.3       6 GLL5        0.0000 
     17 CA         59.3770    5.9470   57.7280 C.3       4 GLP5        0.0000 
     18 CA         56.8435    9.2975   56.0410 C.3       2 GLC5        0.0000 
     19 CA         55.0200    8.0530   56.4210 C.3       6 GLL5        0.0000 
     20 CA         58.6670   10.5420   55.6610 C.3       4 GLP5        0.0000 
     21 CA         51.4700    6.6310   63.9220 C.3       2 GLC5        0.0000 
     22 CA         53.6990    6.7870   63.8090 C.3       6 GLL5        0.0000 
     23 CA         49.2410    6.4750   64.0350 C.3       4 GLP5        0.0000 
     24 CA         54.3025    9.8950   64.4155 C.3       2 GLC5        0.0000 
     25 CA         54.0940    8.0760   63.3570 C.3       6 GLL5        0.0000 
     26 CA         54.5110   11.7140   65.4740 C.3       4 GLP5        0.0000 
     27 CA         57.4615   10.2280   57.4585 C.3       2 GLC5        0.0000 
     28 CA         56.2560    9.9140   59.2560 C.3       6 GLL5        0.0000 
     29 CA         54.8515   11.1975   63.6480 C.3       2 GLC5        0.0000 
     30 CA         55.1920   10.6810   61.8220 C.3       6 GLL5        0.0000 
     31 CA         51.8248   11.4345   54.4368 C.3       2 GLC5        0.0000 
     32 CA         50.2040   12.4510   54.3940 C.3       4 GLP5        0.0000 
     33 CA         52.2962    8.6190   52.9417 C.3       2 GLC5        0.0000 
     34 CA         53.4800    9.7070   54.3940 C.3       6 GLL5        0.0000 
     35 CA         50.7910    7.8110   52.0660 C.3       4 GLP5        0.0000 
     36 CA         54.5142   10.5852   50.3453 C.3       2 GLC5        0.0000 
     37 CA         54.7030    9.9810   52.2510 C.3       6 GLL5        0.0000 
     38 CA         54.3670   10.4870   48.3430 C.3       4 GLP5        0.0000 
     39 CA         52.1247   12.5497   53.9462 C.3       2 GLC5        0.0000 
     40 CA         53.9920   11.9540   53.5690 C.3       6 GLL5        0.0000 
     41 CA         52.9565   14.4808   52.2843 C.3       2 GLC5        0.0000 
     42 CA         54.0990   13.3430   53.4280 C.3       6 GLL5        0.0000 
     43 CA         51.4710   15.5100   51.7430 C.3       4 GLP5        0.0000 
     44 CA         51.7380    8.4540   58.5265 C.3       2 GLC5        0.0000 
     45 CA         50.4020    9.6780   59.1040 C.3       4 GLP5        0.0000 
     46 CA         56.3897    6.6030   62.6833 C.3       2 GLC5        0.0000 
     47 CA         54.9100    7.0320   61.2530 C.3       6 GLL5        0.0000 
     48 CA         58.0670    6.8190   63.8850 C.3       4 GLP5        0.0000 
     49 CA         56.2065    5.3320   60.6880 C.3       2 GLC5        0.0000 
     50 CA         54.5150    5.7420   61.7100 C.3       6 GLL5        0.0000 
     51 CA         57.5340    4.1900   60.2310 C.3       4 GLP5        0.0000 
     52 CA         55.9352    6.5137   63.6437 C.3       2 GLC5        0.0000 
     53 CA         53.9080    5.6300   62.9960 C.3       6 GLL5        0.0000 
     54 CA         53.4913    5.8363   65.2248 C.3       2 GLC5        0.0000 
     55 CA         53.1790    5.4640   67.0470 C.3       4 GLP5        0.0000 
     56 CA         56.2323    7.4742   63.2995 C.3       2 GLC5        0.0000 
     57 CA         54.5242   10.6990   59.2678 C.3       2 GLC5        0.0000 
     58 CA         55.7010    8.9220   60.1330 C.3       6 GLL5        0.0000 
     59 CA         54.5400   11.7250   59.5757 C.3       2 GLC5        0.0000 
     60 CA         56.2730   11.2790   59.6750 C.3       6 GLL5        0.0000 
     61 CA         57.8824   11.2669   60.2049 C.3       2 GLC5        0.0000 
     62 CA         59.7590   11.4050   60.2040 C.3       4 GLP5        0.0000 
     63 CA         54.1277   10.9887   60.2260 C.3       2 GLC5        0.0000 
@<TRIPOS>BOND
@<TRIPOS>SUBSTRUCTURE
     1 SEC2        4 GROUP        1 X    SEC  0     ROOT SEC X 2
     2 GLC5        1 GROUP        1 X    GLC  0     **** GLC X 6
     3 SEP2        6 GROUP        1 Y    SEP  0     ROOT SEP Y 9
     4 GLP5        3 GROUP        1 Y    GLP  0     **** GLP Y 13
     5 SEL2        5 GROUP        1 Z    SEL  0     ROOT SEL Z 16
     6 GLL5        2 GROUP        1 Z    GLL  0     **** GLL Z 20
@<TRIPOS>SET

