#    Name: 1p44_GEQ_3_ligand
#    Modification time : Mon Mar 24 21:06:29 2014

@<TRIPOS>MOLECULE
1p44_GEQ_3_ligand
   54    59     1     0     0
SMALL
NO_CHARGES


@<TRIPOS>ATOM
      1 C1A        53.4110   11.1290   54.5650 C.ar      1 GEQ550      0.0000 
      2 C2A        53.4800    9.7070   54.3940 C.ar      1 GEQ550      0.0000 
      3 C3A        54.1230    9.1470   53.2410 C.ar      1 GEQ550      0.0000 
      4 C4A        54.7030    9.9810   52.2510 C.ar      1 GEQ550      0.0000 
      5 C5A        54.6200   11.3860   52.4440 C.ar      1 GEQ550      0.0000 
      6 C6A        53.9920   11.9540   53.5690 C.ar      1 GEQ550      0.0000 
      7 C7A        54.0990   13.3430   53.4280 C.2       1 GEQ550      0.0000 
      8 C8A        54.7850   13.5600   52.2230 C.2       1 GEQ550      0.0000 
      9 N9A        55.0890   12.3700   51.6470 N.pl3     1 GEQ550      0.0000 
     10 C1B        52.8390    8.8400   55.4730 C.2       1 GEQ550      0.0000 
     11 O2B        51.6130    8.8650   55.4870 O.2       1 GEQ550      0.0000 
     12 N1C        53.5460    8.0790   56.3870 N.am      1 GEQ550      0.0000 
     13 C2C        52.7950    7.1690   57.2370 C.3       1 GEQ550      0.0000 
     14 C3C        53.3530    7.2910   58.6610 C.3       1 GEQ550      0.0000 
     15 N4C        54.7910    6.8190   58.7210 N.4       1 GEQ550      0.0000 
     16 C5C        55.5940    6.9840   57.4340 C.3       1 GEQ550      0.0000 
     17 C6C        55.0200    8.0530   56.4210 C.3       1 GEQ550      0.0000 
     18 C1D        55.5760    7.3800   59.9070 C.3       1 GEQ550      0.0000 
     19 C1E        54.9100    7.0320   61.2530 C.ar      1 GEQ550      0.0000 
     20 C2E        54.5150    5.7420   61.7100 C.ar      1 GEQ550      0.0000 
     21 C3E        53.9080    5.6300   62.9960 C.ar      1 GEQ550      0.0000 
     22 C4E        53.6990    6.7870   63.8090 C.ar      1 GEQ550      0.0000 
     23 C5E        54.0940    8.0760   63.3570 C.ar      1 GEQ550      0.0000 
     24 C6E        54.7010    8.1830   62.0710 C.ar      1 GEQ550      0.0000 
     25 C1F        55.7010    8.9220   60.1330 C.ar      1 GEQ550      0.0000 
     26 C2F        56.2560    9.9140   59.2560 C.ar      1 GEQ550      0.0000 
     27 C3F        56.2730   11.2790   59.6750 C.ar      1 GEQ550      0.0000 
     28 C4F        55.7470   11.6610   60.9460 C.ar      1 GEQ550      0.0000 
     29 C5F        55.1920   10.6810   61.8220 C.ar      1 GEQ550      0.0000 
     30 C6F        55.1790    9.3140   61.4000 C.ar      1 GEQ550      0.0000 
     31 H          52.9613   11.5230   55.3717 H         1 GEQ550      0.0000 
     32 H          54.1605    8.1294   53.1370 H         1 GEQ550      0.0000 
     33 H          55.1547    9.5946   51.4452 H         1 GEQ550      0.0000 
     34 H          53.7807   13.9919   54.0132 H         1 GEQ550      0.0000 
     35 H          54.9960   14.4342   51.8787 H         1 GEQ550      0.0000 
     36 H          55.5576   12.2516   50.8150 H         1 GEQ550      0.0000 
     37 H          52.9097    6.1402   56.9153 H         1 GEQ550      0.0000 
     38 H          51.7426    7.4276   57.2623 H         1 GEQ550      0.0000 
     39 H          52.7410    6.6890   59.3326 H         1 GEQ550      0.0000 
     40 H          53.2956    8.3334   58.9743 H         1 GEQ550      0.0000 
     41 H          54.7534    5.6919   58.9071 H         1 GEQ550      0.0000 
     42 H          55.6480    6.0196   56.9039 H         1 GEQ550      0.0000 
     43 H          56.6278    7.2779   57.6765 H         1 GEQ550      0.0000 
     44 H          55.4266    9.0287   56.7209 H         1 GEQ550      0.0000 
     45 H          55.4349    7.8122   55.4325 H         1 GEQ550      0.0000 
     46 H          56.5745    6.9708   59.9703 H         1 GEQ550      0.0000 
     47 H          54.6606    4.9264   61.1385 H         1 GEQ550      0.0000 
     48 H          53.6190    4.7132   63.3410 H         1 GEQ550      0.0000 
     49 H          53.2598    6.6830   64.7264 H         1 GEQ550      0.0000 
     50 H          53.9502    8.8906   63.9268 H         1 GEQ550      0.0000 
     51 H          56.6275    9.6472   58.3579 H         1 GEQ550      0.0000 
     52 H          56.6667   11.9914   59.0571 H         1 GEQ550      0.0000 
     53 H          55.7682   12.6397   61.2290 H         1 GEQ550      0.0000 
     54 H          54.8175   10.9437   62.7174 H         1 GEQ550      0.0000 
@<TRIPOS>BOND
     1    2    1 ar   
     2    6    1 ar   
     3   31    1 1    
     4    3    2 ar   
     5   10    2 1    
     6    4    3 ar   
     7   32    3 1    
     8    5    4 ar   
     9   33    4 1    
    10    6    5 ar   
    11    9    5 1    
    12    7    6 1    
    13    8    7 2    
    14   34    7 1    
    15    9    8 1    
    16   35    8 1    
    17   36    9 1    
    18   11   10 2    
    19   12   10 am   
    20   13   12 1    
    21   17   12 1    
    22   14   13 1    
    23   37   13 1    
    24   38   13 1    
    25   15   14 1    
    26   39   14 1    
    27   40   14 1    
    28   16   15 1    
    29   18   15 1    
    30   41   15 1    
    31   17   16 1    
    32   42   16 1    
    33   43   16 1    
    34   44   17 1    
    35   45   17 1    
    36   19   18 1    
    37   25   18 1    
    38   46   18 1    
    39   20   19 ar   
    40   24   19 ar   
    41   21   20 ar   
    42   47   20 1    
    43   22   21 ar   
    44   48   21 1    
    45   23   22 ar   
    46   49   22 1    
    47   24   23 ar   
    48   50   23 1    
    49   30   24 1    
    50   26   25 ar   
    51   30   25 ar   
    52   27   26 ar   
    53   51   26 1    
    54   28   27 ar   
    55   52   27 1    
    56   29   28 ar   
    57   53   28 1    
    58   30   29 ar   
    59   54   29 1    
@<TRIPOS>SUBSTRUCTURE
     1 GEQ550      1 GROUP   
@<TRIPOS>SET

