#    Name: 3zc3_FAD_3_INTS_M
#    Modification time : Tue Mar 25 02:41:26 2014

@<TRIPOS>MOLECULE
3zc3_FAD_3_INTS_M
   99     0    12     0     0
SMALL
NO_CHARGES


@<TRIPOS>ATOM
      1 NZ        -42.4190   17.2340    6.0805 N.4       3 LYC4        0.0000 
      2 NZ        -42.3560   18.9210    6.3080 N.4      11 LYL4        0.0000 
      3 NZ        -41.4020   15.4310    6.6290 N.4       7 LYP4        0.0000 
      4 N         -42.4190   17.2340    6.0805 N.am      2 SEC2        0.0000 
      5 N         -42.3560   18.9210    6.3080 N.am     10 SEL2        0.0000 
      6 N         -42.4820   15.5470    5.8530 N.am      6 SEP2        0.0000 
      7 N         -41.5385   17.7270    6.6430 N.am      2 SEC2        0.0000 
      8 N         -40.7210   16.5330    6.9780 N.am      6 SEP2        0.0000 
      9 N         -39.4075   19.5990    4.3045 N.am      2 SEC2        0.0000 
     10 N         -40.1070   19.8680    5.4890 N.am     10 SEL2        0.0000 
     11 N         -38.7080   19.3300    3.1200 N.am      6 SEP2        0.0000 
     12 CA        -43.0860   22.5070    4.8905 C.3       4 GLC5        0.0000 
     13 CA        -43.2770   21.6500    6.7720 C.3      12 GLL5        0.0000 
     14 CA        -42.8950   23.3640    3.0090 C.3       8 GLP5        0.0000 
     15 CA        -42.0325   26.0455    6.8895 C.3       4 GLC5        0.0000 
     16 CA        -43.2850   25.0100    7.9560 C.3      12 GLL5        0.0000 
     17 CA        -40.7800   27.0810    5.8230 C.3       8 GLP5        0.0000 
     18 CA        -46.3425   28.0160    6.8005 C.3       4 GLC5        0.0000 
     19 CA        -44.5390   27.7320    6.0240 C.3      12 GLL5        0.0000 
     20 CA        -48.1460   28.3000    7.5770 C.3       8 GLP5        0.0000 
     21 CA        -45.8285   29.4945    7.3835 C.3       4 GLC5        0.0000 
     22 CA        -44.6530   29.0680    5.8790 C.3      12 GLL5        0.0000 
     23 CA        -47.0040   29.9210    8.8880 C.3       8 GLP5        0.0000 
     24 CA        -43.3545   29.3430    4.2310 C.3       4 GLC5        0.0000 
     25 CA        -42.0560   29.6180    2.5830 C.3       8 GLP5        0.0000 
     26 O         -46.4720   30.4790    4.7405 O.2       1 ALC1        0.0000 
     27 O         -45.3360   29.5300    4.8200 O.2       9 ALL1        0.0000 
     28 O         -47.6080   31.4280    4.6610 O.2       5 ALP1        0.0000 
     29 N         -44.0090   31.5260    6.5045 N.am      2 SEC2        0.0000 
     30 N         -44.0850   29.9080    6.7660 N.am     10 SEL2        0.0000 
     31 N         -43.9330   33.1440    6.2430 N.am      6 SEP2        0.0000 
     32 CA        -45.1875   29.6620    8.3780 C.3       4 GLC5        0.0000 
     33 CA        -43.3710   29.4030    7.8680 C.3      12 GLL5        0.0000 
     34 CA        -41.9455   30.5430    8.2965 C.3       4 GLC5        0.0000 
     35 CA        -40.5200   31.6830    8.7250 C.3       8 GLP5        0.0000 
     36 CA        -45.6415   27.8595    7.9875 C.3       4 GLC5        0.0000 
     37 CA        -43.8700   27.2220    7.0730 C.3      12 GLL5        0.0000 
     38 CA        -47.4130   28.4970    8.9020 C.3       8 GLP5        0.0000 
     39 N         -46.8740   18.9940   -4.1655 N.am      2 SEC2        0.0000 
     40 N         -47.7260   18.5170   -3.0400 N.am     10 SEL2        0.0000 
     41 N         -46.0220   19.4710   -5.2910 N.am      6 SEP2        0.0000 
     42 O         -49.3155   16.9345   -4.5570 O.2       1 ALC1        0.0000 
     43 O         -49.5590   17.1980   -3.2130 O.2       9 ALL1        0.0000 
     44 O         -49.0720   16.6710   -5.9010 O.2       5 ALP1        0.0000 
     45 N         -51.7085   14.3905   -2.5325 N.am      2 SEC2        0.0000 
     46 N         -51.4000   15.9100   -3.2610 N.am     10 SEL2        0.0000 
     47 N         -52.0170   12.8710   -1.8040 N.am      6 SEP2        0.0000 
     48 N         -51.8870   14.3715   -1.1865 N.am      2 SEC2        0.0000 
     49 N         -51.7570   15.8720   -0.5690 N.am     10 SEL2        0.0000 
     50 CA        -55.9845   15.0265    2.7850 C.3       4 GLC5        0.0000 
     51 CA        -54.1770   14.4970    3.3880 C.3      12 GLL5        0.0000 
     52 CA        -57.7920   15.5560    2.1820 C.3       8 GLP5        0.0000 
     53 CA        -50.6205   19.0045    1.6530 C.3       4 GLC5        0.0000 
     54 CA        -48.9260   18.0610    1.7900 C.3      12 GLL5        0.0000 
     55 CA        -52.3150   19.9480    1.5160 C.3       8 GLP5        0.0000 
     56 CA        -46.3965   15.4850    2.9070 C.3       4 GLC5        0.0000 
     57 CA        -47.7540   17.1230    2.1860 C.3      12 GLL5        0.0000 
     58 CA        -45.0390   13.8470    3.6280 C.3       8 GLP5        0.0000 
     59 CA        -47.0245   16.3215    0.5920 C.3       4 GLC5        0.0000 
     60 CA        -46.2950   15.5200   -1.0020 C.3       8 GLP5        0.0000 
     61 O         -48.5905   15.1140    2.3625 O.2       1 ALC1        0.0000 
     62 O         -48.1510   16.1190    3.1750 O.2       9 ALL1        0.0000 
     63 O         -49.0300   14.1090    1.5500 O.2       5 ALP1        0.0000 
     64 CA        -45.4665   16.4050    3.6065 C.3       4 GLC5        0.0000 
     65 CA        -46.5320   17.8550    2.7700 C.3      12 GLL5        0.0000 
     66 CA        -44.4010   14.9550    4.4430 C.3       8 GLP5        0.0000 
     67 CA        -45.9640   16.3840    1.3185 C.3       4 GLC5        0.0000 
     68 CA        -45.3960   14.9130   -0.1330 C.3       8 GLP5        0.0000 
     69 CA        -46.1165   17.2050    0.4075 C.3       4 GLC5        0.0000 
     70 CA        -45.9380   18.8900    1.8170 C.3      12 GLL5        0.0000 
     71 O         -44.8625   16.8980    0.5615 O.2       1 ALC1        0.0000 
     72 O         -45.3880   18.1860    0.7390 O.2       9 ALL1        0.0000 
     73 O         -44.3370   15.6100    0.3840 O.2       5 ALP1        0.0000 
     74 CA        -43.8215   21.4835    2.7490 C.3       4 GLC5        0.0000 
     75 CA        -44.7480   19.6030    2.4890 C.3      12 GLL5        0.0000 
     76 NZ        -42.1075   16.6030    4.8665 N.4       3 LYC4        0.0000 
     77 NZ        -41.7330   17.6590    3.8800 N.4      11 LYL4        0.0000 
     78 N         -42.1075   16.6030    4.8665 N.am      2 SEC2        0.0000 
     79 N         -41.7330   17.6590    3.8800 N.am     10 SEL2        0.0000 
     80 N         -40.6220   17.1340    3.0720 N.am      2 SEC2        0.0000 
     81 N         -39.5110   16.6090    2.2640 N.am      6 SEP2        0.0000 
     82 N         -41.4275   18.1510    0.8300 N.am      2 SEC2        0.0000 
     83 N         -41.8490   19.0720    1.7870 N.am     10 SEL2        0.0000 
     84 N         -41.0060   17.2300   -0.1270 N.am      6 SEP2        0.0000 
     85 N         -41.8795   19.4945    0.5860 N.am      2 SEC2        0.0000 
     86 N         -41.9100   19.9170   -0.6150 N.am      6 SEP2        0.0000 
     87 CA        -51.1375   14.1773    0.2188 C.3       4 GLC5        0.0000 
     88 CA        -51.8720   15.9120    0.8400 C.3      12 GLL5        0.0000 
     89 CA        -49.8770   12.7830   -0.7130 C.3       8 GLP5        0.0000 
     90 CA        -52.0827   13.5777    3.2330 C.3       4 GLC5        0.0000 
     91 CA        -52.9240   15.2310    1.4610 C.3      12 GLL5        0.0000 
     92 CA        -50.5730   12.2920    3.6980 C.3       8 GLP5        0.0000 
     93 CA        -52.9421   17.6054    3.9641 C.3       4 GLC5        0.0000 
     94 CA        -52.3050   15.9790    5.0580 C.3      12 GLL5        0.0000 
     95 CA        -53.4170   19.4290    3.7810 C.3       8 GLP5        0.0000 
     96 CA        -51.1217   14.2934    3.6880 C.3       4 GLC5        0.0000 
     97 CA        -52.1670   15.9400    3.6380 C.3      12 GLL5        0.0000 
     98 CA        -52.2205   18.0300    3.0417 C.3       4 GLC5        0.0000 
     99 CA        -51.1050   16.6300    3.0080 C.3      12 GLL5        0.0000 
@<TRIPOS>BOND
@<TRIPOS>SUBSTRUCTURE
     1 ALC1       26 GROUP        1 X    ALC  0     ROOT ALC X 1
     2 SEC2        4 GROUP        1 X    SEC  0     **** SEC X 2
     3 LYC4        1 GROUP        1 X    LYC  0     **** LYC X 4
     4 GLC5       12 GROUP        1 X    GLC  0     **** GLC X 6
     5 ALP1       28 GROUP        1 Y    ALP  0     ROOT ALP Y 8
     6 SEP2        6 GROUP        1 Y    SEP  0     **** SEP Y 9
     7 LYP4        3 GROUP        1 Y    LYP  0     **** LYP Y 11
     8 GLP5       14 GROUP        1 Y    GLP  0     **** GLP Y 13
     9 ALL1       27 GROUP        1 Z    ALL  0     ROOT ALL Z 15
    10 SEL2        5 GROUP        1 Z    SEL  0     **** SEL Z 16
    11 LYL4        2 GROUP        1 Z    LYL  0     **** LYL Z 18
    12 GLL5       13 GROUP        1 Z    GLL  0     **** GLL Z 20
@<TRIPOS>SET

