#    Name: 4isg_1FY_1_INTS_M
#    Modification time : Tue Mar 25 04:28:48 2014

@<TRIPOS>MOLECULE
4isg_1FY_1_INTS_M
   76     0     9     0     0
SMALL
NO_CHARGES


@<TRIPOS>ATOM
      1 O          29.9000    2.2805   -5.5515 O.2       1 ALC1        0.0000 
      2 O          30.7100    1.2380   -5.4870 O.2       7 ALL1        0.0000 
      3 O          29.0900    3.3230   -5.6160 O.2       4 ALP1        0.0000 
      4 N          28.3475    0.9245   -4.1085 N.am      2 SEC2        0.0000 
      5 N          29.5110    0.1190   -3.7880 N.am      8 SEL2        0.0000 
      6 N          27.1840    1.7300   -4.4290 N.am      5 SEP2        0.0000 
      7 CA         28.0485   -0.5885   -4.1205 C.3       3 GLC5        0.0000 
      8 CA         29.6620   -0.8450   -2.8130 C.3       9 GLL5        0.0000 
      9 CA         26.4350   -0.3320   -5.4280 C.3       6 GLP5        0.0000 
     10 CA         29.0195   -0.7145   -0.8350 C.3       3 GLC5        0.0000 
     11 CA         28.3770   -0.5840    1.1430 C.3       6 GLP5        0.0000 
     12 CA         32.5945    0.2425   -1.9745 C.3       3 GLC5        0.0000 
     13 CA         31.9820   -0.6260   -3.9320 C.3       9 GLL5        0.0000 
     14 CA         33.2070    1.1110   -0.0170 C.3       6 GLP5        0.0000 
     15 CA         31.1805   -1.8545   -5.6160 C.3       3 GLC5        0.0000 
     16 CA         30.3790   -3.0830   -7.3000 C.3       6 GLP5        0.0000 
     17 CA         35.3095    0.6780   -7.3800 C.3       3 GLC5        0.0000 
     18 CA         34.1330    1.9130   -7.9910 C.3       9 GLL5        0.0000 
     19 CA         36.4860   -0.5570   -6.7690 C.3       6 GLP5        0.0000 
     20 CA         36.2940    1.1810   -8.2760 C.3       3 GLC5        0.0000 
     21 CA         34.9850    2.4600   -9.1200 C.3       9 GLL5        0.0000 
     22 CA         37.6030   -0.0980   -7.4320 C.3       6 GLP5        0.0000 
     23 CA         34.6005    3.0795  -10.8380 C.3       3 GLC5        0.0000 
     24 CA         34.2160    3.6990  -12.5560 C.3       6 GLP5        0.0000 
     25 CA         35.4980    0.4280   -9.9110 C.3       3 GLC5        0.0000 
     26 CA         36.0110   -1.6040  -10.7020 C.3       6 GLP5        0.0000 
     27 N          39.3835    3.3290   -9.4050 N.am      2 SEC2        0.0000 
     28 N          37.7060    3.0480   -9.5550 N.am      8 SEL2        0.0000 
     29 N          41.0610    3.6100   -9.2550 N.am      5 SEP2        0.0000 
     30 CA         39.2790    5.3520   -8.5070 C.3       3 GLC5        0.0000 
     31 CA         37.6510    4.6560   -7.5540 C.3       9 GLL5        0.0000 
     32 CA         40.9070    6.0480   -9.4600 C.3       6 GLP5        0.0000 
     33 CA         38.8275    3.4565   -6.8175 C.3       3 GLC5        0.0000 
     34 CA         40.0040    2.2570   -6.0810 C.3       6 GLP5        0.0000 
     35 N          35.7390    5.5495  -10.7610 N.am      2 SEC2        0.0000 
     36 N          37.0180    5.2470   -9.9260 N.am      8 SEL2        0.0000 
     37 N          34.4600    5.8520  -11.5960 N.am      5 SEP2        0.0000 
     38 CA         34.5705    5.1535   -6.0195 C.3       3 GLC5        0.0000 
     39 CA         34.6310    4.7860   -8.1500 C.3       9 GLL5        0.0000 
     40 CA         34.5100    5.5210   -3.8890 C.3       6 GLP5        0.0000 
     41 CA         34.2185    4.8965  -10.3005 C.3       3 GLC5        0.0000 
     42 CA         33.8060    5.0070  -12.4510 C.3       6 GLP5        0.0000 
     43 CA         29.2995    0.7445   -8.1205 C.3       3 GLC5        0.0000 
     44 CA         31.1030    1.7240   -8.5210 C.3       9 GLL5        0.0000 
     45 CA         27.4960   -0.2350   -7.7200 C.3       6 GLP5        0.0000 
     46 CA         31.8230   -0.2965   -8.3905 C.3       3 GLC5        0.0000 
     47 CA         32.5430   -2.3170   -8.2600 C.3       6 GLP5        0.0000 
     48 CA         28.7095    0.7705   -9.2080 C.3       3 GLC5        0.0000 
     49 CA         29.9230    1.7760  -10.6960 C.3       9 GLL5        0.0000 
     50 CA         29.6570   -0.1275  -11.2585 C.3       3 GLC5        0.0000 
     51 CA         29.3910   -2.0310  -11.8210 C.3       6 GLP5        0.0000 
     52 CA         31.0220    2.9235  -13.0695 C.3       3 GLC5        0.0000 
     53 CA         29.5580    2.5570  -11.9490 C.3       9 GLL5        0.0000 
     54 CA         32.4860    3.2900  -14.1900 C.3       6 GLP5        0.0000 
     55 CA         30.4675    4.2370  -12.8445 C.3       3 GLC5        0.0000 
     56 CA         28.8470    3.8630  -11.6230 C.3       9 GLL5        0.0000 
     57 CA         32.0880    4.6110  -14.0660 C.3       6 GLP5        0.0000 
     58 CA         27.1140    3.8525  -10.7405 C.3       3 GLC5        0.0000 
     59 CA         25.3810    3.8420   -9.8580 C.3       6 GLP5        0.0000 
     60 CA         31.1625    5.0765  -11.8860 C.3       3 GLC5        0.0000 
     61 CA         29.5850    4.6810  -10.5680 C.3       9 GLL5        0.0000 
     62 CA         32.7400    5.4720  -13.2040 C.3       6 GLP5        0.0000 
     63 CA         29.3760    4.9635   -7.6650 C.3       3 GLC5        0.0000 
     64 CA         29.9060    3.8390   -9.3360 C.3       9 GLL5        0.0000 
     65 CA         28.8460    6.0880   -5.9940 C.3       6 GLP5        0.0000 
     66 CA         31.0117   -0.0980   -1.2400 C.3       3 GLC5        0.0000 
     67 CA         31.7140    0.9120    0.3020 C.3       6 GLP5        0.0000 
     68 CA         29.9358   -2.9570   -2.2360 C.3       3 GLC5        0.0000 
     69 CA         30.9570   -1.3710   -2.7510 C.3       9 GLL5        0.0000 
     70 CA         29.5620   -4.8060   -1.6900 C.3       6 GLP5        0.0000 
     71 CA         32.7163   -2.4082   -2.8922 C.3       3 GLC5        0.0000 
     72 CA         33.9630   -3.8180   -2.4430 C.3       6 GLP5        0.0000 
     73 CA         27.6594    1.8999  -11.7914 C.3       3 GLC5        0.0000 
     74 CA         26.0250    0.7850  -12.1100 C.3       6 GLP5        0.0000 
     75 CA         27.8338    4.5270   -9.1970 C.3       3 GLC5        0.0000 
     76 CA         25.9220    4.7940   -8.4420 C.3       6 GLP5        0.0000 
@<TRIPOS>BOND
@<TRIPOS>SUBSTRUCTURE
     1 ALC1        1 GROUP        1 X    ALC  0     ROOT ALC X 1
     2 SEC2        4 GROUP        1 X    SEC  0     **** SEC X 2
     3 GLC5        7 GROUP        1 X    GLC  0     **** GLC X 6
     4 ALP1        3 GROUP        1 Y    ALP  0     ROOT ALP Y 8
     5 SEP2        6 GROUP        1 Y    SEP  0     **** SEP Y 9
     6 GLP5        9 GROUP        1 Y    GLP  0     **** GLP Y 13
     7 ALL1        2 GROUP        1 Z    ALL  0     ROOT ALL Z 15
     8 SEL2        5 GROUP        1 Z    SEL  0     **** SEL Z 16
     9 GLL5        8 GROUP        1 Z    GLL  0     **** GLL Z 20
@<TRIPOS>SET

