#    Name: 4isg_1FY_1_ligand
#    Modification time : Tue Mar 25 04:28:48 2014

@<TRIPOS>MOLECULE
4isg_1FY_1_ligand
   53    55     1     0     0
SMALL
NO_CHARGES


@<TRIPOS>ATOM
      1 O18        32.8220    0.7400   -5.9920 O.2       1 1FY501      0.0000 
      2 C17        31.8160    1.3860   -6.2090 C.2       1 1FY501      0.0000 
      3 N19        30.7100    1.2380   -5.4870 N.am      1 1FY501      0.0000 
      4 C20        30.6550    0.3490   -4.4720 C.2       1 1FY501      0.0000 
      5 N21        29.5110    0.1190   -3.7880 N.2       1 1FY501      0.0000 
      6 C22        29.6620   -0.8450   -2.8130 C.2       1 1FY501      0.0000 
      7 C23        30.9570   -1.3710   -2.7510 C.2       1 1FY501      0.0000 
      8 S24        31.9820   -0.6260   -3.9320 S.3       1 1FY501      0.0000 
      9 C9         31.7770    2.3930   -7.3210 C.3       1 1FY501      0.0000 
     10 N8         33.1260    2.9160   -7.6320 N.am      1 1FY501      0.0000 
     11 C7         34.1330    1.9130   -7.9910 C.3       1 1FY501      0.0000 
     12 C6         34.9850    2.4600   -9.1200 C.3       1 1FY501      0.0000 
     13 N5         35.5070    3.7730   -8.7340 N.pl3     1 1FY501      0.0000 
     14 S2         36.9730    4.1550   -8.9940 S.o2      1 1FY501      0.0000 
     15 O4         37.7060    3.0480   -9.5550 O.2       1 1FY501      0.0000 
     16 C1         37.6510    4.6560   -7.5540 C.3       1 1FY501      0.0000 
     17 O3         37.0180    5.2470   -9.9260 O.2       1 1FY501      0.0000 
     18 C27        34.6310    4.7860   -8.1500 C.3       1 1FY501      0.0000 
     19 C25        33.3920    4.2260   -7.5020 C.2       1 1FY501      0.0000 
     20 O26        32.7020    5.0020   -6.8660 O.2       1 1FY501      0.0000 
     21 C10        31.1030    1.7240   -8.5210 C.3       1 1FY501      0.0000 
     22 C11        30.7400    2.6170   -9.7140 C.3       1 1FY501      0.0000 
     23 C12        29.9230    1.7760  -10.6960 C.3       1 1FY501      0.0000 
     24 C13        29.5580    2.5570  -11.9490 C.3       1 1FY501      0.0000 
     25 C14        28.8470    3.8630  -11.6230 C.3       1 1FY501      0.0000 
     26 C15        29.5850    4.6810  -10.5680 C.3       1 1FY501      0.0000 
     27 C16        29.9060    3.8390   -9.3360 C.3       1 1FY501      0.0000 
     28 H          29.8589    1.8182   -5.7022 H         1 1FY501      0.0000 
     29 H          28.9389   -1.1399   -2.2166 H         1 1FY501      0.0000 
     30 H          31.3694   -2.0033   -2.2390 H         1 1FY501      0.0000 
     31 H          31.1256    3.2130   -7.0023 H         1 1FY501      0.0000 
     32 H          33.6589    0.9920   -8.3252 H         1 1FY501      0.0000 
     33 H          34.7774    1.6916   -7.1422 H         1 1FY501      0.0000 
     34 H          34.3696    2.5368  -10.0164 H         1 1FY501      0.0000 
     35 H          35.7994    1.7616   -9.3130 H         1 1FY501      0.0000 
     36 H          34.3186    5.5165   -8.9288 H         1 1FY501      0.0000 
     37 H          35.1858    5.3790   -7.3896 H         1 1FY501      0.0000 
     38 H          30.1744    1.2139   -8.1675 H         1 1FY501      0.0000 
     39 H          31.7638    0.9007   -8.8855 H         1 1FY501      0.0000 
     40 H          31.6353    2.9299  -10.2116 H         1 1FY501      0.0000 
     41 H          29.0077    1.4385  -10.2001 H         1 1FY501      0.0000 
     42 H          30.5037    0.8918  -10.9766 H         1 1FY501      0.0000 
     43 H          28.9077    1.9417  -12.5805 H         1 1FY501      0.0000 
     44 H          30.4697    2.7759  -12.5156 H         1 1FY501      0.0000 
     45 H          27.8354    3.6421  -11.2618 H         1 1FY501      0.0000 
     46 H          28.7530    4.4602  -12.5380 H         1 1FY501      0.0000 
     47 H          28.9651    5.5290  -10.2717 H         1 1FY501      0.0000 
     48 H          30.5145    5.0627  -10.9941 H         1 1FY501      0.0000 
     49 H          30.4606    4.4451   -8.6208 H         1 1FY501      0.0000 
     50 H          28.9765    3.5102   -8.8730 H         1 1FY501      0.0000 
     51 H          38.6100    4.9163   -7.6657 H         1 1FY501      0.0000 
     52 H          37.1743    5.4492   -7.1752 H         1 1FY501      0.0000 
     53 H          37.6214    3.9370   -6.8596 H         1 1FY501      0.0000 
@<TRIPOS>BOND
     1    2    1 2    
     2    3    2 am   
     3    9    2 1    
     4    4    3 1    
     5   28    3 1    
     6    5    4 2    
     7    8    4 1    
     8    6    5 1    
     9    7    6 2    
    10   29    6 1    
    11    8    7 1    
    12   30    7 1    
    13   10    9 1    
    14   21    9 1    
    15   31    9 1    
    16   11   10 1    
    17   19   10 am   
    18   12   11 1    
    19   32   11 1    
    20   33   11 1    
    21   13   12 1    
    22   34   12 1    
    23   35   12 1    
    24   14   13 1    
    25   18   13 1    
    26   15   14 2    
    27   16   14 1    
    28   17   14 2    
    29   51   16 1    
    30   52   16 1    
    31   53   16 1    
    32   19   18 1    
    33   36   18 1    
    34   37   18 1    
    35   20   19 2    
    36   22   21 1    
    37   38   21 1    
    38   39   21 1    
    39   23   22 1    
    40   27   22 1    
    41   40   22 1    
    42   24   23 1    
    43   41   23 1    
    44   42   23 1    
    45   25   24 1    
    46   43   24 1    
    47   44   24 1    
    48   26   25 1    
    49   45   25 1    
    50   46   25 1    
    51   27   26 1    
    52   47   26 1    
    53   48   26 1    
    54   49   27 1    
    55   50   27 1    
@<TRIPOS>SUBSTRUCTURE
     1 1FY501      1 GROUP   
@<TRIPOS>SET

