#    Name: 1za2_CP_2_INTS_M
#    Modification time : Tue Mar 25 11:37:49 2014

@<TRIPOS>MOLECULE
1za2_CP_2_INTS_M
    3     0     3     0     0
SMALL
NO_CHARGES


@<TRIPOS>ATOM
      1 N          35.9185   32.6650   21.0595 N.am      1 SEC2        0.0000 
      2 N          37.3470   32.1180   21.4240 N.am      3 SEL2        0.0000 
      3 N          34.4900   33.2120   20.6950 N.am      2 SEP2        0.0000 
@<TRIPOS>BOND
@<TRIPOS>SUBSTRUCTURE
     1 SEC2        1 GROUP        1 X    SEC  0     ROOT SEC X 2
     2 SEP2        3 GROUP        1 Y    SEP  0     ROOT SEP Y 9
     3 SEL2        2 GROUP        1 Z    SEL  0     ROOT SEL Z 16
@<TRIPOS>SET

