#    Name: 1za2_CP_2_ligand
#    Modification time : Tue Mar 25 11:37:49 2014

@<TRIPOS>MOLECULE
1za2_CP_2_ligand
   10     9     1     0     0
SMALL
NO_CHARGES


@<TRIPOS>ATOM
      1 N          37.1640   31.3920   19.2610 N.am      1 CP313       0.0000 
      2 C          37.8290   31.3500   20.4110 C.2       1 CP313       0.0000 
      3 O          38.8350   30.6520   20.5290 O.2       1 CP313       0.0000 
      4 O4P        37.3470   32.1180   21.4240 O.3       1 CP313       0.0000 
      5 P          38.2570   31.9530   22.7440 P.3       1 CP313       0.0000 
      6 O1P        39.7490   32.3830   22.3160 O.co2     1 CP313       0.0000 
      7 O2P        38.3250   30.3720   23.0450 O.co2     1 CP313       0.0000 
      8 O3P        37.7390   32.7410   23.8840 O.co2     1 CP313       0.0000 
      9 H          37.5488   30.8549   18.5103 H         1 CP313       0.0000 
     10 H          36.3389   31.9569   19.2502 H         1 CP313       0.0000 
@<TRIPOS>BOND
     1    2    1 am   
     2    9    1 1    
     3   10    1 1    
     4    3    2 2    
     5    4    2 1    
     6    5    4 1    
     7    6    5 ar   
     8    7    5 ar   
     9    8    5 ar   
@<TRIPOS>SUBSTRUCTURE
     1 CP313       1 GROUP   
@<TRIPOS>SET

