#    Name: 3P0E_4_CAVITY_N1_ALL.mol2
#    Modification time : Mon Mar 10 12:56:48 2014

@<TRIPOS>MOLECULE
3P0E_4_CAVITY_N1_ALL.mol2
   66     0     6     0     0
SMALL
NO_CHARGES


@<TRIPOS>ATOM
      1 CA         17.4635   15.5673   51.6627 C.3       5 GLY6        0.0000 
      2 O          17.6217   16.4447   50.4564 O.2       2 ALA2        0.0000 
      3 CA         18.4111   14.5714   51.0626 C.3       5 GLY6        0.0000 
      4 CA         18.5692   15.4487   49.8563 C.3       5 GLY6        0.0000 
      5 NZ         10.3933   10.4974   48.9135 N.2       3 LYS4        0.0000 
      6 NZ         11.0245    7.7467   50.7260 N.2       3 LYS4        0.0000 
      7 NZ         11.1827    8.6240   49.5197 N.2       3 LYS4        0.0000 
      8 CA         17.1009   12.9952   51.6097 C.3       5 GLY6        0.0000 
      9 CA         17.2591   13.8726   50.4034 C.3       5 GLY6        0.0000 
     10 CZ         17.4173   14.7499   49.1970 C.ar      4 PHE5        0.0000 
     11 CA         18.2066   12.8766   49.8033 C.3       5 GLY6        0.0000 
     12 CA         18.3648   13.7539   48.5969 C.3       5 GLY6        0.0000 
     13 N          12.7435   12.7123   52.6977 N.2       2 ALA2        0.0000 
     14 CZ         12.9017   13.5897   51.4914 C.ar      4 PHE5        0.0000 
     15 N          13.6911   11.7163   52.0976 N.2       2 ALA2        0.0000 
     16 OG         13.8493   12.5937   50.8913 O.2       1 SER1        0.0000 
     17 OG         14.7969   11.5977   50.2912 O.2       1 SER1        0.0000 
     18 CZ         14.9551   12.4750   49.0848 C.ar      4 PHE5        0.0000 
     19 CZ         15.1133   13.3524   47.8785 C.ar      4 PHE5        0.0000 
     20 OG         15.9027   11.4791   48.4847 O.2       1 SER1        0.0000 
     21 N          16.0608   12.3564   47.2784 N.2       2 ALA2        0.0000 
     22 O          16.6920    9.6057   49.0910 O.2       2 ALA2        0.0000 
     23 CZ         16.8502   10.4831   47.8846 C.ar      4 PHE5        0.0000 
     24 CZ         17.7978    9.4871   47.2845 C.ar      4 PHE5        0.0000 
     25 O          10.4396   11.3148   51.3792 O.2       2 ALA2        0.0000 
     26 CA         10.5978   12.1921   50.1728 C.3       5 GLY6        0.0000 
     27 NZ         11.2289    9.4415   51.9854 N.2       3 LYS4        0.0000 
     28 NZ         11.3871   10.3188   50.7791 N.2       3 LYS4        0.0000 
     29 DU         11.5453   11.1961   49.5727 H         6 CUB7        0.0000 
     30 CA         11.7035   12.0735   48.3664 C.3       5 GLY6        0.0000 
     31 O          12.1765    8.4455   51.3853 O.2       2 ALA2        0.0000 
     32 O          12.3347    9.3228   50.1790 O.2       2 ALA2        0.0000 
     33 CA         12.4929   10.2002   48.9726 C.3       5 GLY6        0.0000 
     34 CA         12.6511   11.0775   47.7663 C.3       5 GLY6        0.0000 
     35 O          13.1241    7.4495   50.7852 O.2       2 ALA2        0.0000 
     36 O          13.4405    9.2042   48.3725 O.2       2 ALA2        0.0000 
     37 CA         13.5987   10.0815   47.1662 C.3       5 GLY6        0.0000 
     38 O          15.3639   15.8646   51.6036 O.2       2 ALA2        0.0000 
     39 N          16.1533   13.9912   52.2098 N.2       2 ALA2        0.0000 
     40 CZ         16.3115   14.8686   51.0035 C.ar      4 PHE5        0.0000 
     41 CZ         16.4697   15.7459   49.7971 C.ar      4 PHE5        0.0000 
     42 CA         14.0537   14.2884   52.1506 C.3       5 GLY6        0.0000 
     43 CZ         14.2119   15.1658   50.9443 C.ar      4 PHE5        0.0000 
     44 CA         15.0013   13.2925   51.5505 C.3       5 GLY6        0.0000 
     45 CZ         15.1595   14.1698   50.3442 C.ar      4 PHE5        0.0000 
     46 OG         15.9489   12.2965   50.9504 O.2       1 SER1        0.0000 
     47 CZ         16.1071   13.1738   49.7441 C.ar      4 PHE5        0.0000 
     48 CZ         16.2653   14.0512   48.5378 C.ar      4 PHE5        0.0000 
     49 CZ         17.0546   12.1778   49.1440 C.ar      4 PHE5        0.0000 
     50 CZ         17.2128   13.0552   47.9377 C.ar      4 PHE5        0.0000 
     51 OG         17.8440   10.3045   49.7502 O.2       1 SER1        0.0000 
     52 CZ         18.0022   11.1818   48.5439 C.ar      4 PHE5        0.0000 
     53 CA         11.5916   12.0136   52.0384 C.3       5 GLY6        0.0000 
     54 CA         11.7498   12.8909   50.8321 C.3       5 GLY6        0.0000 
     55 N          12.3809   10.1402   52.6447 N.2       2 ALA2        0.0000 
     56 N          12.5391   11.0176   51.4383 N.2       2 ALA2        0.0000 
     57 CZ         12.6973   11.8949   50.2320 C.ar      4 PHE5        0.0000 
     58 CZ         12.8555   12.7723   49.0257 C.ar      4 PHE5        0.0000 
     59 OG         13.3285    9.1442   52.0446 O.2       1 SER1        0.0000 
     60 OG         13.4867   10.0216   50.8382 O.2       1 SER1        0.0000 
     61 OG         13.6449   10.8989   49.6319 O.2       1 SER1        0.0000 
     62 N          13.8031   11.7763   48.4256 N.2       2 ALA2        0.0000 
     63 O          14.5925    9.9029   49.0318 O.2       2 ALA2        0.0000 
     64 N          14.7507   10.7803   47.8255 N.2       2 ALA2        0.0000 
     65 O          15.6982    9.7843   47.2254 O.2       2 ALA2        0.0000 
     66 CA         15.8564   10.6616   46.0190 C.3       5 GLY6        0.0000 
@<TRIPOS>BOND
@<TRIPOS>SUBSTRUCTURE
     1 SER1       16 GROUP   
     2 ALA2        2 GROUP   
     3 LYS4        5 GROUP   
     4 PHE5       10 GROUP   
     5 GLY6        1 GROUP   
     6 CUB7       29 GROUP   
@<TRIPOS>SET

