#    Name: 3p0e_BAU_4_INTS_M
#    Modification time : Tue Mar 25 05:44:57 2014

@<TRIPOS>MOLECULE
3p0e_BAU_4_INTS_M
   56     0     9     0     0
SMALL
NO_CHARGES


@<TRIPOS>ATOM
      1 N          14.5575   12.3065   46.7125 N.am      2 SEC2        0.0000 
      2 N          14.7010   11.7780   48.1620 N.am      8 SEL2        0.0000 
      3 N          14.4140   12.8350   45.2630 N.am      5 SEP2        0.0000 
      4 CA         13.8895   11.6830   46.1735 C.3       3 GLC5        0.0000 
      5 CA         13.2920   11.4780   48.0790 C.3       9 GLL5        0.0000 
      6 CA         14.4870   11.8880   44.2680 C.3       6 GLP5        0.0000 
      7 CA         10.6325   13.0225   49.1425 C.3       3 GLC5        0.0000 
      8 CA         12.4990   12.0220   49.2850 C.3       9 GLL5        0.0000 
      9 CA          8.7660   14.0230   49.0000 C.3       6 GLP5        0.0000 
     10 CA         14.0125   12.5705   53.3940 C.3       3 GLC5        0.0000 
     11 CA         12.8530   12.0650   51.6270 C.3       9 GLL5        0.0000 
     12 CA         15.1720   13.0760   55.1610 C.3       6 GLP5        0.0000 
     13 CA         11.8220   12.1065   53.3500 C.3       3 GLC5        0.0000 
     14 CA         10.7910   12.1480   55.0730 C.3       6 GLP5        0.0000 
     15 N          10.8155   15.5540   51.7455 N.am      2 SEC2        0.0000 
     16 N          11.5860   14.3970   51.8460 N.am      8 SEL2        0.0000 
     17 N          10.0450   16.7110   51.6450 N.am      5 SEP2        0.0000 
     18 O          12.7245   16.7525   51.7430 O.2       1 ALC1        0.0000 
     19 O          13.4640   15.6850   51.8640 O.2       7 ALL1        0.0000 
     20 O          11.9850   17.8200   51.6220 O.2       4 ALP1        0.0000 
     21 N          14.5410   17.9360   50.8375 N.am      2 SEC2        0.0000 
     22 N          15.4360   16.8520   51.8320 N.am      8 SEL2        0.0000 
     23 N          13.6460   19.0200   49.8430 N.am      5 SEP2        0.0000 
     24 N          15.6645   17.7570   51.0060 N.am      2 SEC2        0.0000 
     25 N          15.8930   18.6620   50.1800 N.am      5 SEP2        0.0000 
     26 CA         15.9265   11.4755   52.3060 C.3       3 GLC5        0.0000 
     27 CA         14.9180   13.3350   51.6190 C.3       9 GLL5        0.0000 
     28 CA         16.9350    9.6160   52.9930 C.3       6 GLP5        0.0000 
     29 CA         15.8655   15.6410   53.5435 C.3       3 GLC5        0.0000 
     30 CA         15.5930   14.5610   51.6920 C.3       9 GLL5        0.0000 
     31 CA         16.1380   16.7210   55.3950 C.3       6 GLP5        0.0000 
     32 CA         19.2755   17.9950   50.2320 C.3       3 GLC5        0.0000 
     33 CA         18.3770   16.6450   48.7060 C.3       9 GLL5        0.0000 
     34 CA         20.1740   19.3450   51.7580 C.3       6 GLP5        0.0000 
     35 CA         12.1822   10.8575   47.0780 C.3       3 GLC5        0.0000 
     36 CA         11.4690    9.9650   45.4740 C.3       6 GLP5        0.0000 
     37 CA         13.1898   13.5715   48.5995 C.3       3 GLC5        0.0000 
     38 CA         13.4840   15.3930   48.5170 C.3       6 GLP5        0.0000 
     39 CA         14.3697   14.6705   50.0862 C.3       3 GLC5        0.0000 
     40 CA         15.6791   13.6450   53.3941 C.3       3 GLC5        0.0000 
     41 CA         19.4053   14.3185   49.5198 C.3       3 GLC5        0.0000 
     42 CA         17.5450   14.9190   50.2040 C.3       9 GLL5        0.0000 
     43 CA         21.2960   14.1760   49.3640 C.3       6 GLP5        0.0000 
     44 CA         18.6678   13.0996   50.8746 C.3       3 GLC5        0.0000 
     45 CA         17.4840   14.0030   49.1470 C.3       9 GLL5        0.0000 
     46 CA         19.9280   11.8480   51.7250 C.3       6 GLP5        0.0000 
     47 CA         18.4550   14.8745   45.7220 C.3       3 GLC5        0.0000 
     48 CA         17.8910   14.4190   47.8790 C.3       9 GLL5        0.0000 
     49 CA         18.8000   14.6740   43.6770 C.3       6 GLP5        0.0000 
     50 CA         19.7030   14.6255   48.5655 C.3       3 GLC5        0.0000 
     51 CA         18.3290   15.7310   47.6550 C.3       9 GLL5        0.0000 
     52 CA         19.9398   16.0102   49.5330 C.3       3 GLC5        0.0000 
     53 CA         21.7000   15.5820   49.7240 C.3       6 GLP5        0.0000 
     54 CA         18.3992   16.5304   51.8664 C.3       3 GLC5        0.0000 
     55 CA         17.9820   16.2320   49.9780 C.3       9 GLL5        0.0000 
     56 CA         19.1420   17.5950   53.2930 C.3       6 GLP5        0.0000 
@<TRIPOS>BOND
@<TRIPOS>SUBSTRUCTURE
     1 ALC1       18 GROUP        1 X    ALC  0     ROOT ALC X 1
     2 SEC2        1 GROUP        1 X    SEC  0     **** SEC X 2
     3 GLC5        4 GROUP        1 X    GLC  0     **** GLC X 6
     4 ALP1       20 GROUP        1 Y    ALP  0     ROOT ALP Y 8
     5 SEP2        3 GROUP        1 Y    SEP  0     **** SEP Y 9
     6 GLP5        6 GROUP        1 Y    GLP  0     **** GLP Y 13
     7 ALL1       19 GROUP        1 Z    ALL  0     ROOT ALL Z 15
     8 SEL2        2 GROUP        1 Z    SEL  0     **** SEL Z 16
     9 GLL5        5 GROUP        1 Z    GLL  0     **** GLL Z 20
@<TRIPOS>SET

