#    Name: 3p0e_BAU_4_ligand
#    Modification time : Tue Mar 25 05:44:57 2014

@<TRIPOS>MOLECULE
3p0e_BAU_4_ligand
   36    37     1     0     0
SMALL
NO_CHARGES


@<TRIPOS>ATOM
      1 OAC        14.7010   11.7780   48.1620 O.3       1 BAU400      0.0000 
      2 CAJ        13.2920   11.4780   48.0790 C.3       1 BAU400      0.0000 
      3 CAK        12.4990   12.0220   49.2850 C.3       1 BAU400      0.0000 
      4 OAO        12.9110   11.3030   50.4270 O.3       1 BAU400      0.0000 
      5 CAM        12.8530   12.0650   51.6270 C.3       1 BAU400      0.0000 
      6 NAT        13.5390   13.2820   51.6880 N.am      1 BAU400      0.0000 
      7 CAS        12.8070   14.4620   51.7970 C.2       1 BAU400      0.0000 
      8 OAB        11.5860   14.3970   51.8460 O.2       1 BAU400      0.0000 
      9 NAN        13.4640   15.6850   51.8640 N.am      1 BAU400      0.0000 
     10 CAR        14.8660   15.7470   51.7980 C.2       1 BAU400      0.0000 
     11 OAA        15.4360   16.8520   51.8320 O.2       1 BAU400      0.0000 
     12 CAI        14.9180   13.3350   51.6190 C.2       1 BAU400      0.0000 
     13 CAQ        15.5930   14.5610   51.6920 C.2       1 BAU400      0.0000 
     14 CAL        17.1170   14.4800   51.5990 C.3       1 BAU400      0.0000 
     15 CG         17.5450   14.9190   50.2040 C.ar      1 BAU400      0.0000 
     16 CD2        17.4840   14.0030   49.1470 C.ar      1 BAU400      0.0000 
     17 CE2        17.8910   14.4190   47.8790 C.ar      1 BAU400      0.0000 
     18 CZ         18.3290   15.7310   47.6550 C.ar      1 BAU400      0.0000 
     19 CE1        18.3770   16.6450   48.7060 C.ar      1 BAU400      0.0000 
     20 CD1        17.9820   16.2320   49.9780 C.ar      1 BAU400      0.0000 
     21 H          13.1155   10.3885   48.0330 H         1 BAU400      0.0000 
     22 H          12.8425   11.9102   47.1671 H         1 BAU400      0.0000 
     23 H          11.4416   11.8884   49.0643 H         1 BAU400      0.0000 
     24 H          12.7131   13.0866   49.3600 H         1 BAU400      0.0000 
     25 H          13.1865   11.3949   52.4998 H         1 BAU400      0.0000 
     26 H          11.7483   12.2358   51.8963 H         1 BAU400      0.0000 
     27 H          12.9246   16.5567   51.9629 H         1 BAU400      0.0000 
     28 H          15.4658   12.4653   51.5123 H         1 BAU400      0.0000 
     29 H          17.4328   13.4615   51.7707 H         1 BAU400      0.0000 
     30 H          17.5563   15.1364   52.3357 H         1 BAU400      0.0000 
     31 H          17.1502   13.0561   49.3022 H         1 BAU400      0.0000 
     32 H          17.8701   13.7512   47.0911 H         1 BAU400      0.0000 
     33 H          18.6155   16.0174   46.7102 H         1 BAU400      0.0000 
     34 H          18.6958   17.6006   48.5478 H         1 BAU400      0.0000 
     35 H          18.0105   16.8985   50.7649 H         1 BAU400      0.0000 
     36 H          15.1544   10.8869   48.1836 H         1 BAU400      0.0000 
@<TRIPOS>BOND
     1    2    1 1    
     2   36    1 1    
     3    3    2 1    
     4   21    2 1    
     5   22    2 1    
     6    4    3 1    
     7   23    3 1    
     8   24    3 1    
     9    5    4 1    
    10    6    5 1    
    11   25    5 1    
    12   26    5 1    
    13    7    6 1    
    14   12    6 1    
    15    8    7 2    
    16    9    7 1    
    17   10    9 1    
    18   27    9 1    
    19   11   10 2    
    20   13   10 1    
    21   13   12 2    
    22   28   12 1    
    23   14   13 1    
    24   15   14 1    
    25   29   14 1    
    26   30   14 1    
    27   16   15 ar   
    28   20   15 ar   
    29   17   16 ar   
    30   31   16 1    
    31   18   17 ar   
    32   32   17 1    
    33   19   18 ar   
    34   33   18 1    
    35   20   19 ar   
    36   34   19 1    
    37   35   20 1    
@<TRIPOS>SUBSTRUCTURE
     1 BAU400      1 GROUP   
@<TRIPOS>SET

