#    Name: 1as0_GSP_1_INTS_M
#    Modification time : Mon Mar 24 18:51:22 2014

@<TRIPOS>MOLECULE
1as0_GSP_1_INTS_M
   89     0    15     0     0
SMALL
NO_CHARGES


@<TRIPOS>ATOM
      1 N          37.8625  -31.7775   10.1545 N.am      2 SEC2        0.0000 
      2 N          36.9850  -30.9320   10.9350 N.am     12 SEL2        0.0000 
      3 N          38.7400  -32.6230    9.3740 N.am      7 SEP2        0.0000 
      4 CA         39.3720  -33.2300   12.2470 C.3       5 GLC5        0.0000 
      5 CA         38.1430  -32.2490   12.9880 C.3      15 GLL5        0.0000 
      6 CA         40.6010  -34.2110   11.5060 C.3      10 GLP5        0.0000 
      7 CA         38.3645  -31.0390   14.5065 C.3       5 GLC5        0.0000 
      8 CA         38.5860  -29.8290   16.0250 C.3      10 GLP5        0.0000 
      9 Zn         34.9700  -30.0485   12.8365 Zn        4 ZIC7        0.0000 
     10 Zn         35.6090  -30.7400   12.8970 Zn       14 ZIL7        0.0000 
     11 Zn         34.3310  -29.3570   12.7760 Zn        9 ZIP7        0.0000 
     12 N          35.9135  -30.5330   14.5085 N.am      2 SEC2        0.0000 
     13 N          35.6090  -30.7400   12.8970 N.am     12 SEL2        0.0000 
     14 N          36.2180  -30.3260   16.1200 N.am      7 SEP2        0.0000 
     15 N          35.0440  -33.3725   10.7005 N.am      2 SEC2        0.0000 
     16 N          35.9400  -33.0800   11.9230 N.am     12 SEL2        0.0000 
     17 N          34.1480  -33.6650    9.4780 N.am      7 SEP2        0.0000 
     18 N          35.4575  -34.1730   12.4350 N.am      2 SEC2        0.0000 
     19 N          34.9750  -35.2660   12.9470 N.am      7 SEP2        0.0000 
     20 NZ         34.8485  -32.4165    9.2390 N.4       3 LYC4        0.0000 
     21 NZ         35.5490  -31.1680    9.0000 N.4      13 LYL4        0.0000 
     22 NZ         34.1480  -33.6650    9.4780 N.4       8 LYP4        0.0000 
     23 N          35.7780  -30.5350    7.6360 N.am      2 SEC2        0.0000 
     24 N          35.5490  -31.1680    9.0000 N.am     12 SEL2        0.0000 
     25 N          36.0070  -29.9020    6.2720 N.am      7 SEP2        0.0000 
     26 N          34.5260  -30.2810    8.1840 N.am      2 SEC2        0.0000 
     27 N          33.5030  -29.3940    7.3680 N.am      7 SEP2        0.0000 
     28 N          34.8485  -32.4165    9.2390 N.am      2 SEC2        0.0000 
     29 Zn         34.6025  -29.2710   11.5875 Zn        4 ZIC7        0.0000 
     30 Zn         34.8740  -29.1850   10.3990 Zn       14 ZIL7        0.0000 
     31 N          33.7515  -28.4575    9.9950 N.am      2 SEC2        0.0000 
     32 N          34.8740  -29.1850   10.3990 N.am     12 SEL2        0.0000 
     33 N          32.6290  -27.7300    9.5910 N.am      7 SEP2        0.0000 
     34 N          34.5100  -26.0105    8.8065 N.am      2 SEC2        0.0000 
     35 N          35.7080  -26.8350    8.9870 N.am     12 SEL2        0.0000 
     36 N          33.3120  -25.1860    8.6260 N.am      7 SEP2        0.0000 
     37 N          35.7560  -25.6155    8.3620 N.am      2 SEC2        0.0000 
     38 N          35.8040  -24.3960    7.7370 N.am      7 SEP2        0.0000 
     39 N          36.4565  -29.4695    7.7180 N.am      2 SEC2        0.0000 
     40 N          36.9060  -29.0370    9.1640 N.am     12 SEL2        0.0000 
     41 CA         40.3840  -29.1675    9.3335 C.3       5 GLC5        0.0000 
     42 CA         39.5770  -27.4500    8.7620 C.3      15 GLL5        0.0000 
     43 CA         41.1910  -30.8850    9.9050 C.3      10 GLP5        0.0000 
     44 CA         42.1870  -26.2485    6.9080 C.3       5 GLC5        0.0000 
     45 CA         40.4620  -26.3620    8.2160 C.3      15 GLL5        0.0000 
     46 CA         43.9120  -26.1350    5.6000 C.3      10 GLP5        0.0000 
     47 CA         40.9835  -25.1270   10.4450 C.3       5 GLC5        0.0000 
     48 CA         39.9640  -24.9550    8.7320 C.3      15 GLL5        0.0000 
     49 CA         42.0030  -25.2990   12.1580 C.3      10 GLP5        0.0000 
     50 N          42.0675  -23.1070    8.1830 N.am      2 SEC2        0.0000 
     51 N          41.1430  -24.1490    8.9650 N.am     12 SEL2        0.0000 
     52 N          42.9920  -22.0650    7.4010 N.am      7 SEP2        0.0000 
     53 O          41.2510  -22.8150    9.2135 O.2       1 ALC1        0.0000 
     54 O          41.1430  -24.1490    8.9650 O.2      11 ALL1        0.0000 
     55 O          41.3590  -21.4810    9.4620 O.2       6 ALP1        0.0000 
     56 CA         39.5665  -22.1525    7.8540 C.3       5 GLC5        0.0000 
     57 CA         39.1950  -24.3310    7.4780 C.3      15 GLL5        0.0000 
     58 CA         39.9380  -19.9740    8.2300 C.3      10 GLP5        0.0000 
     59 O          38.3760  -22.0065    7.7500 O.2       1 ALC1        0.0000 
     60 O          39.3370  -22.8980    7.4060 O.2      11 ALL1        0.0000 
     61 O          37.4150  -21.1150    8.0940 O.2       6 ALP1        0.0000 
     62 CA         41.9375  -25.5540    5.9400 C.3       5 GLC5        0.0000 
     63 CA         39.9630  -24.9730    6.2800 C.3      15 GLL5        0.0000 
     64 CA         40.1410  -26.8740    5.1350 C.3       5 GLC5        0.0000 
     65 CA         40.3190  -28.7750    3.9900 C.3      10 GLP5        0.0000 
     66 N          36.7675  -27.0560    3.0340 N.am      2 SEC2        0.0000 
     67 N          37.4360  -25.9240    3.7120 N.am     12 SEL2        0.0000 
     68 N          36.0990  -28.1880    2.3560 N.am      7 SEP2        0.0000 
     69 CA         38.9760  -26.8190    2.3230 C.3       5 GLC5        0.0000 
     70 CA         38.4370  -25.2590    2.9900 C.3      15 GLL5        0.0000 
     71 CA         39.5150  -28.3790    1.6560 C.3      10 GLP5        0.0000 
     72 CA         36.3810  -25.0865    3.0800 C.3       5 GLC5        0.0000 
     73 CA         34.3250  -24.9140    3.1700 C.3      10 GLP5        0.0000 
     74 N          36.2510  -24.8895    0.8235 N.am      2 SEC2        0.0000 
     75 N          37.6070  -25.4110    0.8090 N.am     12 SEL2        0.0000 
     76 N          34.8950  -24.3680    0.8380 N.am      7 SEP2        0.0000 
     77 O          39.8205  -24.4565   -0.1675 O.2       1 ALC1        0.0000 
     78 O          39.6580  -24.3630    1.2670 O.2      11 ALL1        0.0000 
     79 O          39.9830  -24.5500   -1.6020 O.2       6 ALP1        0.0000 
     80 O          40.4280  -23.5655    0.0005 O.2       1 ALC1        0.0000 
     81 O          41.1980  -22.7680   -1.2660 O.2       6 ALP1        0.0000 
     82 O          41.4750  -23.0730    0.2055 O.2       1 ALC1        0.0000 
     83 O          41.7520  -23.3780    1.6770 O.2      11 ALL1        0.0000 
     84 CA         39.8960  -26.8265    3.9040 C.3       5 GLC5        0.0000 
     85 CA         39.4730  -24.8780    3.8180 C.3      15 GLL5        0.0000 
     86 CA         40.9573  -26.8660   10.3845 C.3       5 GLC5        0.0000 
     87 CA         41.8950  -26.8260   12.2800 C.3      10 GLP5        0.0000 
     88 CA         38.4295  -23.2662    3.8305 C.3       5 GLC5        0.0000 
     89 CA         37.9040  -21.4640    4.2570 C.3      10 GLP5        0.0000 
@<TRIPOS>BOND
@<TRIPOS>SUBSTRUCTURE
     1 ALC1       53 GROUP        1 X    ALC  0     ROOT ALC X 1
     2 SEC2        1 GROUP        1 X    SEC  0     **** SEC X 2
     3 LYC4       20 GROUP        1 X    LYC  0     **** LYC X 4
     4 ZIC7        9 GROUP        1 X    ZIC  0     **** ZIC X 5
     5 GLC5        4 GROUP        1 X    GLC  0     **** GLC X 6
     6 ALP1       55 GROUP        1 Y    ALP  0     ROOT ALP Y 8
     7 SEP2        3 GROUP        1 Y    SEP  0     **** SEP Y 9
     8 LYP4       22 GROUP        1 Y    LYP  0     **** LYP Y 11
     9 ZIP7       11 GROUP        1 Y    ZIP  0     **** ZIP Y 12
    10 GLP5        6 GROUP        1 Y    GLP  0     **** GLP Y 13
    11 ALL1       54 GROUP        1 Z    ALL  0     ROOT ALL Z 15
    12 SEL2        2 GROUP        1 Z    SEL  0     **** SEL Z 16
    13 LYL4       21 GROUP        1 Z    LYL  0     **** LYL Z 18
    14 ZIL7       10 GROUP        1 Z    ZIL  0     **** ZIL Z 19
    15 GLL5        5 GROUP        1 Z    GLL  0     **** GLL Z 20
@<TRIPOS>SET

