#    Name: 1as0_GSP_1_ligand
#    Modification time : Mon Mar 24 18:51:22 2014

@<TRIPOS>MOLECULE
1as0_GSP_1_ligand
   45    47     1     0     0
SMALL
NO_CHARGES


@<TRIPOS>ATOM
      1 PG         36.4890  -31.7390   12.2770 P.3       1 GSP355      0.0000 
      2 O3B        36.9850  -30.9320   10.9350 O.3       1 GSP355      0.0000 
      3 S1G        38.1430  -32.2490   12.9880 S.2       1 GSP355      0.0000 
      4 O2G        35.6090  -30.7400   12.8970 O.3       1 GSP355      0.0000 
      5 O3G        35.9400  -33.0800   11.9230 O.3       1 GSP355      0.0000 
      6 PB         35.9440  -30.0880    9.9160 P.3       1 GSP355      0.0000 
      7 O1B        35.5490  -31.1680    9.0000 O.co2     1 GSP355      0.0000 
      8 O2B        34.8740  -29.1850   10.3990 O.co2     1 GSP355      0.0000 
      9 PA         36.9520  -27.5080    9.4680 P.3       1 GSP355      0.0000 
     10 O1A        35.7080  -26.8350    8.9870 O.co2     1 GSP355      0.0000 
     11 O2A        37.4450  -27.3640   10.8670 O.co2     1 GSP355      0.0000 
     12 O3A        36.9060  -29.0370    9.1640 O.3       1 GSP355      0.0000 
     13 O5'        38.1960  -27.0230    8.5080 O.3       1 GSP355      0.0000 
     14 C5'        39.5770  -27.4500    8.7620 C.3       1 GSP355      0.0000 
     15 C4'        40.4620  -26.3620    8.2160 C.3       1 GSP355      0.0000 
     16 O4'        40.2700  -26.2930    6.7600 O.3       1 GSP355      0.0000 
     17 C3'        39.9640  -24.9550    8.7320 C.3       1 GSP355      0.0000 
     18 O3'        41.1430  -24.1490    8.9650 O.3       1 GSP355      0.0000 
     19 C2'        39.1950  -24.3310    7.4780 C.3       1 GSP355      0.0000 
     20 O2'        39.3370  -22.8980    7.4060 O.3       1 GSP355      0.0000 
     21 C1'        39.9630  -24.9730    6.2800 C.3       1 GSP355      0.0000 
     22 N9         39.0990  -25.2290    5.0920 N.pl3     1 GSP355      0.0000 
     23 C8         37.8850  -25.8620    4.9320 C.2       1 GSP355      0.0000 
     24 N7         37.4360  -25.9240    3.7120 N.2       1 GSP355      0.0000 
     25 C5         38.4370  -25.2590    2.9900 C.2       1 GSP355      0.0000 
     26 C6         38.4850  -25.0280    1.5810 C.2       1 GSP355      0.0000 
     27 O6         37.6070  -25.4110    0.8090 O.2       1 GSP355      0.0000 
     28 N1         39.6580  -24.3630    1.2670 N.am      1 GSP355      0.0000 
     29 C2         40.6780  -23.9980    2.1410 C.2       1 GSP355      0.0000 
     30 N2         41.7520  -23.3780    1.6770 N.pl3     1 GSP355      0.0000 
     31 N3         40.6340  -24.2490    3.4670 N.2       1 GSP355      0.0000 
     32 C4         39.4730  -24.8780    3.8180 C.2       1 GSP355      0.0000 
     33 H          39.7925  -28.3753    8.2496 H         1 GSP355      0.0000 
     34 H          39.7564  -27.5573    9.8210 H         1 GSP355      0.0000 
     35 H          41.4529  -26.4828    8.4745 H         1 GSP355      0.0000 
     36 H          39.3316  -25.0654    9.5053 H         1 GSP355      0.0000 
     37 H          38.2259  -24.6931    7.4786 H         1 GSP355      0.0000 
     38 H          40.8070  -24.4357    6.0609 H         1 GSP355      0.0000 
     39 H          37.4006  -26.2440    5.7411 H         1 GSP355      0.0000 
     40 H          39.8000  -24.0967    0.2298 H         1 GSP355      0.0000 
     41 H          42.4669  -23.1758    2.3463 H         1 GSP355      0.0000 
     42 H          41.7509  -23.1681    0.6993 H         1 GSP355      0.0000 
     43 H          36.1945  -33.2193   10.9660 H         1 GSP355      0.0000 
     44 H          40.8897  -23.2283    8.6680 H         1 GSP355      0.0000 
     45 H          38.4725  -22.5346    7.7533 H         1 GSP355      0.0000 
@<TRIPOS>BOND
     1    2    1 1    
     2    3    1 2    
     3    4    1 1    
     4    5    1 1    
     5    6    2 1    
     6   43    5 1    
     7    7    6 ar   
     8    8    6 ar   
     9   12    6 1    
    10   10    9 ar   
    11   11    9 ar   
    12   12    9 1    
    13   13    9 1    
    14   14   13 1    
    15   15   14 1    
    16   33   14 1    
    17   34   14 1    
    18   16   15 1    
    19   17   15 1    
    20   35   15 1    
    21   21   16 1    
    22   18   17 1    
    23   19   17 1    
    24   36   17 1    
    25   44   18 1    
    26   20   19 1    
    27   21   19 1    
    28   37   19 1    
    29   45   20 1    
    30   22   21 1    
    31   38   21 1    
    32   23   22 1    
    33   32   22 1    
    34   24   23 2    
    35   39   23 1    
    36   25   24 1    
    37   26   25 1    
    38   32   25 2    
    39   27   26 2    
    40   28   26 am   
    41   29   28 1    
    42   40   28 1    
    43   30   29 1    
    44   31   29 2    
    45   41   30 1    
    46   42   30 1    
    47   32   31 1    
@<TRIPOS>SUBSTRUCTURE
     1 GSP355      1 GROUP   
@<TRIPOS>SET

