#    Name: 3ac9_8GD_2_INTS_M
#    Modification time : Tue Mar 25 11:41:43 2014

@<TRIPOS>MOLECULE
3ac9_8GD_2_INTS_M
   46     0    15     0     0
SMALL
NO_CHARGES


@<TRIPOS>ATOM
      1 O         -16.8795   23.1860   77.6150 O.2       1 ALC1        0.0000 
      2 O         -18.1920   22.6240   78.1460 O.2      11 ALL1        0.0000 
      3 O         -15.5670   23.7480   77.0840 O.2       6 ALP1        0.0000 
      4 O         -16.3380   22.3535   77.0165 O.2       1 ALC1        0.0000 
      5 O         -17.1090   20.9590   76.9490 O.2      11 ALL1        0.0000 
      6 N         -18.8685   19.3920   76.6550 N.am      2 SEC2        0.0000 
      7 N         -19.3740   20.7330   77.3150 N.am     12 SEL2        0.0000 
      8 N         -18.3630   18.0510   75.9950 N.am      7 SEP2        0.0000 
      9 N         -18.0120   24.9780   79.0730 N.am      2 SEC2        0.0000 
     10 N         -19.1160   24.3420   79.3280 N.am     12 SEL2        0.0000 
     11 N         -16.9080   25.6140   78.8180 N.am      7 SEP2        0.0000 
     12 CA        -21.5860   19.6260   79.4235 C.3       5 GLC5        0.0000 
     13 CA        -22.1310   19.6170   77.2600 C.3      15 GLL5        0.0000 
     14 CA        -21.0410   19.6350   81.5870 C.3      10 GLP5        0.0000 
     15 NZ        -23.1005   19.5330   69.6065 N.4       3 LYC4        0.0000 
     16 NZ        -23.4520   18.3260   70.4630 N.4      13 LYL4        0.0000 
     17 NZ        -22.2790   21.8880   69.2140 N.4       8 LYP4        0.0000 
     18 N         -23.1005   19.5330   69.6065 N.am      2 SEC2        0.0000 
     19 N         -23.4520   18.3260   70.4630 N.am     12 SEL2        0.0000 
     20 N         -22.7490   20.7400   68.7500 N.am      7 SEP2        0.0000 
     21 Zn        -27.6870   18.1590   71.7380 Zn        4 ZIC7        0.0000 
     22 Zn        -26.6380   18.0430   72.0580 Zn       14 ZIL7        0.0000 
     23 Zn        -28.7360   18.2750   71.4180 Zn        9 ZIP7        0.0000 
     24 Zn        -26.3945   18.4775   70.8835 Zn        4 ZIC7        0.0000 
     25 Zn        -26.1510   18.9120   69.7090 Zn        9 ZIP7        0.0000 
     26 N         -27.6885   17.0710   72.9835 N.am      2 SEC2        0.0000 
     27 N         -26.6380   18.0430   72.0580 N.am     12 SEL2        0.0000 
     28 N         -28.7390   16.0990   73.9090 N.am      7 SEP2        0.0000 
     29 NZ        -23.2910   21.2920   71.1565 N.4       3 LYC4        0.0000 
     30 NZ        -24.1450   20.3900   71.8220 N.4      13 LYL4        0.0000 
     31 N         -23.2910   21.2920   71.1565 N.am      2 SEC2        0.0000 
     32 N         -24.1450   20.3900   71.8220 N.am     12 SEL2        0.0000 
     33 N         -22.4370   22.1940   70.4910 N.am      7 SEP2        0.0000 
     34 N         -23.4470   20.5650   70.2860 N.am      2 SEC2        0.0000 
     35 N         -25.7070   14.9650   73.6165 N.am      2 SEC2        0.0000 
     36 N         -25.9730   16.4260   73.8040 N.am     12 SEL2        0.0000 
     37 N         -25.4410   13.5040   73.4290 N.am      7 SEP2        0.0000 
     38 N         -27.3560   16.2625   73.8565 N.am      2 SEC2        0.0000 
     39 CA        -19.1895   21.2353   79.6138 C.3       5 GLC5        0.0000 
     40 CA        -20.4360   21.3470   77.8980 C.3      15 GLL5        0.0000 
     41 CA        -17.9250   20.5290   80.9860 C.3      10 GLP5        0.0000 
     42 CA        -22.4405   21.4405   76.0817 C.3       5 GLC5        0.0000 
     43 CA        -22.0370   23.2620   75.1640 C.3      10 GLP5        0.0000 
     44 CA        -21.3795   21.1797   74.6030 C.3       5 GLC5        0.0000 
     45 CA        -22.0580   18.8950   75.0080 C.3      15 GLL5        0.0000 
     46 CA        -20.7350   23.0180   74.8170 C.3      10 GLP5        0.0000 
@<TRIPOS>BOND
@<TRIPOS>SUBSTRUCTURE
     1 ALC1        1 GROUP        1 X    ALC  0     ROOT ALC X 1
     2 SEC2        6 GROUP        1 X    SEC  0     **** SEC X 2
     3 LYC4       15 GROUP        1 X    LYC  0     **** LYC X 4
     4 ZIC7       21 GROUP        1 X    ZIC  0     **** ZIC X 5
     5 GLC5       12 GROUP        1 X    GLC  0     **** GLC X 6
     6 ALP1        3 GROUP        1 Y    ALP  0     ROOT ALP Y 8
     7 SEP2        8 GROUP        1 Y    SEP  0     **** SEP Y 9
     8 LYP4       17 GROUP        1 Y    LYP  0     **** LYP Y 11
     9 ZIP7       23 GROUP        1 Y    ZIP  0     **** ZIP Y 12
    10 GLP5       14 GROUP        1 Y    GLP  0     **** GLP Y 13
    11 ALL1        2 GROUP        1 Z    ALL  0     ROOT ALL Z 15
    12 SEL2        7 GROUP        1 Z    SEL  0     **** SEL Z 16
    13 LYL4       16 GROUP        1 Z    LYL  0     **** LYL Z 18
    14 ZIL7       22 GROUP        1 Z    ZIL  0     **** ZIL Z 19
    15 GLL5       13 GROUP        1 Z    GLL  0     **** GLL Z 20
@<TRIPOS>SET

