#    Name: 3ac9_8GD_2_ligand
#    Modification time : Tue Mar 25 11:41:43 2014

@<TRIPOS>MOLECULE
3ac9_8GD_2_ligand
   40    42     1     0     0
SMALL
NO_CHARGES


@<TRIPOS>ATOM
      1 N1        -18.1920   22.6240   78.1460 N.am      1 8GD1        0.0000 
      2 C2        -18.2560   21.4270   77.4690 C.2       1 8GD1        0.0000 
      3 N2        -17.1090   20.9590   76.9490 N.pl3     1 8GD1        0.0000 
      4 N3        -19.3740   20.7330   77.3150 N.2       1 8GD1        0.0000 
      5 C4        -20.4360   21.3470   77.8980 C.2       1 8GD1        0.0000 
      6 C5        -20.4720   22.5360   78.5850 C.2       1 8GD1        0.0000 
      7 C6        -19.2760   23.2650   78.7450 C.2       1 8GD1        0.0000 
      8 O6        -19.1160   24.3420   79.3280 O.2       1 8GD1        0.0000 
      9 N7        -21.7580   22.8110   79.0180 N.am      1 8GD1        0.0000 
     10 C8        -22.4820   21.8050   78.5980 C.2       1 8GD1        0.0000 
     11 O8        -23.6920   21.7420   78.8220 O.2       1 8GD1        0.0000 
     12 N9        -21.7280   20.8790   77.9070 N.am      1 8GD1        0.0000 
     13 PA        -23.5460   19.0180   71.7740 P.3       1 8GD1        0.0000 
     14 PB        -25.8340   17.9180   73.2820 P.3       1 8GD1        0.0000 
     15 C1'       -22.1310   19.6170   77.2600 C.3       1 8GD1        0.0000 
     16 O1A       -23.4520   18.3260   70.4630 O.co2     1 8GD1        0.0000 
     17 O1B       -26.6380   18.0430   72.0580 O.co2     1 8GD1        0.0000 
     18 C2'       -23.5570   19.6210   76.7390 C.3       1 8GD1        0.0000 
     19 O2A       -24.1450   20.3900   71.8220 O.co2     1 8GD1        0.0000 
     20 O2B       -26.0900   18.7970   74.4000 O.co2     1 8GD1        0.0000 
     21 C3'       -23.4590   18.6470   75.5710 C.3       1 8GD1        0.0000 
     22 O3'       -23.5160   17.3120   76.0640 O.3       1 8GD1        0.0000 
     23 O3A       -24.3190   18.0090   72.8070 O.3       1 8GD1        0.0000 
     24 O3B       -25.9730   16.4260   73.8040 O.co2     1 8GD1        0.0000 
     25 C4'       -22.0580   18.8950   75.0080 C.3       1 8GD1        0.0000 
     26 O4'       -21.2930   19.4390   76.1170 O.3       1 8GD1        0.0000 
     27 C5'       -21.9900   19.7880   73.7700 C.3       1 8GD1        0.0000 
     28 O5'       -22.1670   18.9810   72.5780 O.3       1 8GD1        0.0000 
     29 H         -17.2433   23.1038   78.2222 H         1 8GD1        0.0000 
     30 H         -17.0439   19.9661   76.8493 H         1 8GD1        0.0000 
     31 H         -16.4228   21.6453   76.7081 H         1 8GD1        0.0000 
     32 H         -22.0119   23.5783   79.5112 H         1 8GD1        0.0000 
     33 H         -22.0110   18.7920   77.9337 H         1 8GD1        0.0000 
     34 H         -23.8108   20.5803   76.3851 H         1 8GD1        0.0000 
     35 H         -24.2111   19.2382   77.4707 H         1 8GD1        0.0000 
     36 H         -24.1673   18.8809   74.8539 H         1 8GD1        0.0000 
     37 H         -21.6386   17.9093   74.7547 H         1 8GD1        0.0000 
     38 H         -21.0204   20.2918   73.7670 H         1 8GD1        0.0000 
     39 H         -22.7718   20.5466   73.8546 H         1 8GD1        0.0000 
     40 H         -24.2073   16.8580   75.5019 H         1 8GD1        0.0000 
@<TRIPOS>BOND
     1    2    1 1    
     2    7    1 am   
     3   29    1 1    
     4    3    2 1    
     5    4    2 2    
     6   30    3 1    
     7   31    3 1    
     8    5    4 1    
     9    6    5 2    
    10   12    5 1    
    11    7    6 1    
    12    9    6 1    
    13    8    7 2    
    14   10    9 am   
    15   32    9 1    
    16   11   10 2    
    17   12   10 am   
    18   15   12 1    
    19   16   13 ar   
    20   19   13 ar   
    21   23   13 1    
    22   28   13 1    
    23   17   14 ar   
    24   20   14 ar   
    25   23   14 1    
    26   24   14 ar   
    27   18   15 1    
    28   26   15 1    
    29   33   15 1    
    30   21   18 1    
    31   34   18 1    
    32   35   18 1    
    33   22   21 1    
    34   25   21 1    
    35   36   21 1    
    36   40   22 1    
    37   26   25 1    
    38   27   25 1    
    39   37   25 1    
    40   28   27 1    
    41   38   27 1    
    42   39   27 1    
@<TRIPOS>SUBSTRUCTURE
     1 8GD1        1 GROUP   
@<TRIPOS>SET

