#    Name: 3fd6_ADP_1_INTS_M
#    Modification time : Tue Mar 25 03:51:10 2014

@<TRIPOS>MOLECULE
3fd6_ADP_1_INTS_M
   79     0    15     0     0
SMALL
NO_CHARGES


@<TRIPOS>ATOM
      1 Zn         61.4595   36.3860   81.3155 Zn        4 ZIC7        0.0000 
      2 Zn         62.5930   35.9570   81.8080 Zn       14 ZIL7        0.0000 
      3 Zn         60.3260   36.8150   80.8230 Zn        9 ZIP7        0.0000 
      4 Zn         61.7800   34.9430   81.4280 Zn        4 ZIC7        0.0000 
      5 Zn         60.9670   33.9290   81.0480 Zn        9 ZIP7        0.0000 
      6 Zn         60.4400   36.2505   82.0290 Zn        4 ZIC7        0.0000 
      7 Zn         60.5540   35.6860   83.2350 Zn       14 ZIL7        0.0000 
      8 Zn         61.7870   38.1640   83.8035 Zn        4 ZIC7        0.0000 
      9 Zn         62.4600   37.1160   84.0590 Zn       14 ZIL7        0.0000 
     10 Zn         61.1140   39.2120   83.5480 Zn        9 ZIP7        0.0000 
     11 NZ         59.8355   32.5380   83.5350 N.4       3 LYC4        0.0000 
     12 NZ         61.4630   32.6520   82.6830 N.4      13 LYL4        0.0000 
     13 NZ         58.2080   32.4240   84.3870 N.4       8 LYP4        0.0000 
     14 Zn         61.2150   33.2905   81.8655 Zn        4 ZIC7        0.0000 
     15 Zn         61.4630   32.6520   82.6830 Zn       14 ZIL7        0.0000 
     16 NZ         59.5790   32.8475   84.7580 N.4       3 LYC4        0.0000 
     17 NZ         60.9500   33.2710   85.1290 N.4      13 LYL4        0.0000 
     18 N          59.5790   32.8475   84.7580 N.am      2 SEC2        0.0000 
     19 N          60.9500   33.2710   85.1290 N.am     12 SEL2        0.0000 
     20 N          58.2080   32.4240   84.3870 N.am      7 SEP2        0.0000 
     21 CA         67.4120   32.1320   85.8050 C.3       5 GLC5        0.0000 
     22 CA         65.3640   32.7810   85.4760 C.3      15 GLL5        0.0000 
     23 CA         69.4600   31.4830   86.1340 C.3      10 GLP5        0.0000 
     24 CA         66.7520   33.6400   86.8665 C.3       5 GLC5        0.0000 
     25 CA         68.1400   34.4990   88.2570 C.3      10 GLP5        0.0000 
     26 N          67.8215   34.3715   85.9095 N.am      2 SEC2        0.0000 
     27 N          66.7450   34.5370   84.7730 N.am     12 SEL2        0.0000 
     28 N          68.8980   34.2060   87.0460 N.am      7 SEP2        0.0000 
     29 O          66.4410   35.7645   84.8735 O.2       1 ALC1        0.0000 
     30 O          66.7450   34.5370   84.7730 O.2      11 ALL1        0.0000 
     31 O          66.1370   36.9920   84.9740 O.2       6 ALP1        0.0000 
     32 CA         68.0040   32.9220   82.0440 C.3       5 GLC5        0.0000 
     33 CA         66.0950   32.9480   83.1700 C.3      15 GLL5        0.0000 
     34 CA         69.9130   32.8960   80.9180 C.3      10 GLP5        0.0000 
     35 CA         66.5580   32.0190   81.1825 C.3       5 GLC5        0.0000 
     36 CA         67.0210   31.0900   79.1950 C.3      10 GLP5        0.0000 
     37 N          67.4690   32.7920   81.2350 N.am      2 SEC2        0.0000 
     38 N          67.0950   33.6590   82.4100 N.am     12 SEL2        0.0000 
     39 N          67.8430   31.9250   80.0600 N.am      7 SEP2        0.0000 
     40 O          66.3325   34.3225   81.0175 O.2       1 ALC1        0.0000 
     41 O          67.0950   33.6590   82.4100 O.2      11 ALL1        0.0000 
     42 O          65.5700   34.9860   79.6250 O.2       6 ALP1        0.0000 
     43 CA         66.9140   29.9265   84.6550 C.3       5 GLC5        0.0000 
     44 CA         66.6590   31.7060   83.8370 C.3      15 GLL5        0.0000 
     45 CA         67.1690   28.1470   85.4730 C.3      10 GLP5        0.0000 
     46 CA         68.0595   31.5945   84.9855 C.3       5 GLC5        0.0000 
     47 N          64.6515   27.5115   81.9590 N.am      2 SEC2        0.0000 
     48 N          65.3840   28.6710   82.2320 N.am     12 SEL2        0.0000 
     49 N          63.9190   26.3520   81.6860 N.am      7 SEP2        0.0000 
     50 CA         65.4185   27.6670   83.4310 C.3       5 GLC5        0.0000 
     51 CA         66.6980   28.5520   81.9470 C.3      15 GLL5        0.0000 
     52 CA         64.1390   26.7820   84.9150 C.3      10 GLP5        0.0000 
     53 CA         65.0590   29.1825   80.6080 C.3       5 GLC5        0.0000 
     54 CA         63.4200   29.8130   79.2690 C.3      10 GLP5        0.0000 
     55 CA         67.7640   26.7820   82.8870 C.3       5 GLC5        0.0000 
     56 CA         67.5460   27.5890   81.2300 C.3      15 GLL5        0.0000 
     57 CA         67.9820   25.9750   84.5440 C.3      10 GLP5        0.0000 
     58 CA         68.5185   27.2720   79.6245 C.3       5 GLC5        0.0000 
     59 CA         69.4910   26.9550   78.0190 C.3      10 GLP5        0.0000 
     60 O          65.4650   26.4145   81.1735 O.2       1 ALC1        0.0000 
     61 O          67.0110   26.4770   80.6610 O.2      11 ALL1        0.0000 
     62 O          63.9190   26.3520   81.6860 O.2       6 ALP1        0.0000 
     63 CA         68.7010   27.4645   83.1285 C.3       5 GLC5        0.0000 
     64 CA         69.4200   28.9540   81.7130 C.3      15 GLL5        0.0000 
     65 CA         70.8235   27.9335   82.4700 C.3       5 GLC5        0.0000 
     66 CA         72.2270   26.9130   83.2270 C.3      10 GLP5        0.0000 
     67 CA         70.6210   29.4320   83.2095 C.3       5 GLC5        0.0000 
     68 CA         71.8220   29.9100   84.7060 C.3      10 GLP5        0.0000 
     69 CA         69.4555   27.9545   79.8660 C.3       5 GLC5        0.0000 
     70 CA         71.0115   28.8585   80.8295 C.3       5 GLC5        0.0000 
     71 CA         72.6030   28.7630   79.9460 C.3      10 GLP5        0.0000 
     72 CA         69.6665   30.9250   81.3155 C.3       5 GLC5        0.0000 
     73 CA         68.2205   30.0220   80.4540 C.3       5 GLC5        0.0000 
     74 CA         68.6410   31.3105   81.7200 C.3       5 GLC5        0.0000 
     75 CA         67.3690   29.7250   82.5220 C.3      15 GLL5        0.0000 
     76 CA         63.9650   30.7487   85.7915 C.3       5 GLC5        0.0000 
     77 CA         63.3130   28.8430   86.0110 C.3      10 GLP5        0.0000 
     78 CA         67.1012   28.6427   83.8538 C.3       5 GLC5        0.0000 
     79 CA         67.1333   29.9939   80.6251 C.3       5 GLC5        0.0000 
@<TRIPOS>BOND
@<TRIPOS>SUBSTRUCTURE
     1 ALC1       29 GROUP        1 X    ALC  0     ROOT ALC X 1
     2 SEC2       18 GROUP        1 X    SEC  0     **** SEC X 2
     3 LYC4       11 GROUP        1 X    LYC  0     **** LYC X 4
     4 ZIC7        1 GROUP        1 X    ZIC  0     **** ZIC X 5
     5 GLC5       21 GROUP        1 X    GLC  0     **** GLC X 6
     6 ALP1       31 GROUP        1 Y    ALP  0     ROOT ALP Y 8
     7 SEP2       20 GROUP        1 Y    SEP  0     **** SEP Y 9
     8 LYP4       13 GROUP        1 Y    LYP  0     **** LYP Y 11
     9 ZIP7        3 GROUP        1 Y    ZIP  0     **** ZIP Y 12
    10 GLP5       23 GROUP        1 Y    GLP  0     **** GLP Y 13
    11 ALL1       30 GROUP        1 Z    ALL  0     ROOT ALL Z 15
    12 SEL2       19 GROUP        1 Z    SEL  0     **** SEL Z 16
    13 LYL4       12 GROUP        1 Z    LYL  0     **** LYL Z 18
    14 ZIL7        2 GROUP        1 Z    ZIL  0     **** ZIL Z 19
    15 GLL5       22 GROUP        1 Z    GLL  0     **** GLL Z 20
@<TRIPOS>SET

