#    Name: 3fd6_ADP_1_ligand
#    Modification time : Tue Mar 25 03:51:10 2014

@<TRIPOS>MOLECULE
3fd6_ADP_1_ligand
   39    41     1     0     0
SMALL
NO_CHARGES


@<TRIPOS>ATOM
      1 PB         62.0430   35.9540   83.1970 P.3       1 ADP393      0.0000 
      2 O1B        62.5930   35.9570   81.8080 O.co2     1 ADP393      0.0000 
      3 O2B        60.5540   35.6860   83.2350 O.co2     1 ADP393      0.0000 
      4 O3B        62.4600   37.1160   84.0590 O.co2     1 ADP393      0.0000 
      5 PA         61.9460   33.1970   83.9990 P.3       1 ADP393      0.0000 
      6 O1A        61.4630   32.6520   82.6830 O.co2     1 ADP393      0.0000 
      7 O2A        60.9500   33.2710   85.1290 O.co2     1 ADP393      0.0000 
      8 O3A        62.6840   34.6370   83.8830 O.3       1 ADP393      0.0000 
      9 O5'        63.2160   32.2890   84.4090 O.3       1 ADP393      0.0000 
     10 C5'        63.8700   32.5280   85.6680 C.3       1 ADP393      0.0000 
     11 C4'        65.3640   32.7810   85.4760 C.3       1 ADP393      0.0000 
     12 O4'        66.0160   31.5610   85.1070 O.3       1 ADP393      0.0000 
     13 C3'        65.6380   33.7650   84.3580 C.3       1 ADP393      0.0000 
     14 O3'        66.7450   34.5370   84.7730 O.3       1 ADP393      0.0000 
     15 C2'        66.0950   32.9480   83.1700 C.3       1 ADP393      0.0000 
     16 O2'        67.0950   33.6590   82.4100 O.3       1 ADP393      0.0000 
     17 C1'        66.6590   31.7060   83.8370 C.3       1 ADP393      0.0000 
     18 N9         66.4150   30.4480   83.0970 N.pl3     1 ADP393      0.0000 
     19 C8         65.2290   29.8240   82.9400 C.2       1 ADP393      0.0000 
     20 N7         65.3840   28.6710   82.2320 N.2       1 ADP393      0.0000 
     21 C5         66.6980   28.5520   81.9470 C.ar      1 ADP393      0.0000 
     22 C6         67.5460   27.5890   81.2300 C.ar      1 ADP393      0.0000 
     23 N6         67.0110   26.4770   80.6610 N.pl3     1 ADP393      0.0000 
     24 N1         68.8670   27.8710   81.1590 N.ar      1 ADP393      0.0000 
     25 C2         69.4200   28.9540   81.7130 C.ar      1 ADP393      0.0000 
     26 N3         68.7100   29.8730   82.3790 N.ar      1 ADP393      0.0000 
     27 C4         67.3690   29.7250   82.5220 C.ar      1 ADP393      0.0000 
     28 H          63.7590   31.6682   86.3467 H         1 ADP393      0.0000 
     29 H          63.4437   33.4040   86.1810 H         1 ADP393      0.0000 
     30 H          65.7759   33.1706   86.3865 H         1 ADP393      0.0000 
     31 H          64.7959   34.3069   84.1324 H         1 ADP393      0.0000 
     32 H          65.2452   32.6721   82.6057 H         1 ADP393      0.0000 
     33 H          67.7203   31.8417   83.9847 H         1 ADP393      0.0000 
     34 H          64.3736   30.1486   83.2839 H         1 ADP393      0.0000 
     35 H          66.0308   26.3384   80.8027 H         1 ADP393      0.0000 
     36 H          67.6447   25.8955   80.1508 H         1 ADP393      0.0000 
     37 H          70.4725   29.0932   81.6212 H         1 ADP393      0.0000 
     38 H          66.3519   35.2907   85.2998 H         1 ADP393      0.0000 
     39 H          66.5932   34.3813   81.9343 H         1 ADP393      0.0000 
@<TRIPOS>BOND
     1    2    1 ar   
     2    3    1 ar   
     3    4    1 ar   
     4    8    1 1    
     5    6    5 ar   
     6    7    5 ar   
     7    8    5 1    
     8    9    5 1    
     9   10    9 1    
    10   11   10 1    
    11   28   10 1    
    12   29   10 1    
    13   12   11 1    
    14   13   11 1    
    15   30   11 1    
    16   17   12 1    
    17   14   13 1    
    18   15   13 1    
    19   31   13 1    
    20   38   14 1    
    21   16   15 1    
    22   17   15 1    
    23   32   15 1    
    24   39   16 1    
    25   18   17 1    
    26   33   17 1    
    27   19   18 1    
    28   27   18 1    
    29   20   19 2    
    30   34   19 1    
    31   21   20 1    
    32   22   21 ar   
    33   27   21 ar   
    34   23   22 1    
    35   24   22 ar   
    36   35   23 1    
    37   36   23 1    
    38   25   24 ar   
    39   26   25 ar   
    40   37   25 1    
    41   27   26 ar   
@<TRIPOS>SUBSTRUCTURE
     1 ADP393      1 GROUP   
@<TRIPOS>SET

