#    Name: 2oh4_GIG_1_INTS_M
#    Modification time : Tue Mar 25 22:33:22 2014

@<TRIPOS>MOLECULE
2oh4_GIG_1_INTS_M
   90     0     9     0     0
SMALL
NO_CHARGES


@<TRIPOS>ATOM
      1 CA          3.9040   39.5135   17.3070 C.3       3 GLC5        0.0000 
      2 CA          3.3520   40.9610   15.7890 C.3       9 GLL5        0.0000 
      3 CA          4.4560   38.0660   18.8250 C.3       6 GLP5        0.0000 
      4 O           0.5495   39.4665   13.6455 O.2       1 ALC1        0.0000 
      5 O           1.7150   39.7440   14.3920 O.2       7 ALL1        0.0000 
      6 O          -0.6160   39.1890   12.8990 O.2       4 ALP1        0.0000 
      7 CA         -1.4305   35.6850   12.8375 C.3       3 GLC5        0.0000 
      8 CA          0.3750   35.3350   13.5620 C.3       9 GLL5        0.0000 
      9 CA         -3.2360   36.0350   12.1130 C.3       6 GLP5        0.0000 
     10 CA          2.4045   34.8970   17.7310 C.3       3 GLC5        0.0000 
     11 CA          1.3240   34.2650   15.9590 C.3       9 GLL5        0.0000 
     12 CA          3.4850   35.5290   19.5030 C.3       6 GLP5        0.0000 
     13 CA          2.8315   36.1350   16.9875 C.3       3 GLC5        0.0000 
     14 CA          1.5310   35.6090   15.6870 C.3       9 GLL5        0.0000 
     15 CA          4.1320   36.6610   18.2880 C.3       6 GLP5        0.0000 
     16 CA          3.5030   25.7480   21.5330 C.3       3 GLC5        0.0000 
     17 CA          2.5920   24.1590   20.7880 C.3       9 GLL5        0.0000 
     18 CA          4.4140   27.3370   22.2780 C.3       6 GLP5        0.0000 
     19 O           4.9380   26.6825   18.7545 O.2       1 ALC1        0.0000 
     20 O           3.6610   26.6580   18.5000 O.2       7 ALL1        0.0000 
     21 O           6.2150   26.7070   19.0090 O.2       4 ALP1        0.0000 
     22 O           0.3280   38.3480   13.5170 O.2       1 ALC1        0.0000 
     23 O           1.2720   37.5070   14.1350 O.2       7 ALL1        0.0000 
     24 N           2.4845   38.5605   17.1705 N.am      2 SEC2        0.0000 
     25 N           2.7540   38.2140   15.7960 N.am      8 SEL2        0.0000 
     26 N           2.2150   38.9070   18.5450 N.am      5 SEP2        0.0000 
     27 CA          2.4590   44.5055   13.4975 C.3       3 GLC5        0.0000 
     28 CA          2.1110   43.3720   15.0650 C.3       9 GLL5        0.0000 
     29 CA          2.8070   45.6390   11.9300 C.3       6 GLP5        0.0000 
     30 CA          5.9550   40.9280   19.5860 C.3       3 GLC5        0.0000 
     31 CA          4.8570   41.2930   18.2530 C.3       9 GLL5        0.0000 
     32 CA          7.0530   40.5630   20.9190 C.3       6 GLP5        0.0000 
     33 CA          6.1420   43.1195   15.0520 C.3       3 GLC5        0.0000 
     34 CA          6.1940   41.7900   16.7140 C.3       9 GLL5        0.0000 
     35 CA          6.0900   44.4490   13.3900 C.3       6 GLP5        0.0000 
     36 CA          7.7255   41.1165   16.0575 C.3       3 GLC5        0.0000 
     37 CA          9.2570   40.4430   15.4010 C.3       6 GLP5        0.0000 
     38 CA          7.4360   43.2695   16.7365 C.3       3 GLC5        0.0000 
     39 CA          8.6780   44.7490   16.7590 C.3       6 GLP5        0.0000 
     40 CA          6.6235   41.1765   18.8165 C.3       3 GLC5        0.0000 
     41 CA         -1.1790   34.1250   12.1540 C.3       3 GLC5        0.0000 
     42 CA          0.1510   33.9940   13.8360 C.3       9 GLL5        0.0000 
     43 CA         -2.5090   34.2560   10.4720 C.3       6 GLP5        0.0000 
     44 CA          2.2860   41.2895   17.3087 C.3       3 GLC5        0.0000 
     45 CA          0.9870   41.0170   18.5900 C.3       6 GLP5        0.0000 
     46 CA          4.4825   39.9025   15.2161 C.3       3 GLC5        0.0000 
     47 CA          2.2310   40.9280   14.9250 C.3       9 GLL5        0.0000 
     48 CA          6.0570   38.5600   14.9560 C.3       6 GLP5        0.0000 
     49 CA          1.4607   41.2777   16.6655 C.3       3 GLC5        0.0000 
     50 CA          0.2087   41.4175   12.6197 C.3       3 GLC5        0.0000 
     51 CA          1.6380   42.1490   14.5570 C.3       9 GLL5        0.0000 
     52 CA         -0.6970   40.6950   11.0950 C.3       6 GLP5        0.0000 
     53 CA          3.3524   41.0429   13.4610 C.3       3 GLC5        0.0000 
     54 CA          4.4900   40.5390   11.9650 C.3       6 GLP5        0.0000 
     55 CA          1.8235   42.1935   17.0407 C.3       3 GLC5        0.0000 
     56 CA          3.3685   36.1325   14.5205 C.3       3 GLC5        0.0000 
     57 CA          5.4420   36.3800   13.9620 C.3       6 GLP5        0.0000 
     58 CA          0.8695   28.2413   15.6345 C.3       3 GLC5        0.0000 
     59 CA          0.9770   30.2490   16.5390 C.3       9 GLL5        0.0000 
     60 CA          0.2610   26.6700   14.5330 C.3       6 GLP5        0.0000 
     61 CA         -0.2050   30.4408   14.6985 C.3       3 GLC5        0.0000 
     62 CA         -1.5840   30.1240   13.2930 C.3       6 GLP5        0.0000 
     63 CA          4.9257   28.9440   14.9895 C.3       3 GLC5        0.0000 
     64 CA          3.6970   30.5510   15.5730 C.3       9 GLL5        0.0000 
     65 CA          6.3380   27.8590   13.9660 C.3       6 GLP5        0.0000 
     66 CA          3.4525   31.9745   13.7360 C.3       3 GLC5        0.0000 
     67 CA          3.7100   32.9650   12.0930 C.3       6 GLP5        0.0000 
     68 CA          3.2860   31.8162   16.9850 C.3       3 GLC5        0.0000 
     69 CA          2.6930   31.4170   15.1850 C.3       9 GLL5        0.0000 
     70 CA          4.5400   32.2910   18.5430 C.3       6 GLP5        0.0000 
     71 CA         -1.3570   32.8785   14.2220 C.3       3 GLC5        0.0000 
     72 CA          0.6090   33.4740   15.0400 C.3       9 GLL5        0.0000 
     73 CA         -3.0940   32.0230   14.0060 C.3       6 GLP5        0.0000 
     74 CA          2.0730   33.5171   13.2312 C.3       3 GLC5        0.0000 
     75 CA         -0.1454   36.1700   16.5885 C.3       3 GLC5        0.0000 
     76 CA         -1.5340   36.7910   18.0300 C.3       6 GLP5        0.0000 
     77 CA          4.4511   43.7589   14.4842 C.3       3 GLC5        0.0000 
     78 CA          3.8180   42.1630   16.2660 C.3       9 GLL5        0.0000 
     79 CA          4.6925   39.8953   18.2823 C.3       3 GLC5        0.0000 
     80 CA          2.9580   41.3708   18.1648 C.3       3 GLC5        0.0000 
     81 CA          6.5944   43.0542   18.5269 C.3       3 GLC5        0.0000 
     82 CA          8.2150   44.0910   19.1490 C.3       6 GLP5        0.0000 
     83 CA          4.6684   42.4603   19.6034 C.3       3 GLC5        0.0000 
     84 CA          5.1800   43.3280   17.8870 C.3       9 GLL5        0.0000 
     85 CA          4.3630   42.9030   21.3020 C.3       6 GLP5        0.0000 
     86 CA          5.8093   40.1586   16.0914 C.3       3 GLC5        0.0000 
     87 CA          5.0010   42.1560   17.2260 C.3       9 GLL5        0.0000 
     88 CA          3.6431   30.9967   17.5080 C.3       3 GLC5        0.0000 
     89 CA          2.2269   29.8639   14.2989 C.3       3 GLC5        0.0000 
     90 CA          2.1140   29.3330   12.5390 C.3       6 GLP5        0.0000 
@<TRIPOS>BOND
@<TRIPOS>SUBSTRUCTURE
     1 ALC1        4 GROUP        1 X    ALC  0     ROOT ALC X 1
     2 SEC2       24 GROUP        1 X    SEC  0     **** SEC X 2
     3 GLC5        1 GROUP        1 X    GLC  0     **** GLC X 6
     4 ALP1        6 GROUP        1 Y    ALP  0     ROOT ALP Y 8
     5 SEP2       26 GROUP        1 Y    SEP  0     **** SEP Y 9
     6 GLP5        3 GROUP        1 Y    GLP  0     **** GLP Y 13
     7 ALL1        5 GROUP        1 Z    ALL  0     ROOT ALL Z 15
     8 SEL2       25 GROUP        1 Z    SEL  0     **** SEL Z 16
     9 GLL5        2 GROUP        1 Z    GLL  0     **** GLL Z 20
@<TRIPOS>SET

