#    Name: 2oh4_GIG_1_ligand
#    Modification time : Tue Mar 25 22:33:22 2014

@<TRIPOS>MOLECULE
2oh4_GIG_1_ligand
   53    56     1     0     0
SMALL
NO_CHARGES


@<TRIPOS>ATOM
      1 C5          3.8180   42.1630   16.2660 C.ar      1 GIG303      0.0000 
      2 C6          3.3520   40.9610   15.7890 C.ar      1 GIG303      0.0000 
      3 C7          2.2310   40.9280   14.9250 C.ar      1 GIG303      0.0000 
      4 C8          1.6380   42.1490   14.5570 C.ar      1 GIG303      0.0000 
      5 C10         3.2090   43.3680   15.9180 C.ar      1 GIG303      0.0000 
      6 N12         1.7150   39.7440   14.3920 N.am      1 GIG303      0.0000 
      7 C13         1.8400   38.4790   14.9620 C.2       1 GIG303      0.0000 
      8 C17         0.3750   35.3350   13.5620 C.ar      1 GIG303      0.0000 
      9 C20         1.3240   34.2650   15.9590 C.ar      1 GIG303      0.0000 
     10 C21         1.5310   35.6090   15.6870 C.ar      1 GIG303      0.0000 
     11 C24         0.9770   30.2490   16.5390 C.ar      1 GIG303      0.0000 
     12 C36         2.5920   24.1590   20.7880 C.3       1 GIG303      0.0000 
     13 O35         3.3860   24.9300   19.8640 O.3       1 GIG303      0.0000 
     14 C33         2.7940   26.0050   19.3060 C.2       1 GIG303      0.0000 
     15 O34         1.5340   26.0010   19.2070 O.2       1 GIG303      0.0000 
     16 N32         3.6610   26.6580   18.5000 N.am      1 GIG303      0.0000 
     17 C27         3.2900   27.8030   17.7700 C.2       1 GIG303      0.0000 
     18 N28         4.1140   28.5060   16.9830 N.pl3     1 GIG303      0.0000 
     19 C29         3.3300   29.5070   16.4530 C.ar      1 GIG303      0.0000 
     20 C30         3.6970   30.5510   15.5730 C.ar      1 GIG303      0.0000 
     21 C31         2.6930   31.4170   15.1850 C.ar      1 GIG303      0.0000 
     22 C23         1.3710   31.2660   15.6690 C.ar      1 GIG303      0.0000 
     23 O22         0.3720   32.1280   15.2970 O.3       1 GIG303      0.0000 
     24 C19         0.6090   33.4740   15.0400 C.ar      1 GIG303      0.0000 
     25 C16         1.0590   36.1610   14.4710 C.ar      1 GIG303      0.0000 
     26 N15         1.2720   37.5070   14.1350 N.am      1 GIG303      0.0000 
     27 O14         2.7540   38.2140   15.7960 O.2       1 GIG303      0.0000 
     28 C9          2.1110   43.3720   15.0650 C.ar      1 GIG303      0.0000 
     29 F11         0.5910   42.1310   13.7320 F         1 GIG303      0.0000 
     30 C2          5.0010   42.1560   17.2260 C.3       1 GIG303      0.0000 
     31 F3          5.1800   43.3280   17.8870 F         1 GIG303      0.0000 
     32 F4          4.8570   41.2930   18.2530 F         1 GIG303      0.0000 
     33 F1          6.1940   41.7900   16.7140 F         1 GIG303      0.0000 
     34 C18         0.1510   33.9940   13.8360 C.ar      1 GIG303      0.0000 
     35 C25         1.9790   29.3760   16.9330 C.ar      1 GIG303      0.0000 
     36 N26         1.9620   28.2750   17.7700 N.2       1 GIG303      0.0000 
     37 H           3.8046   40.0762   16.0488 H         1 GIG303      0.0000 
     38 H           3.5732   44.2530   16.2932 H         1 GIG303      0.0000 
     39 H           1.1814   39.8163   13.4724 H         1 GIG303      0.0000 
     40 H           0.0353   35.7433   12.6734 H         1 GIG303      0.0000 
     41 H           1.6842   33.8429   16.8179 H         1 GIG303      0.0000 
     42 H           2.0213   36.2106   16.3535 H         1 GIG303      0.0000 
     43 H           0.0345   30.1597   16.8544 H         1 GIG303      0.0000 
     44 H           4.6472   26.3193   18.3993 H         1 GIG303      0.0000 
     45 H           5.0284   28.3670   16.8136 H         1 GIG303      0.0000 
     46 H           4.6435   30.6449   15.2551 H         1 GIG303      0.0000 
     47 H           2.8948   32.1917   14.5320 H         1 GIG303      0.0000 
     48 H           0.9715   37.8135   13.1573 H         1 GIG303      0.0000 
     49 H           1.6512   44.2438   14.8076 H         1 GIG303      0.0000 
     50 H          -0.3401   33.4006   13.1675 H         1 GIG303      0.0000 
     51 H           3.1010   23.3806   21.1554 H         1 GIG303      0.0000 
     52 H           2.2925   24.7080   21.5683 H         1 GIG303      0.0000 
     53 H           1.7688   23.7925   20.3543 H         1 GIG303      0.0000 
@<TRIPOS>BOND
     1    2    1 ar   
     2    5    1 ar   
     3   30    1 1    
     4    3    2 ar   
     5   37    2 1    
     6    4    3 ar   
     7    6    3 1    
     8   28    4 ar   
     9   29    4 1    
    10   28    5 ar   
    11   38    5 1    
    12    7    6 am   
    13   39    6 1    
    14   26    7 am   
    15   27    7 2    
    16   25    8 ar   
    17   34    8 ar   
    18   40    8 1    
    19   10    9 ar   
    20   24    9 ar   
    21   41    9 1    
    22   25   10 ar   
    23   42   10 1    
    24   22   11 ar   
    25   35   11 ar   
    26   43   11 1    
    27   13   12 1    
    28   51   12 1    
    29   52   12 1    
    30   53   12 1    
    31   14   13 1    
    32   15   14 2    
    33   16   14 am   
    34   17   16 1    
    35   44   16 1    
    36   18   17 1    
    37   36   17 2    
    38   19   18 1    
    39   45   18 1    
    40   20   19 ar   
    41   35   19 ar   
    42   21   20 ar   
    43   46   20 1    
    44   22   21 ar   
    45   47   21 1    
    46   23   22 1    
    47   24   23 1    
    48   34   24 ar   
    49   26   25 1    
    50   48   26 1    
    51   49   28 1    
    52   31   30 1    
    53   32   30 1    
    54   33   30 1    
    55   50   34 1    
    56   36   35 1    
@<TRIPOS>SUBSTRUCTURE
     1 GIG303      1 GROUP   
@<TRIPOS>SET

