#    Name: 2c1b_CQP_1_INTS_M
#    Modification time : Mon Mar 24 22:14:06 2014

@<TRIPOS>MOLECULE
2c1b_CQP_1_INTS_M
   67     0     9     0     0
SMALL
NO_CHARGES


@<TRIPOS>ATOM
      1 CA         13.8500   15.8420   -0.2620 C.3       3 GLC5        0.0000 
      2 CA         12.6650   14.1950   -0.1330 C.3       9 GLL5        0.0000 
      3 CA         15.0350   17.4890   -0.3910 C.3       6 GLP5        0.0000 
      4 CA         12.8140   15.0935   -1.8790 C.3       3 GLC5        0.0000 
      5 CA         12.9630   15.9920   -3.6250 C.3       6 GLP5        0.0000 
      6 CA         13.9020    7.0695    6.3280 C.3       3 GLC5        0.0000 
      7 CA         12.9710    7.0150    4.5000 C.3       9 GLL5        0.0000 
      8 CA         14.8330    7.1240    8.1560 C.3       6 GLP5        0.0000 
      9 OD1        11.1450    7.8355    5.8350 O.co2     2 ASC3        0.0000 
     10 OD1        11.9460    8.3050    4.8150 O.co2     8 ASL3        0.0000 
     11 OD1        10.3440    7.3660    6.8550 O.co2     5 ASP3        0.0000 
     12 CA          8.6395    7.1865    2.1385 C.3       3 GLC5        0.0000 
     13 CA          9.8230    7.9390    3.5500 C.3       9 GLL5        0.0000 
     14 CA          7.4560    6.4340    0.7270 C.3       6 GLP5        0.0000 
     15 CA          5.8100    8.3830    0.5285 C.3       3 GLC5        0.0000 
     16 CA          5.1920   10.2040    1.4400 C.3       9 GLL5        0.0000 
     17 CA          6.4280    6.5620   -0.3830 C.3       6 GLP5        0.0000 
     18 CA          1.5585   10.6100    3.6700 C.3       3 GLC5        0.0000 
     19 CA          3.4600    9.9370    3.1700 C.3       9 GLL5        0.0000 
     20 CA         -0.3430   11.2830    4.1700 C.3       6 GLP5        0.0000 
     21 CA          2.0220    8.4170    3.2390 C.3       3 GLC5        0.0000 
     22 CA          0.5840    6.8970    3.3080 C.3       6 GLP5        0.0000 
     23 N           1.6715    9.4605    4.7460 N.am      1 SEC2        0.0000 
     24 N           3.0440    9.7730    4.4140 N.am      7 SEL2        0.0000 
     25 N           0.2990    9.1480    5.0780 N.am      4 SEP2        0.0000 
     26 CA          3.6990   11.4845    4.0605 C.3       3 GLC5        0.0000 
     27 CA          3.9990    9.7300    5.4010 C.3       9 GLL5        0.0000 
     28 CA          3.3990   13.2390    2.7200 C.3       6 GLP5        0.0000 
     29 CA          2.0640    8.7715    5.5190 C.3       3 GLC5        0.0000 
     30 CA          0.1290    7.8130    5.6370 C.3       6 GLP5        0.0000 
     31 CA         15.2995   12.7390    0.9802 C.3       3 GLC5        0.0000 
     32 CA         13.2450   12.7580    0.5420 C.3       9 GLL5        0.0000 
     33 CA         16.9640   13.1380    1.8170 C.3       6 GLP5        0.0000 
     34 CA         12.2410   12.7586   -1.6376 C.3       3 GLC5        0.0000 
     35 CA         14.0250   11.9220   -0.2550 C.3       9 GLL5        0.0000 
     36 CA         10.9920   12.8180   -3.2500 C.3       6 GLP5        0.0000 
     37 CA         15.8265   11.5019    1.6830 C.3       3 GLC5        0.0000 
     38 CA         14.5520   10.7540    0.2910 C.3       9 GLL5        0.0000 
     39 CA         13.4653    5.3327    4.2805 C.3       3 GLC5        0.0000 
     40 CA         13.5600    7.4940    3.0620 C.3       9 GLL5        0.0000 
     41 CA         13.6650    3.4110    4.7800 C.3       6 GLP5        0.0000 
     42 CA          5.5652    8.3385    3.5125 C.3       3 GLC5        0.0000 
     43 CA          7.2260   10.1130    3.4510 C.3       9 GLL5        0.0000 
     44 CA          4.5950    6.6190    3.3840 C.3       6 GLP5        0.0000 
     45 CA          7.2393    8.3630    1.1620 C.3       3 GLC5        0.0000 
     46 CA          7.5180   10.2640    2.0960 C.3       9 GLL5        0.0000 
     47 CA          6.5128   12.0900    2.1035 C.3       3 GLC5        0.0000 
     48 CA          6.5270   10.3200    1.0980 C.3       9 GLL5        0.0000 
     49 CA          7.1660   13.9180    2.9380 C.3       6 GLP5        0.0000 
     50 CA          5.2532   10.6805   -0.5310 C.3       3 GLC5        0.0000 
     51 CA          4.6470   11.0990   -2.3310 C.3       6 GLP5        0.0000 
     52 CA          4.4164    8.3271    3.0149 C.3       3 GLC5        0.0000 
     53 CA          4.7610   11.6192    5.9700 C.3       3 GLC5        0.0000 
     54 CA          5.3690    9.8210    5.1730 C.3       9 GLL5        0.0000 
     55 CA          4.8380   13.4630    6.6530 C.3       6 GLP5        0.0000 
     56 CA          4.6395    8.1973    4.3355 C.3       3 GLC5        0.0000 
     57 CA          6.8872   12.0069    3.1201 C.3       3 GLC5        0.0000 
     58 CA          5.8450   10.0030    3.8310 C.3       9 GLL5        0.0000 
     59 CA          4.2202   11.6291    2.9792 C.3       3 GLC5        0.0000 
     60 CA         14.0125   12.9602    3.4500 C.3       3 GLC5        0.0000 
     61 CA         12.9890   12.4240    1.8830 C.3       9 GLL5        0.0000 
     62 CA         14.7770   14.0830    4.7490 C.3       6 GLP5        0.0000 
     63 CA         15.1060   12.4877    1.9840 C.3       3 GLC5        0.0000 
     64 CA         12.7885   14.8546    1.7249 C.3       3 GLC5        0.0000 
     65 CA         12.6050   16.7590    2.4060 C.3       6 GLP5        0.0000 
     66 CA         11.1355   13.2826    1.3044 C.3       3 GLC5        0.0000 
     67 CA          9.2990   13.6150    1.5650 C.3       6 GLP5        0.0000 
@<TRIPOS>BOND
@<TRIPOS>SUBSTRUCTURE
     1 SEC2       23 GROUP        1 X    SEC  0     ROOT SEC X 2
     2 ASC3        9 GROUP        1 X    ASC  0     **** ASC X 3
     3 GLC5        1 GROUP        1 X    GLC  0     **** GLC X 6
     4 SEP2       25 GROUP        1 Y    SEP  0     ROOT SEP Y 9
     5 ASP3       11 GROUP        1 Y    ASP  0     **** ASP Y 10
     6 GLP5        3 GROUP        1 Y    GLP  0     **** GLP Y 13
     7 SEL2       24 GROUP        1 Z    SEL  0     ROOT SEL Z 16
     8 ASL3       10 GROUP        1 Z    ASL  0     **** ASL Z 17
     9 GLL5        2 GROUP        1 Z    GLL  0     **** GLL Z 20
@<TRIPOS>SET

