#    Name: 2c1b_CQP_1_ligand
#    Modification time : Mon Mar 24 22:14:06 2014

@<TRIPOS>MOLECULE
2c1b_CQP_1_ligand
   50    53     1     0     0
SMALL
NO_CHARGES


@<TRIPOS>ATOM
      1 CL1        12.6650   14.1950   -0.1330 Cl        1 CQP1351     0.0000 
      2 C2         13.2450   12.7580    0.5420 C.ar      1 CQP1351     0.0000 
      3 C3         14.0250   11.9220   -0.2550 C.ar      1 CQP1351     0.0000 
      4 C4         14.5520   10.7540    0.2910 C.ar      1 CQP1351     0.0000 
      5 C5         14.3060   10.4030    1.6290 C.ar      1 CQP1351     0.0000 
      6 C6         14.9490    9.1530    2.1380 C.3       1 CQP1351     0.0000 
      7 O7         14.3120    8.6760    3.3390 O.3       1 CQP1351     0.0000 
      8 C8         13.5600    7.4940    3.0620 C.3       1 CQP1351     0.0000 
      9 C10        12.9710    7.0150    4.5000 C.3       1 CQP1351     0.0000 
     10 N10        11.9460    8.3050    4.8150 N.4       1 CQP1351     0.0000 
     11 C13        11.2540    8.5020    3.4830 C.3       1 CQP1351     0.0000 
     12 C14         9.8230    7.9390    3.5500 C.3       1 CQP1351     0.0000 
     13 N15         9.0270    8.5410    4.6020 N.pl3     1 CQP1351     0.0000 
     14 S16         8.4960   10.0900    4.5320 S.o2      1 CQP1351     0.0000 
     15 O17         9.4500   10.9570    3.9800 O.2       1 CQP1351     0.0000 
     16 O18         8.1120   10.3760    5.8610 O.2       1 CQP1351     0.0000 
     17 C19         7.2260   10.1130    3.4510 C.ar      1 CQP1351     0.0000 
     18 C20         7.5180   10.2640    2.0960 C.ar      1 CQP1351     0.0000 
     19 C21         6.5270   10.3200    1.0980 C.ar      1 CQP1351     0.0000 
     20 C22         5.1920   10.2040    1.4400 C.ar      1 CQP1351     0.0000 
     21 C23         4.8390   10.0630    2.8030 C.ar      1 CQP1351     0.0000 
     22 C24         3.4600    9.9370    3.1700 C.ar      1 CQP1351     0.0000 
     23 N25         3.0440    9.7730    4.4140 N.ar      1 CQP1351     0.0000 
     24 C26         3.9990    9.7300    5.4010 C.ar      1 CQP1351     0.0000 
     25 C27         5.3690    9.8210    5.1730 C.ar      1 CQP1351     0.0000 
     26 C28         5.8450   10.0030    3.8310 C.ar      1 CQP1351     0.0000 
     27 C29        13.5070   11.2510    2.4190 C.ar      1 CQP1351     0.0000 
     28 C31        12.0980    7.8580    2.3790 C.3       1 CQP1351     0.0000 
     29 C30        12.9890   12.4240    1.8830 C.ar      1 CQP1351     0.0000 
     30 H          14.2085   12.1643   -1.2318 H         1 CQP1351     0.0000 
     31 H          15.1342   10.1318   -0.2934 H         1 CQP1351     0.0000 
     32 H          16.0210    9.3575    2.3187 H         1 CQP1351     0.0000 
     33 H          14.9063    8.3863    1.3417 H         1 CQP1351     0.0000 
     34 H          13.9492    6.7229    2.6092 H         1 CQP1351     0.0000 
     35 H          13.7120    7.0377    5.1954 H         1 CQP1351     0.0000 
     36 H          12.3917    6.1897    4.3721 H         1 CQP1351     0.0000 
     37 H          11.1930    9.5698    3.2894 H         1 CQP1351     0.0000 
     38 H           9.9023    6.8448    3.6889 H         1 CQP1351     0.0000 
     39 H           9.3568    8.0968    2.5597 H         1 CQP1351     0.0000 
     40 H           8.7513    8.0560    5.4329 H         1 CQP1351     0.0000 
     41 H           8.5196   10.3398    1.8015 H         1 CQP1351     0.0000 
     42 H           6.8068   10.4474    0.1179 H         1 CQP1351     0.0000 
     43 H           4.4604   10.2183    0.7298 H         1 CQP1351     0.0000 
     44 H           2.7701    9.9837    2.3669 H         1 CQP1351     0.0000 
     45 H           3.6777    9.6202    6.4068 H         1 CQP1351     0.0000 
     46 H           6.0393    9.7617    5.9329 H         1 CQP1351     0.0000 
     47 H          13.3107   10.9949    3.3942 H         1 CQP1351     0.0000 
     48 H          11.6799    6.9420    2.0564 H         1 CQP1351     0.0000 
     49 H          12.2935    8.5388    1.5941 H         1 CQP1351     0.0000 
     50 H          12.4184   13.0513    2.4610 H         1 CQP1351     0.0000 
@<TRIPOS>BOND
     1    2    1 1    
     2    3    2 ar   
     3   29    2 ar   
     4    4    3 ar   
     5   30    3 1    
     6    5    4 ar   
     7   31    4 1    
     8    6    5 1    
     9   27    5 ar   
    10    7    6 1    
    11   32    6 1    
    12   33    6 1    
    13    8    7 1    
    14    9    8 1    
    15   28    8 1    
    16   34    8 1    
    17   10    9 1    
    18   35    9 1    
    19   36    9 1    
    20   11   10 1    
    21   12   11 1    
    22   28   11 1    
    23   37   11 1    
    24   13   12 1    
    25   38   12 1    
    26   39   12 1    
    27   14   13 1    
    28   40   13 1    
    29   15   14 2    
    30   16   14 2    
    31   17   14 1    
    32   18   17 ar   
    33   26   17 ar   
    34   19   18 ar   
    35   41   18 1    
    36   20   19 ar   
    37   42   19 1    
    38   21   20 ar   
    39   43   20 1    
    40   22   21 ar   
    41   26   21 ar   
    42   23   22 ar   
    43   44   22 1    
    44   24   23 ar   
    45   25   24 ar   
    46   45   24 1    
    47   26   25 ar   
    48   46   25 1    
    49   29   27 ar   
    50   47   27 1    
    51   48   28 1    
    52   49   28 1    
    53   50   29 1    
@<TRIPOS>SUBSTRUCTURE
     1 CQP1351     1 GROUP   
@<TRIPOS>SET

