#    Name: 3kr8_XAV_2_INTS_M
#    Modification time : Mon Mar 24 20:21:44 2014

@<TRIPOS>MOLECULE
3kr8_XAV_2_INTS_M
   63     0     9     0     0
SMALL
NO_CHARGES


@<TRIPOS>ATOM
      1 CA         53.9400  -44.5915  -16.2885 C.3       3 GLC5        0.0000 
      2 CA         54.3340  -42.7220  -17.3090 C.3       9 GLL5        0.0000 
      3 CA         53.5460  -46.4610  -15.2680 C.3       6 GLP5        0.0000 
      4 CA         54.7310  -40.3095  -13.9520 C.3       3 GLC5        0.0000 
      5 CA         54.0160  -41.9030  -15.1730 C.3       9 GLL5        0.0000 
      6 CA         55.4460  -38.7160  -12.7310 C.3       6 GLP5        0.0000 
      7 CA         54.9720  -40.6365  -16.5545 C.3       3 GLC5        0.0000 
      8 CA         55.9280  -39.3700  -17.9360 C.3       6 GLP5        0.0000 
      9 N          52.6320  -39.9090  -14.5655 N.am      2 SEC2        0.0000 
     10 N          53.4290  -41.0640  -14.3540 N.am      8 SEL2        0.0000 
     11 N          51.8350  -38.7540  -14.7770 N.am      5 SEP2        0.0000 
     12 O          53.5030  -40.5365  -13.1255 O.2       1 ALC1        0.0000 
     13 O          53.4290  -41.0640  -14.3540 O.2       7 ALL1        0.0000 
     14 O          53.5770  -40.0090  -11.8970 O.2       4 ALP1        0.0000 
     15 CA         53.9450  -45.5355  -22.3970 C.3       3 GLC5        0.0000 
     16 CA         53.8770  -43.6800  -23.4790 C.3       9 GLL5        0.0000 
     17 CA         54.0130  -47.3910  -21.3150 C.3       6 GLP5        0.0000 
     18 CA         55.6585  -43.7280  -23.7230 C.3       3 GLC5        0.0000 
     19 CA         57.4400  -43.7760  -23.9670 C.3       6 GLP5        0.0000 
     20 CA         49.8950  -43.7295  -22.7250 C.3       3 GLC5        0.0000 
     21 CA         51.8540  -42.9260  -23.1220 C.3       9 GLL5        0.0000 
     22 CA         47.9360  -44.5330  -22.3280 C.3       6 GLP5        0.0000 
     23 CA         53.0395  -39.9140  -22.8050 C.3       3 GLC5        0.0000 
     24 CA         53.3700  -41.6130  -23.4640 C.3       9 GLL5        0.0000 
     25 CA         52.7090  -38.2150  -22.1460 C.3       6 GLP5        0.0000 
     26 CA         52.7070  -40.1370  -21.3505 C.3       3 GLC5        0.0000 
     27 CA         52.7050  -42.0590  -20.5550 C.3       9 GLL5        0.0000 
     28 CA         57.7815  -42.9645  -14.9015 C.3       3 GLC5        0.0000 
     29 CA         57.2190  -44.4770  -13.8380 C.3       9 GLL5        0.0000 
     30 CA         58.3440  -41.4520  -15.9650 C.3       6 GLP5        0.0000 
     31 CA         56.8015  -45.6755  -17.1010 C.3       3 GLC5        0.0000 
     32 CA         56.5900  -44.6960  -15.2050 C.3       9 GLL5        0.0000 
     33 CA         57.0130  -46.6550  -18.9970 C.3       6 GLP5        0.0000 
     34 CA         57.6800  -43.5110  -16.0640 C.3       3 GLC5        0.0000 
     35 CA         58.7700  -42.3260  -16.9230 C.3       6 GLP5        0.0000 
     36 CA         57.0620  -42.3495  -12.2000 C.3       3 GLC5        0.0000 
     37 CA         55.2260  -42.8490  -13.1160 C.3       9 GLL5        0.0000 
     38 CA         58.8980  -41.8500  -11.2840 C.3       6 GLP5        0.0000 
     39 CA         55.3360  -40.7825  -12.9235 C.3       3 GLC5        0.0000 
     40 CA         56.7850  -42.1505  -14.5405 C.3       3 GLC5        0.0000 
     41 CA         54.7240  -45.4545  -13.9355 C.3       3 GLC5        0.0000 
     42 CA         55.9020  -44.4480  -12.6030 C.3       9 GLL5        0.0000 
     43 CA         56.4260  -45.7585  -11.2555 C.3       3 GLC5        0.0000 
     44 CA         56.9500  -47.0690   -9.9080 C.3       6 GLP5        0.0000 
     45 CA         54.3942  -44.8440  -15.1700 C.3       3 GLC5        0.0000 
     46 CA         55.5440  -43.6570  -15.5250 C.3       9 GLL5        0.0000 
     47 CA         51.6724  -41.6021  -24.2931 C.3       3 GLC5        0.0000 
     48 CA         50.4100  -40.9790  -25.3480 C.3       6 GLP5        0.0000 
     49 CA         51.5875  -40.5037  -19.7473 C.3       3 GLC5        0.0000 
     50 CA         50.3200  -38.9460  -19.6130 C.3       6 GLP5        0.0000 
     51 CA         54.7685  -40.8869  -18.2696 C.3       3 GLC5        0.0000 
     52 CA         53.0050  -42.0640  -19.2080 C.3       9 GLL5        0.0000 
     53 CA         54.7465  -45.2575  -20.1382 C.3       3 GLC5        0.0000 
     54 CA         54.9260  -43.4710  -19.5630 C.3       9 GLL5        0.0000 
     55 CA         54.7310  -47.0360  -20.0240 C.3       6 GLP5        0.0000 
     56 CA         55.2253  -45.5237  -14.8948 C.3       3 GLC5        0.0000 
     57 CA         57.7293  -43.1562  -12.2523 C.3       3 GLC5        0.0000 
     58 CA         53.6040  -44.1107  -12.2097 C.3       3 GLC5        0.0000 
     59 CA         51.6440  -44.5730  -11.5600 C.3       6 GLP5        0.0000 
     60 CA         55.3125  -42.9737  -11.2242 C.3       3 GLC5        0.0000 
     61 CA         55.0610  -42.2990   -9.5890 C.3       6 GLP5        0.0000 
     62 CA         55.9248  -42.9370  -21.8534 C.3       3 GLC5        0.0000 
     63 CA         57.7160  -42.7500  -22.8670 C.3       6 GLP5        0.0000 
@<TRIPOS>BOND
@<TRIPOS>SUBSTRUCTURE
     1 ALC1       12 GROUP        1 X    ALC  0     ROOT ALC X 1
     2 SEC2        9 GROUP        1 X    SEC  0     **** SEC X 2
     3 GLC5        1 GROUP        1 X    GLC  0     **** GLC X 6
     4 ALP1       14 GROUP        1 Y    ALP  0     ROOT ALP Y 8
     5 SEP2       11 GROUP        1 Y    SEP  0     **** SEP Y 9
     6 GLP5        3 GROUP        1 Y    GLP  0     **** GLP Y 13
     7 ALL1       13 GROUP        1 Z    ALL  0     ROOT ALL Z 15
     8 SEL2       10 GROUP        1 Z    SEL  0     **** SEL Z 16
     9 GLL5        2 GROUP        1 Z    GLL  0     **** GLL Z 20
@<TRIPOS>SET

