#    Name: 3kr8_XAV_2_ligand
#    Modification time : Mon Mar 24 20:21:44 2014

@<TRIPOS>MOLECULE
3kr8_XAV_2_ligand
   32    34     1     0     0
SMALL
NO_CHARGES


@<TRIPOS>ATOM
      1 N1         53.6910  -41.8840  -16.4890 N.ar      1 XAV1163     0.0000 
      2 C2         54.3340  -42.7220  -17.3090 C.ar      1 XAV1163     0.0000 
      3 N3         55.2230  -43.5620  -16.8130 N.ar      1 XAV1163     0.0000 
      4 C4         55.5440  -43.6570  -15.5250 C.ar      1 XAV1163     0.0000 
      5 C5         54.9410  -42.7970  -14.6190 C.ar      1 XAV1163     0.0000 
      6 C6         54.0160  -41.9030  -15.1730 C.ar      1 XAV1163     0.0000 
      7 O6         53.4290  -41.0640  -14.3540 O.3       1 XAV1163     0.0000 
      8 FAB        53.8770  -43.6800  -23.4790 F         1 XAV1163     0.0000 
      9 FAC        51.8540  -42.9260  -23.1220 F         1 XAV1163     0.0000 
     10 FAD        53.3700  -41.6130  -23.4640 F         1 XAV1163     0.0000 
     11 CAE        53.0050  -42.0640  -19.2080 C.ar      1 XAV1163     0.0000 
     12 CAF        54.9260  -43.4710  -19.5630 C.ar      1 XAV1163     0.0000 
     13 CAG        52.7050  -42.0590  -20.5550 C.ar      1 XAV1163     0.0000 
     14 CAH        54.5980  -43.4870  -20.9420 C.ar      1 XAV1163     0.0000 
     15 CAI        57.2190  -44.4770  -13.8380 C.3       1 XAV1163     0.0000 
     16 CAJ        56.5900  -44.6960  -15.2050 C.3       1 XAV1163     0.0000 
     17 CAK        55.2260  -42.8490  -13.1160 C.3       1 XAV1163     0.0000 
     18 SAN        55.9020  -44.4480  -12.6030 S.3       1 XAV1163     0.0000 
     19 CAP        54.0920  -42.7650  -18.6880 C.ar      1 XAV1163     0.0000 
     20 CAQ        53.5050  -42.7690  -21.4270 C.ar      1 XAV1163     0.0000 
     21 CAU        53.1450  -42.7490  -22.9030 C.3       1 XAV1163     0.0000 
     22 H          52.3984  -41.5241  -18.5485 H         1 XAV1163     0.0000 
     23 H          55.7446  -43.9604  -19.2275 H         1 XAV1163     0.0000 
     24 H          51.8956  -41.5329  -20.9046 H         1 XAV1163     0.0000 
     25 H          55.1808  -44.0393  -21.5865 H         1 XAV1163     0.0000 
     26 H          57.6652  -43.5272  -13.7202 H         1 XAV1163     0.0000 
     27 H          57.8222  -45.2799  -13.5117 H         1 XAV1163     0.0000 
     28 H          57.3778  -44.6690  -15.9689 H         1 XAV1163     0.0000 
     29 H          56.1342  -45.6942  -15.2324 H         1 XAV1163     0.0000 
     30 H          54.3458  -42.7656  -12.5126 H         1 XAV1163     0.0000 
     31 H          55.9874  -42.1648  -12.8031 H         1 XAV1163     0.0000 
     32 H          54.0315  -41.0159  -13.5573 H         1 XAV1163     0.0000 
@<TRIPOS>BOND
     1    2    1 ar   
     2    6    1 ar   
     3    3    2 ar   
     4   19    2 1    
     5    4    3 ar   
     6    5    4 ar   
     7   16    4 1    
     8    6    5 ar   
     9   17    5 1    
    10    7    6 1    
    11   32    7 1    
    12   21    8 1    
    13   21    9 1    
    14   21   10 1    
    15   13   11 ar   
    16   19   11 ar   
    17   22   11 1    
    18   14   12 ar   
    19   19   12 ar   
    20   23   12 1    
    21   20   13 ar   
    22   24   13 1    
    23   20   14 ar   
    24   25   14 1    
    25   16   15 1    
    26   18   15 1    
    27   26   15 1    
    28   27   15 1    
    29   28   16 1    
    30   29   16 1    
    31   18   17 1    
    32   30   17 1    
    33   31   17 1    
    34   21   20 1    
@<TRIPOS>SUBSTRUCTURE
     1 XAV1163     1 GROUP   
@<TRIPOS>SET

