#    Name: 4m7t_SAM_1_INTS_M
#    Modification time : Tue Mar 25 11:55:53 2014

@<TRIPOS>MOLECULE
4m7t_SAM_1_INTS_M
   59     0    12     0     0
SMALL
NO_CHARGES


@<TRIPOS>ATOM
      1 OD1         3.0280  -10.7940   10.1900 O.co2     3 ASC3        0.0000 
      2 OD1         3.1670  -11.7420   11.8270 O.co2    11 ASL3        0.0000 
      3 OD1         2.8890   -9.8460    8.5530 O.co2     7 ASP3        0.0000 
      4 O           2.1155  -12.5965   11.2645 O.2       1 ALC1        0.0000 
      5 O           3.1670  -11.7420   11.8270 O.2       9 ALL1        0.0000 
      6 O           1.0640  -13.4510   10.7020 O.2       5 ALP1        0.0000 
      7 CA          1.9775   -8.8190   11.1525 C.3       4 GLC5        0.0000 
      8 CA          2.4390  -10.5360   12.1830 C.3      12 GLL5        0.0000 
      9 CA          1.5160   -7.1020   10.1220 C.3       8 GLP5        0.0000 
     10 N           5.5835   -9.3480   13.7475 N.am      2 SEC2        0.0000 
     11 N           4.4060   -9.8740   13.4010 N.am     10 SEL2        0.0000 
     12 N           6.7610   -8.8220   14.0940 N.am      6 SEP2        0.0000 
     13 CA         -0.6080  -11.4680   12.7930 C.3       4 GLC5        0.0000 
     14 CA          1.1910  -10.9160   12.9790 C.3      12 GLL5        0.0000 
     15 CA         -2.4070  -12.0200   12.6070 C.3       8 GLP5        0.0000 
     16 CA         -0.0055   -9.1925   13.4225 C.3       4 GLC5        0.0000 
     17 CA         -1.2020   -7.4690   13.8660 C.3       8 GLP5        0.0000 
     18 CA         -0.3360  -11.8210   14.6475 C.3       4 GLC5        0.0000 
     19 CA          1.4560  -11.9190   14.1300 C.3      12 GLL5        0.0000 
     20 CA         -2.1280  -11.7230   15.1650 C.3       8 GLP5        0.0000 
     21 CA          2.3875  -15.0000   16.6475 C.3       4 GLC5        0.0000 
     22 CA          2.2970  -13.1340   16.3890 C.3      12 GLL5        0.0000 
     23 CA          2.4780  -16.8660   16.9060 C.3       8 GLP5        0.0000 
     24 CA         -0.5350  -11.1460   15.8395 C.3       4 GLC5        0.0000 
     25 CA          1.0580  -10.5690   16.5140 C.3      12 GLL5        0.0000 
     26 N           2.4875  -11.3320   18.9470 N.am      2 SEC2        0.0000 
     27 N           2.3780   -9.8000   18.3320 N.am     10 SEL2        0.0000 
     28 N           2.5970  -12.8640   19.5620 N.am      6 SEP2        0.0000 
     29 N           4.8395   -6.3940   16.1440 N.am      2 SEC2        0.0000 
     30 N           4.8440   -7.7870   16.7910 N.am     10 SEL2        0.0000 
     31 N           4.8350   -5.0010   15.4970 N.am      6 SEP2        0.0000 
     32 CA          4.6435  -13.5915   21.9520 C.3       4 GLC5        0.0000 
     33 CA          5.8590  -11.8260   21.7850 C.3      12 GLL5        0.0000 
     34 CA          3.4280  -15.3570   22.1190 C.3       8 GLP5        0.0000 
     35 O           7.4635  -13.6605   21.1480 O.2       1 ALC1        0.0000 
     36 O           6.7120  -12.8200   21.9870 O.2       9 ALL1        0.0000 
     37 O           8.2150  -14.5010   20.3090 O.2       5 ALP1        0.0000 
     38 O           6.6675  -13.5420   23.3310 O.2       1 ALC1        0.0000 
     39 O           6.6230  -14.2640   24.6750 O.2       5 ALP1        0.0000 
     40 N           5.6465  -11.4885   24.1765 N.am      2 SEC2        0.0000 
     41 N           5.2500  -11.1970   22.8500 N.am     10 SEL2        0.0000 
     42 N           6.0430  -11.7800   25.5030 N.am      6 SEP2        0.0000 
     43 CA          5.9855  -10.0715   23.8805 C.3       4 GLC5        0.0000 
     44 CA          4.3630  -10.1620   22.6390 C.3      12 GLL5        0.0000 
     45 CA          7.6080   -9.9810   25.1220 C.3       8 GLP5        0.0000 
     46 CA          4.1415  -11.5445   24.2830 C.3       4 GLC5        0.0000 
     47 CA          3.9200  -12.9270   25.9270 C.3       8 GLP5        0.0000 
     48 CA          0.6280  -10.8165   10.7565 C.3       4 GLC5        0.0000 
     49 CA         -0.5590  -10.9070    8.9320 C.3       8 GLP5        0.0000 
     50 CA          0.4129   -8.0326   16.4601 C.3       4 GLC5        0.0000 
     51 CA         -1.1380   -6.8220   16.2980 C.3       8 GLP5        0.0000 
     52 CA          5.4700   -8.1825   18.5278 C.3       4 GLC5        0.0000 
     53 CA          3.9630   -8.8710   16.9190 C.3      12 GLL5        0.0000 
     54 CA          7.1310   -7.3450   19.4080 C.3       8 GLP5        0.0000 
     55 CA          6.1200   -9.1195   19.9043 C.3       4 GLC5        0.0000 
     56 CA          4.6690  -10.3720   20.3100 C.3      12 GLL5        0.0000 
     57 CA          7.2845  -10.6495   21.7855 C.3       4 GLC5        0.0000 
     58 CA          5.5490  -11.4160   20.4910 C.3      12 GLL5        0.0000 
     59 CA          8.8650   -9.6780   22.4330 C.3       8 GLP5        0.0000 
@<TRIPOS>BOND
@<TRIPOS>SUBSTRUCTURE
     1 ALC1        4 GROUP        1 X    ALC  0     ROOT ALC X 1
     2 SEC2       10 GROUP        1 X    SEC  0     **** SEC X 2
     3 ASC3        1 GROUP        1 X    ASC  0     **** ASC X 3
     4 GLC5        7 GROUP        1 X    GLC  0     **** GLC X 6
     5 ALP1        6 GROUP        1 Y    ALP  0     ROOT ALP Y 8
     6 SEP2       12 GROUP        1 Y    SEP  0     **** SEP Y 9
     7 ASP3        3 GROUP        1 Y    ASP  0     **** ASP Y 10
     8 GLP5        9 GROUP        1 Y    GLP  0     **** GLP Y 13
     9 ALL1        5 GROUP        1 Z    ALL  0     ROOT ALL Z 15
    10 SEL2       11 GROUP        1 Z    SEL  0     **** SEL Z 16
    11 ASL3        2 GROUP        1 Z    ASL  0     **** ASL Z 17
    12 GLL5        8 GROUP        1 Z    GLL  0     **** GLL Z 20
@<TRIPOS>SET

