#    Name: 4m7t_SAM_1_ligand
#    Modification time : Tue Mar 25 11:55:53 2014

@<TRIPOS>MOLECULE
4m7t_SAM_1_ligand
   50    52     1     0     0
SMALL
NO_CHARGES


@<TRIPOS>ATOM
      1 N           3.1670  -11.7420   11.8270 N.4       1 SAM503      0.0000 
      2 CA          2.4390  -10.5360   12.1830 C.3       1 SAM503      0.0000 
      3 C           3.3000   -9.5440   12.9530 C.2       1 SAM503      0.0000 
      4 O           4.4060   -9.8740   13.4010 O.co2     1 SAM503      0.0000 
      5 OXT         2.9080   -8.3850   13.1370 O.co2     1 SAM503      0.0000 
      6 CB          1.1910  -10.9160   12.9790 C.3       1 SAM503      0.0000 
      7 CG          1.4560  -11.9190   14.1300 C.3       1 SAM503      0.0000 
      8 SD          2.3770  -11.4880   15.6590 S.3       1 SAM503      0.0000 
      9 CE          2.2970  -13.1340   16.3890 C.3       1 SAM503      0.0000 
     10 C5'         1.0580  -10.5690   16.5140 C.3       1 SAM503      0.0000 
     11 C4'         1.6250   -9.3460   17.2290 C.3       1 SAM503      0.0000 
     12 O4'         2.3780   -9.8000   18.3320 O.3       1 SAM503      0.0000 
     13 C3'         2.5860   -8.5290   16.3730 C.3       1 SAM503      0.0000 
     14 O3'         2.3170   -7.1620   16.6300 O.3       1 SAM503      0.0000 
     15 C2'         3.9630   -8.8710   16.9190 C.3       1 SAM503      0.0000 
     16 O2'         4.8440   -7.7870   16.7910 O.3       1 SAM503      0.0000 
     17 C1'         3.6550   -9.1690   18.3760 C.3       1 SAM503      0.0000 
     18 N9          4.5510  -10.1720   18.9660 N.pl3     1 SAM503      0.0000 
     19 C8          5.3580  -11.0780   18.3300 C.2       1 SAM503      0.0000 
     20 N7          5.9630  -11.8240   19.2720 N.2       1 SAM503      0.0000 
     21 C5          5.5490  -11.4160   20.4910 C.ar      1 SAM503      0.0000 
     22 C6          5.8590  -11.8260   21.7850 C.ar      1 SAM503      0.0000 
     23 N6          6.7120  -12.8200   21.9870 N.pl3     1 SAM503      0.0000 
     24 N1          5.2500  -11.1970   22.8500 N.ar      1 SAM503      0.0000 
     25 C2          4.3630  -10.1620   22.6390 C.ar      1 SAM503      0.0000 
     26 N3          4.0740   -9.7510   21.3560 N.ar      1 SAM503      0.0000 
     27 C4          4.6690  -10.3720   20.3100 C.ar      1 SAM503      0.0000 
     28 H           2.0908  -10.0366   11.2671 H         1 SAM503      0.0000 
     29 H           0.4469  -11.3568   12.2984 H         1 SAM503      0.0000 
     30 H           0.7428  -10.0065   13.4070 H         1 SAM503      0.0000 
     31 H           2.0210  -12.8209   13.7792 H         1 SAM503      0.0000 
     32 H           0.5047  -12.3316   14.5547 H         1 SAM503      0.0000 
     33 H           0.6604  -11.3055   17.1718 H         1 SAM503      0.0000 
     34 H           0.3953  -10.3312   15.7156 H         1 SAM503      0.0000 
     35 H           0.8213   -8.7158   17.5463 H         1 SAM503      0.0000 
     36 H           2.5070   -8.8143   15.3860 H         1 SAM503      0.0000 
     37 H           4.2853   -9.7674   16.4593 H         1 SAM503      0.0000 
     38 H           3.6229   -8.2860   18.9298 H         1 SAM503      0.0000 
     39 H           5.4632  -11.1553   17.3800 H         1 SAM503      0.0000 
     40 H           6.9208  -13.0335   22.9414 H         1 SAM503      0.0000 
     41 H           7.0696  -13.2665   21.1668 H         1 SAM503      0.0000 
     42 H           3.9153   -9.6950   23.4440 H         1 SAM503      0.0000 
     43 H           3.9568  -11.5416   11.2472 H         1 SAM503      0.0000 
     44 H           3.5105  -12.2206   12.6350 H         1 SAM503      0.0000 
     45 H           2.5920  -12.3886   11.3257 H         1 SAM503      0.0000 
     46 H           2.5811  -13.8415   15.7419 H         1 SAM503      0.0000 
     47 H           2.8902  -13.2142   17.1901 H         1 SAM503      0.0000 
     48 H           1.3703  -13.3638   16.6863 H         1 SAM503      0.0000 
     49 H           3.2068   -6.7592   16.8444 H         1 SAM503      0.0000 
     50 H           5.3896   -7.7968   17.6290 H         1 SAM503      0.0000 
@<TRIPOS>BOND
     1    2    1 1    
     2   43    1 1    
     3   44    1 1    
     4   45    1 1    
     5    3    2 1    
     6    6    2 1    
     7   28    2 1    
     8    4    3 ar   
     9    5    3 ar   
    10    7    6 1    
    11   29    6 1    
    12   30    6 1    
    13    8    7 1    
    14   31    7 1    
    15   32    7 1    
    16    9    8 1    
    17   10    8 1    
    18   46    9 1    
    19   47    9 1    
    20   48    9 1    
    21   11   10 1    
    22   33   10 1    
    23   34   10 1    
    24   12   11 1    
    25   13   11 1    
    26   35   11 1    
    27   17   12 1    
    28   14   13 1    
    29   15   13 1    
    30   36   13 1    
    31   49   14 1    
    32   16   15 1    
    33   17   15 1    
    34   37   15 1    
    35   50   16 1    
    36   18   17 1    
    37   38   17 1    
    38   19   18 1    
    39   27   18 1    
    40   20   19 2    
    41   39   19 1    
    42   21   20 1    
    43   22   21 ar   
    44   27   21 ar   
    45   23   22 1    
    46   24   22 ar   
    47   40   23 1    
    48   41   23 1    
    49   25   24 ar   
    50   26   25 ar   
    51   42   25 1    
    52   27   26 ar   
@<TRIPOS>SUBSTRUCTURE
     1 SAM503      1 GROUP   
@<TRIPOS>SET

