#    Name: 1jhp_5OB_1_INTS_M
#    Modification time : Tue Mar 25 08:55:39 2014

@<TRIPOS>MOLECULE
1jhp_5OB_1_INTS_M
   25     0     6     0     0
SMALL
NO_CHARGES


@<TRIPOS>ATOM
      1 O          55.9780   41.8770   15.2645 O.2       1 ALC1        0.0000 
      2 O          56.7140   41.9650   14.3000 O.2       5 ALL1        0.0000 
      3 O          55.2420   41.7890   16.2290 O.2       3 ALP1        0.0000 
      4 CA         55.9155   43.3420   13.5690 C.3       2 GLC5        0.0000 
      5 CA         57.8640   42.6370   13.9010 C.3       6 GLL5        0.0000 
      6 CA         53.9670   44.0470   13.2370 C.3       4 GLP5        0.0000 
      7 CA         61.0905   41.7720   12.0970 C.3       2 GLC5        0.0000 
      8 CA         60.0940   43.6370   12.5670 C.3       6 GLL5        0.0000 
      9 CA         62.0870   39.9070   11.6270 C.3       4 GLP5        0.0000 
     10 CA         58.9745   43.0815    9.7830 C.3       2 GLC5        0.0000 
     11 CA         59.2790   42.6910   11.9660 C.3       6 GLL5        0.0000 
     12 CA         58.6700   43.4720    7.6000 C.3       4 GLP5        0.0000 
     13 CA         61.2375   43.4145   15.3740 C.3       2 GLC5        0.0000 
     14 CA         59.9190   45.0480   15.8860 C.3       6 GLL5        0.0000 
     15 CA         62.5560   41.7810   14.8620 C.3       4 GLP5        0.0000 
     16 CA         59.6880   43.3750   16.6995 C.3       2 GLC5        0.0000 
     17 CA         59.4570   41.7020   17.5130 C.3       4 GLP5        0.0000 
     18 CA         59.7688   40.7835   12.4767 C.3       2 GLC5        0.0000 
     19 CA         58.1580   42.2030   12.6270 C.3       6 GLL5        0.0000 
     20 CA         60.8190   39.1200   12.6570 C.3       4 GLP5        0.0000 
     21 CA         60.8978   42.8002   14.5322 C.3       2 GLC5        0.0000 
     22 CA         58.6840   43.5690   14.5350 C.3       6 GLL5        0.0000 
     23 CA         59.2458   42.6442   15.7785 C.3       2 GLC5        0.0000 
     24 CA         59.7950   44.0700   13.8700 C.3       6 GLL5        0.0000 
     25 CA         61.1213   42.4725   13.5643 C.3       2 GLC5        0.0000 
@<TRIPOS>BOND
@<TRIPOS>SUBSTRUCTURE
     1 ALC1        1 GROUP        1 X    ALC  0     ROOT ALC X 1
     2 GLC5        4 GROUP        1 X    GLC  0     **** GLC X 6
     3 ALP1        3 GROUP        1 Y    ALP  0     ROOT ALP Y 8
     4 GLP5        6 GROUP        1 Y    GLP  0     **** GLP Y 13
     5 ALL1        2 GROUP        1 Z    ALL  0     ROOT ALL Z 15
     6 GLL5        5 GROUP        1 Z    GLL  0     **** GLL Z 20
@<TRIPOS>SET

