#    Name: 1jhp_5OB_1_ligand
#    Modification time : Tue Mar 25 08:55:39 2014

@<TRIPOS>MOLECULE
1jhp_5OB_1_ligand
   19    20     1     0     0
SMALL
NO_CHARGES


@<TRIPOS>ATOM
      1 N3         56.7140   41.9650   14.3000 N.pl3     1 5OB990      0.0000 
      2 N1         57.1840   41.2770   12.2080 N.2       1 5OB990      0.0000 
      3 C2         56.3550   41.1740   13.2730 C.2       1 5OB990      0.0000 
      4 C7A        58.1580   42.2030   12.6270 C.ar      1 5OB990      0.0000 
      5 C3A        57.8640   42.6370   13.9010 C.ar      1 5OB990      0.0000 
      6 C4         58.6840   43.5690   14.5350 C.ar      1 5OB990      0.0000 
      7 C5         59.7950   44.0700   13.8700 C.ar      1 5OB990      0.0000 
      8 C6         60.0940   43.6370   12.5670 C.ar      1 5OB990      0.0000 
      9 C7         59.2790   42.6910   11.9660 C.ar      1 5OB990      0.0000 
     10 O10        60.4820   44.9670   14.5990 O.3       1 5OB990      0.0000 
     11 C11        59.9190   45.0480   15.8860 C.3       1 5OB990      0.0000 
     12 H          56.2866   42.0641   15.1394 H         1 5OB990      0.0000 
     13 H          55.5613   40.5725   13.2901 H         1 5OB990      0.0000 
     14 H          58.4658   43.8812   15.4870 H         1 5OB990      0.0000 
     15 H          60.9034   44.0199   12.0768 H         1 5OB990      0.0000 
     16 H          59.5048   42.3447   11.0195 H         1 5OB990      0.0000 
     17 H          59.9478   44.1680   16.3600 H         1 5OB990      0.0000 
     18 H          60.4024   45.7071   16.4620 H         1 5OB990      0.0000 
     19 H          58.9610   45.3330   15.8550 H         1 5OB990      0.0000 
@<TRIPOS>BOND
     1    3    1 1    
     2    5    1 1    
     3   12    1 1    
     4    3    2 2    
     5    4    2 1    
     6   13    3 1    
     7    5    4 ar   
     8    9    4 ar   
     9    6    5 ar   
    10    7    6 ar   
    11   14    6 1    
    12    8    7 ar   
    13   10    7 1    
    14    9    8 ar   
    15   15    8 1    
    16   16    9 1    
    17   11   10 1    
    18   17   11 1    
    19   18   11 1    
    20   19   11 1    
@<TRIPOS>SUBSTRUCTURE
     1 5OB990      1 GROUP   
@<TRIPOS>SET

