#    Name: 3in1_ADP_1_INTS_M
#    Modification time : Tue Mar 25 16:46:03 2014

@<TRIPOS>MOLECULE
3in1_ADP_1_INTS_M
   40     0     9     0     0
SMALL
NO_CHARGES


@<TRIPOS>ATOM
      1 N          61.7520   71.2720   15.0525 N.am      2 SEC2        0.0000 
      2 N          61.6700   71.5290   13.5860 N.am      8 SEL2        0.0000 
      3 N          61.8340   71.0150   16.5190 N.am      5 SEP2        0.0000 
      4 N          58.6835   70.6420    9.4275 N.am      2 SEC2        0.0000 
      5 N          60.0470   69.9680    9.6820 N.am      8 SEL2        0.0000 
      6 N          57.3200   71.3160    9.1730 N.am      5 SEP2        0.0000 
      7 CA         59.5465   66.4160    9.7750 C.3       3 GLC5        0.0000 
      8 CA         58.8260   67.3900   11.3180 C.3       9 GLL5        0.0000 
      9 CA         60.2670   65.4420    8.2320 C.3       6 GLP5        0.0000 
     10 CA         60.3775   65.9540   11.4530 C.3       3 GLC5        0.0000 
     11 CA         61.9290   64.5180   11.5880 C.3       6 GLP5        0.0000 
     12 CA         56.7955   65.4770   12.4665 C.3       3 GLC5        0.0000 
     13 CA         57.3860   66.9740   11.4850 C.3       9 GLL5        0.0000 
     14 CA         56.2050   63.9800   13.4480 C.3       6 GLP5        0.0000 
     15 CA         56.6755   69.6750   10.6640 C.3       3 GLC5        0.0000 
     16 CA         56.3540   67.8410   10.7530 C.3       9 GLL5        0.0000 
     17 CA         56.9970   71.5090   10.5750 C.3       6 GLP5        0.0000 
     18 O          55.6285   68.1865    8.4225 O.2       1 ALC1        0.0000 
     19 O          56.2490   67.5350    9.3560 O.2       7 ALL1        0.0000 
     20 O          55.0080   68.8380    7.4890 O.2       4 ALP1        0.0000 
     21 N          53.7225   66.0755   10.2010 N.am      2 SEC2        0.0000 
     22 N          54.4420   66.3430   11.2900 N.am      8 SEL2        0.0000 
     23 N          53.0030   65.8080    9.1120 N.am      5 SEP2        0.0000 
     24 CA         54.3490   71.8915   13.3340 C.3       3 GLC5        0.0000 
     25 CA         54.8380   70.5590   14.8390 C.3       9 GLL5        0.0000 
     26 CA         53.8600   73.2240   11.8290 C.3       6 GLP5        0.0000 
     27 CA         52.9700   72.9890   14.7440 C.3       3 GLC5        0.0000 
     28 CA         53.8870   71.3630   15.4650 C.3       9 GLL5        0.0000 
     29 CA         52.0530   74.6150   14.0230 C.3       6 GLP5        0.0000 
     30 CA         51.6445   69.6775   13.0450 C.3       3 GLC5        0.0000 
     31 CA         52.2720   69.7150   14.8100 C.3       9 GLL5        0.0000 
     32 CA         51.0170   69.6400   11.2800 C.3       6 GLP5        0.0000 
     33 CA         51.3195   69.6700   16.6410 C.3       3 GLC5        0.0000 
     34 CA         50.3670   69.6250   18.4720 C.3       6 GLP5        0.0000 
     35 CA         59.0885   66.9235   13.2218 C.3       3 GLC5        0.0000 
     36 CA         60.0710   66.6650   15.0420 C.3       6 GLP5        0.0000 
     37 CA         56.6235   65.6078   10.0855 C.3       3 GLC5        0.0000 
     38 CA         56.3770   63.8080    9.0520 C.3       6 GLP5        0.0000 
     39 CA         55.8105   65.7558   12.9062 C.3       3 GLC5        0.0000 
     40 CA         55.1040   67.5650   11.6470 C.3       9 GLL5        0.0000 
@<TRIPOS>BOND
@<TRIPOS>SUBSTRUCTURE
     1 ALC1       18 GROUP        1 X    ALC  0     ROOT ALC X 1
     2 SEC2        1 GROUP        1 X    SEC  0     **** SEC X 2
     3 GLC5        7 GROUP        1 X    GLC  0     **** GLC X 6
     4 ALP1       20 GROUP        1 Y    ALP  0     ROOT ALP Y 8
     5 SEP2        3 GROUP        1 Y    SEP  0     **** SEP Y 9
     6 GLP5        9 GROUP        1 Y    GLP  0     **** GLP Y 13
     7 ALL1       19 GROUP        1 Z    ALL  0     ROOT ALL Z 15
     8 SEL2        2 GROUP        1 Z    SEL  0     **** SEL Z 16
     9 GLL5        8 GROUP        1 Z    GLL  0     **** GLL Z 20
@<TRIPOS>SET

