#    Name: 3in1_ADP_1_ligand
#    Modification time : Tue Mar 25 16:46:03 2014

@<TRIPOS>MOLECULE
3in1_ADP_1_ligand
   39    41     1     0     0
SMALL
NO_CHARGES


@<TRIPOS>ATOM
      1 PB         60.7080   72.1440   12.6320 P.3       1 ADP510      0.0000 
      2 O1B        61.4360   72.8740   11.5690 O.co2     1 ADP510      0.0000 
      3 O2B        61.6700   71.5290   13.5860 O.co2     1 ADP510      0.0000 
      4 O3B        59.6070   73.0590   13.3520 O.co2     1 ADP510      0.0000 
      5 PA         60.1470   69.7310   11.1310 P.3       1 ADP510      0.0000 
      6 O1A        60.0470   69.9680    9.6820 O.co2     1 ADP510      0.0000 
      7 O2A        61.5480   69.2830   11.4160 O.co2     1 ADP510      0.0000 
      8 O3A        59.7720   71.0050   12.0160 O.3       1 ADP510      0.0000 
      9 O5'        58.9670   68.7460   11.7860 O.3       1 ADP510      0.0000 
     10 C5'        58.8260   67.3900   11.3180 C.3       1 ADP510      0.0000 
     11 C4'        57.3860   66.9740   11.4850 C.3       1 ADP510      0.0000 
     12 O4'        57.0620   67.1540   12.8760 O.3       1 ADP510      0.0000 
     13 C3'        56.3540   67.8410   10.7530 C.3       1 ADP510      0.0000 
     14 O3'        56.2490   67.5350    9.3560 O.3       1 ADP510      0.0000 
     15 C2'        55.1040   67.5650   11.6470 C.3       1 ADP510      0.0000 
     16 O2'        54.4420   66.3430   11.2900 O.3       1 ADP510      0.0000 
     17 C1'        55.7280   67.4980   13.0820 C.3       1 ADP510      0.0000 
     18 N9         55.5580   68.8000   13.7180 N.pl3     1 ADP510      0.0000 
     19 C8         56.5200   69.7090   14.0680 C.2       1 ADP510      0.0000 
     20 N7         56.1370   70.7470   14.7220 N.2       1 ADP510      0.0000 
     21 C5         54.8380   70.5590   14.8390 C.ar      1 ADP510      0.0000 
     22 C6         53.8870   71.3630   15.4650 C.ar      1 ADP510      0.0000 
     23 N6         54.1530   72.5180   16.0770 N.pl3     1 ADP510      0.0000 
     24 N1         52.5810   70.9250   15.4430 N.ar      1 ADP510      0.0000 
     25 C2         52.2720   69.7150   14.8100 C.ar      1 ADP510      0.0000 
     26 N3         53.1120   68.8880   14.1910 N.ar      1 ADP510      0.0000 
     27 C4         54.4020   69.3750   14.2420 C.ar      1 ADP510      0.0000 
     28 H          59.4541   66.7059   11.8909 H         1 ADP510      0.0000 
     29 H          59.0922   67.3054   10.2631 H         1 ADP510      0.0000 
     30 H          57.2491   65.9580   11.2107 H         1 ADP510      0.0000 
     31 H          56.6416   68.8696   10.9582 H         1 ADP510      0.0000 
     32 H          54.4910   68.4281   11.6108 H         1 ADP510      0.0000 
     33 H          55.1822   66.7367   13.6009 H         1 ADP510      0.0000 
     34 H          57.4998   69.5312   13.7990 H         1 ADP510      0.0000 
     35 H          55.1066   72.8182   16.0549 H         1 ADP510      0.0000 
     36 H          53.3749   72.9798   16.5028 H         1 ADP510      0.0000 
     37 H          51.2183   69.4418   14.8415 H         1 ADP510      0.0000 
     38 H          55.6995   68.2758    8.9695 H         1 ADP510      0.0000 
     39 H          55.1713   65.6612   11.2316 H         1 ADP510      0.0000 
@<TRIPOS>BOND
     1    2    1 ar   
     2    3    1 ar   
     3    4    1 ar   
     4    8    1 1    
     5    6    5 ar   
     6    7    5 ar   
     7    8    5 1    
     8    9    5 1    
     9   10    9 1    
    10   11   10 1    
    11   28   10 1    
    12   29   10 1    
    13   12   11 1    
    14   13   11 1    
    15   30   11 1    
    16   17   12 1    
    17   14   13 1    
    18   15   13 1    
    19   31   13 1    
    20   38   14 1    
    21   16   15 1    
    22   17   15 1    
    23   32   15 1    
    24   39   16 1    
    25   18   17 1    
    26   33   17 1    
    27   19   18 1    
    28   27   18 1    
    29   20   19 2    
    30   34   19 1    
    31   21   20 1    
    32   22   21 ar   
    33   27   21 ar   
    34   23   22 1    
    35   24   22 ar   
    36   35   23 1    
    37   36   23 1    
    38   25   24 ar   
    39   26   25 ar   
    40   37   25 1    
    41   27   26 ar   
@<TRIPOS>SUBSTRUCTURE
     1 ADP510      1 GROUP   
@<TRIPOS>SET

