#    Name: 3t1k_ANP_1_INTS_M
#    Modification time : Mon Mar 24 19:01:54 2014

@<TRIPOS>MOLECULE
3t1k_ANP_1_INTS_M
   44     0    12     0     0
SMALL
NO_CHARGES


@<TRIPOS>ATOM
      1 Zn        -31.3620   16.4935  -26.8440 Zn        3 ZIC7        0.0000 
      2 Zn        -31.8820   17.3540  -26.7020 Zn       11 ZIL7        0.0000 
      3 Zn        -30.8420   15.6330  -26.9860 Zn        7 ZIP7        0.0000 
      4 N         -34.3930   18.0780  -27.3615 N.am      2 SEC2        0.0000 
      5 N         -33.7210   18.8050  -25.9720 N.am     10 SEL2        0.0000 
      6 N         -35.0650   17.3510  -28.7510 N.am      6 SEP2        0.0000 
      7 Zn        -31.0890   15.3580  -26.0285 Zn        3 ZIC7        0.0000 
      8 Zn        -31.3360   15.0830  -25.0710 Zn       11 ZIL7        0.0000 
      9 Zn        -31.6915   15.0760  -27.2985 Zn        3 ZIC7        0.0000 
     10 Zn        -32.5410   14.5190  -27.6110 Zn       11 ZIL7        0.0000 
     11 N         -31.5585   13.6810  -28.3295 N.am      2 SEC2        0.0000 
     12 N         -32.5410   14.5190  -27.6110 N.am     10 SEL2        0.0000 
     13 N         -30.5760   12.8430  -29.0480 N.am      6 SEP2        0.0000 
     14 N         -34.6790   14.6450  -28.7910 N.am      2 SEC2        0.0000 
     15 N         -35.0830   14.2870  -27.4110 N.am     10 SEL2        0.0000 
     16 N         -34.2750   15.0030  -30.1710 N.am      6 SEP2        0.0000 
     17 CA        -34.8225    9.6160  -23.6845 C.3       4 GLC5        0.0000 
     18 CA        -33.8010   11.0680  -24.5520 C.3      12 GLL5        0.0000 
     19 CA        -35.8440    8.1640  -22.8170 C.3       8 GLP5        0.0000 
     20 CA        -32.3185    7.4075  -25.0305 C.3       4 GLC5        0.0000 
     21 CA        -32.2770    9.2860  -24.7550 C.3      12 GLL5        0.0000 
     22 CA        -32.3600    5.5290  -25.3060 C.3       8 GLP5        0.0000 
     23 CA        -34.0605    8.7250  -23.7860 C.3       4 GLC5        0.0000 
     24 CA        -26.5825    8.2940  -25.7285 C.3       4 GLC5        0.0000 
     25 CA        -28.0830    8.0770  -27.0580 C.3      12 GLL5        0.0000 
     26 CA        -25.0820    8.5110  -24.3990 C.3       8 GLP5        0.0000 
     27 CA        -27.6420    6.3200  -27.8805 C.3       4 GLC5        0.0000 
     28 CA        -27.2010    4.5630  -28.7030 C.3       8 GLP5        0.0000 
     29 O         -25.9580    7.8275  -28.5275 O.2       1 ALC1        0.0000 
     30 O         -27.3210    8.2510  -28.1610 O.2       9 ALL1        0.0000 
     31 O         -24.5950    7.4040  -28.8940 O.2       5 ALP1        0.0000 
     32 O         -27.3390    9.0190  -29.5310 O.2       1 ALC1        0.0000 
     33 O         -27.3570    9.7870  -30.9010 O.2       5 ALP1        0.0000 
     34 CA        -26.7415    7.8415  -24.6440 C.3       4 GLC5        0.0000 
     35 CA        -28.4010    7.1720  -24.8890 C.3      12 GLL5        0.0000 
     36 CA        -29.8740    5.9385  -24.4805 C.3       4 GLC5        0.0000 
     37 CA        -31.3470    4.7050  -24.0720 C.3       8 GLP5        0.0000 
     38 CA        -34.7845   10.2665  -26.5590 C.3       4 GLC5        0.0000 
     39 CA        -35.4560    8.9390  -28.1310 C.3       8 GLP5        0.0000 
     40 CA        -28.5625   10.3320  -27.6022 C.3       4 GLC5        0.0000 
     41 CA        -29.3810    8.7230  -26.9270 C.3      12 GLL5        0.0000 
     42 CA        -28.3930   12.2640  -28.2120 C.3       8 GLP5        0.0000 
     43 CA        -30.4160    6.8187  -26.5586 C.3       4 GLC5        0.0000 
     44 CA        -31.4120    5.1670  -26.7790 C.3       8 GLP5        0.0000 
@<TRIPOS>BOND
@<TRIPOS>SUBSTRUCTURE
     1 ALC1       29 GROUP        1 X    ALC  0     ROOT ALC X 1
     2 SEC2        4 GROUP        1 X    SEC  0     **** SEC X 2
     3 ZIC7        1 GROUP        1 X    ZIC  0     **** ZIC X 5
     4 GLC5       17 GROUP        1 X    GLC  0     **** GLC X 6
     5 ALP1       31 GROUP        1 Y    ALP  0     ROOT ALP Y 8
     6 SEP2        6 GROUP        1 Y    SEP  0     **** SEP Y 9
     7 ZIP7        3 GROUP        1 Y    ZIP  0     **** ZIP Y 12
     8 GLP5       19 GROUP        1 Y    GLP  0     **** GLP Y 13
     9 ALL1       30 GROUP        1 Z    ALL  0     ROOT ALL Z 15
    10 SEL2        5 GROUP        1 Z    SEL  0     **** SEL Z 16
    11 ZIL7        2 GROUP        1 Z    ZIL  0     **** ZIL Z 19
    12 GLL5       18 GROUP        1 Z    GLL  0     **** GLL Z 20
@<TRIPOS>SET

