#    Name: 3t1k_ANP_1_ligand
#    Modification time : Mon Mar 24 19:01:54 2014

@<TRIPOS>MOLECULE
3t1k_ANP_1_ligand
   43    45     1     0     0
SMALL
NO_CHARGES


@<TRIPOS>ATOM
      1 PG        -32.3940   18.1620  -25.5780 P.3       1 ANP301      0.0000 
      2 O1G       -31.4250   19.1770  -25.0280 O.co2     1 ANP301      0.0000 
      3 O2G       -31.8820   17.3540  -26.7020 O.co2     1 ANP301      0.0000 
      4 O3G       -33.7210   18.8050  -25.9720 O.co2     1 ANP301      0.0000 
      5 PB        -32.6170   15.4510  -24.4410 P.3       1 ANP301      0.0000 
      6 O1B       -31.3360   15.0830  -25.0710 O.co2     1 ANP301      0.0000 
      7 O2B       -32.9270   14.9120  -23.0280 O.co2     1 ANP301      0.0000 
      8 N3B       -32.7830   17.1340  -24.2320 N.4       1 ANP301      0.0000 
      9 PA        -33.7330   14.1710  -26.8200 P.3       1 ANP301      0.0000 
     10 O1A       -32.5410   14.5190  -27.6110 O.co2     1 ANP301      0.0000 
     11 O2A       -35.0830   14.2870  -27.4110 O.co2     1 ANP301      0.0000 
     12 O3A       -33.8030   15.0030  -25.4480 O.3       1 ANP301      0.0000 
     13 O5'       -33.4750   12.6850  -26.3190 O.3       1 ANP301      0.0000 
     14 C5'       -34.4250   12.1200  -25.4220 C.3       1 ANP301      0.0000 
     15 C4'       -33.8010   11.0680  -24.5520 C.3       1 ANP301      0.0000 
     16 O4'       -33.4260    9.9040  -25.3160 O.3       1 ANP301      0.0000 
     17 C3'       -32.5060   11.4860  -23.8700 C.3       1 ANP301      0.0000 
     18 O3'       -32.7040   12.2820  -22.6960 O.3       1 ANP301      0.0000 
     19 C2'       -31.8480   10.1530  -23.5670 C.3       1 ANP301      0.0000 
     20 O2'       -32.3610    9.6270  -22.3260 O.3       1 ANP301      0.0000 
     21 C1'       -32.2770    9.2860  -24.7550 C.3       1 ANP301      0.0000 
     22 N9        -31.2420    9.2300  -25.7980 N.pl3     1 ANP301      0.0000 
     23 C8        -31.2680    9.8400  -27.0150 C.2       1 ANP301      0.0000 
     24 N7        -30.1640    9.5250  -27.7090 N.2       1 ANP301      0.0000 
     25 C5        -29.3810    8.7230  -26.9270 C.ar      1 ANP301      0.0000 
     26 C6        -28.0830    8.0770  -27.0580 C.ar      1 ANP301      0.0000 
     27 N6        -27.3210    8.2510  -28.1610 N.pl3     1 ANP301      0.0000 
     28 N1        -27.6680    7.3350  -26.0160 N.ar      1 ANP301      0.0000 
     29 C2        -28.4010    7.1720  -24.8890 C.ar      1 ANP301      0.0000 
     30 N3        -29.6080    7.7360  -24.6950 N.ar      1 ANP301      0.0000 
     31 C4        -30.1080    8.5410  -25.6840 C.ar      1 ANP301      0.0000 
     32 H         -35.2684   11.6583  -25.9697 H         1 ANP301      0.0000 
     33 H         -34.8655   12.8936  -24.7649 H         1 ANP301      0.0000 
     34 H         -34.4957   10.7681  -23.7721 H         1 ANP301      0.0000 
     35 H         -31.8974   11.9770  -24.6155 H         1 ANP301      0.0000 
     36 H         -30.8083   10.2708  -23.5881 H         1 ANP301      0.0000 
     37 H         -32.5061    8.3084  -24.3949 H         1 ANP301      0.0000 
     38 H         -31.9883   10.4186  -27.3258 H         1 ANP301      0.0000 
     39 H         -27.7101    8.8296  -28.8778 H         1 ANP301      0.0000 
     40 H         -26.4359    7.7857  -28.1622 H         1 ANP301      0.0000 
     41 H         -27.9963    6.5616  -24.1130 H         1 ANP301      0.0000 
     42 H         -32.7956   13.2196  -23.0316 H         1 ANP301      0.0000 
     43 H         -31.9876   10.2256  -21.6173 H         1 ANP301      0.0000 
@<TRIPOS>BOND
     1    2    1 ar   
     2    3    1 ar   
     3    4    1 ar   
     4    8    1 1    
     5    6    5 ar   
     6    7    5 ar   
     7    8    5 1    
     8   12    5 1    
     9   10    9 ar   
    10   11    9 ar   
    11   12    9 1    
    12   13    9 1    
    13   14   13 1    
    14   15   14 1    
    15   32   14 1    
    16   33   14 1    
    17   16   15 1    
    18   17   15 1    
    19   34   15 1    
    20   21   16 1    
    21   18   17 1    
    22   19   17 1    
    23   35   17 1    
    24   42   18 1    
    25   20   19 1    
    26   21   19 1    
    27   36   19 1    
    28   43   20 1    
    29   22   21 1    
    30   37   21 1    
    31   23   22 1    
    32   31   22 1    
    33   24   23 2    
    34   38   23 1    
    35   25   24 1    
    36   26   25 ar   
    37   31   25 ar   
    38   27   26 1    
    39   28   26 ar   
    40   39   27 1    
    41   40   27 1    
    42   29   28 ar   
    43   30   29 ar   
    44   41   29 1    
    45   31   30 ar   
@<TRIPOS>SUBSTRUCTURE
     1 ANP301      1 GROUP   
@<TRIPOS>SET

