#    Name: 1p0h_COA_1_INTS_M
#    Modification time : Mon Mar 24 20:55:43 2014

@<TRIPOS>MOLECULE
1p0h_COA_1_INTS_M
   86     0     9     0     0
SMALL
NO_CHARGES


@<TRIPOS>ATOM
      1 CA          9.9460   26.1330   18.1850 C.3       3 GLC5        0.0000 
      2 CA          8.0300   26.4490   18.0880 C.3       9 GLL5        0.0000 
      3 CA         11.8620   25.8170   18.2820 C.3       6 GLP5        0.0000 
      4 N           8.7400   26.9690   19.9440 N.am      2 SEC2        0.0000 
      5 N           7.9600   25.8980   19.3050 N.am      8 SEL2        0.0000 
      6 N           9.5200   28.0400   20.5830 N.am      5 SEP2        0.0000 
      7 CA          4.0820   24.6025   18.9575 C.3       3 GLC5        0.0000 
      8 CA          6.0690   24.5530   18.4230 C.3       9 GLL5        0.0000 
      9 CA          2.0950   24.6520   19.4920 C.3       6 GLP5        0.0000 
     10 CA          4.1445   25.4895   17.7745 C.3       3 GLC5        0.0000 
     11 CA          6.2220   25.2080   17.1630 C.3       9 GLL5        0.0000 
     12 CA          2.0670   25.7710   18.3860 C.3       6 GLP5        0.0000 
     13 CA          8.3730   23.1480   20.4105 C.3       3 GLC5        0.0000 
     14 CA          7.1720   24.1820   21.8080 C.3       9 GLL5        0.0000 
     15 CA          9.5740   22.1140   19.0130 C.3       6 GLP5        0.0000 
     16 CA          9.0000   25.0380   21.8600 C.3       3 GLC5        0.0000 
     17 CA         10.8280   25.8940   21.9120 C.3       6 GLP5        0.0000 
     18 CA          8.7775   21.2630   24.1890 C.3       3 GLC5        0.0000 
     19 CA          7.4160   22.7280   23.6600 C.3       9 GLL5        0.0000 
     20 CA         10.1390   19.7980   24.7180 C.3       6 GLP5        0.0000 
     21 CA          7.9625   20.1585   23.9465 C.3       3 GLC5        0.0000 
     22 CA          6.4910   21.5880   24.0520 C.3       9 GLL5        0.0000 
     23 CA          9.4340   18.7290   23.8410 C.3       6 GLP5        0.0000 
     24 N           4.5650   18.8610   25.4575 N.am      2 SEC2        0.0000 
     25 N           4.1490   20.2340   25.1130 N.am      8 SEL2        0.0000 
     26 N           4.9810   17.4880   25.8020 N.am      5 SEP2        0.0000 
     27 N           1.5970   21.4780   24.4470 N.am      2 SEC2        0.0000 
     28 N           2.7160   21.6200   23.5710 N.am      8 SEL2        0.0000 
     29 N           0.4780   21.3360   25.3230 N.am      5 SEP2        0.0000 
     30 N           3.5830   18.4795   23.3605 N.am      2 SEC2        0.0000 
     31 N           4.3320   19.8510   22.6690 N.am      8 SEL2        0.0000 
     32 N           2.8340   17.1080   24.0520 N.am      5 SEP2        0.0000 
     33 N           2.5150   17.9310   22.9495 N.am      2 SEC2        0.0000 
     34 N           2.1960   18.7540   21.8470 N.am      8 SEL2        0.0000 
     35 N           2.0405   21.3825   20.5405 N.am      2 SEC2        0.0000 
     36 N           3.2980   20.6170   20.4700 N.am      8 SEL2        0.0000 
     37 N           0.7830   22.1480   20.6110 N.am      5 SEP2        0.0000 
     38 CA          4.9325   17.5425   22.1140 C.3       3 GLC5        0.0000 
     39 CA          5.7410   18.5690   20.4720 C.3       9 GLL5        0.0000 
     40 CA          4.1240   16.5160   23.7560 C.3       6 GLP5        0.0000 
     41 CA          7.9775   19.7050   18.6485 C.3       3 GLC5        0.0000 
     42 CA          7.6700   17.7430   19.0240 C.3       9 GLL5        0.0000 
     43 CA          8.2850   21.6670   18.2730 C.3       6 GLP5        0.0000 
     44 CA          9.3990   18.2630   19.4850 C.3       3 GLC5        0.0000 
     45 CA         11.1280   18.7830   19.9460 C.3       6 GLP5        0.0000 
     46 CA          6.8350   15.1760   20.8700 C.3       3 GLC5        0.0000 
     47 CA          5.8110   16.1950   19.7200 C.3       9 GLL5        0.0000 
     48 CA          7.8590   14.1570   22.0200 C.3       6 GLP5        0.0000 
     49 CA          5.0795   14.3530   18.7440 C.3       3 GLC5        0.0000 
     50 CA          4.3480   12.5110   17.7680 C.3       6 GLP5        0.0000 
     51 CA          3.9580   15.7745   20.2430 C.3       3 GLC5        0.0000 
     52 CA          2.1050   15.3540   20.7660 C.3       6 GLP5        0.0000 
     53 CA          4.9675   16.3555   21.7380 C.3       3 GLC5        0.0000 
     54 CA          3.3200   18.6625   17.7365 C.3       3 GLC5        0.0000 
     55 CA          5.3040   18.0170   18.0310 C.3       9 GLL5        0.0000 
     56 CA          1.3360   19.3080   17.4420 C.3       6 GLP5        0.0000 
     57 N           3.7740   15.0930   17.4120 N.am      2 SEC2        0.0000 
     58 N           4.8800   15.9830   16.7930 N.am      8 SEL2        0.0000 
     59 N           2.6680   14.2030   18.0310 N.am      5 SEP2        0.0000 
     60 N           3.7665   17.1875   16.2330 N.am      2 SEC2        0.0000 
     61 N           2.6530   18.3920   15.6730 N.am      5 SEP2        0.0000 
     62 CA          7.7150   13.4675   14.8345 C.3       3 GLC5        0.0000 
     63 CA          7.2090   15.1120   15.0890 C.3       9 GLL5        0.0000 
     64 CA          8.2210   11.8230   14.5800 C.3       6 GLP5        0.0000 
     65 N          10.5855   16.5845   15.2080 N.am      2 SEC2        0.0000 
     66 N           9.5450   15.7090   15.0060 N.am      8 SEL2        0.0000 
     67 N          11.6260   17.4600   15.4100 N.am      5 SEP2        0.0000 
     68 O           7.9575   13.3825   17.2985 O.2       1 ALC1        0.0000 
     69 O           8.8400   14.4050   16.7480 O.2       7 ALL1        0.0000 
     70 O           7.0750   12.3600   17.8490 O.2       4 ALP1        0.0000 
     71 CA         10.8790   15.8525   18.1670 C.3       3 GLC5        0.0000 
     72 CA         10.2070   14.0690   17.3530 C.3       9 GLL5        0.0000 
     73 CA         11.5510   17.6360   18.9810 C.3       6 GLP5        0.0000 
     74 CA          9.4190   11.5575   16.0495 C.3       3 GLC5        0.0000 
     75 CA         10.6170   11.2920   17.5190 C.3       9 GLL5        0.0000 
     76 CA          9.8555    9.6575   17.9340 C.3       3 GLC5        0.0000 
     77 CA          9.0940    8.0230   18.3490 C.3       6 GLP5        0.0000 
     78 CA          8.9060   11.1415   18.6660 C.3       3 GLC5        0.0000 
     79 CA          7.1950   10.9910   19.8130 C.3       6 GLP5        0.0000 
     80 CA          7.3268   23.3215   18.1638 C.3       3 GLC5        0.0000 
     81 CA          9.2340   23.5565   23.4627 C.3       3 GLC5        0.0000 
     82 CA         11.2580   23.6900   23.0150 C.3       6 GLP5        0.0000 
     83 CA          5.0075   14.9207   14.5068 C.3       3 GLC5        0.0000 
     84 CA          6.6590   16.5510   14.8120 C.3       9 GLL5        0.0000 
     85 CA          3.0810   14.0100   14.0630 C.3       6 GLP5        0.0000 
     86 CA          9.3783   12.6455   15.7912 C.3       3 GLC5        0.0000 
@<TRIPOS>BOND
@<TRIPOS>SUBSTRUCTURE
     1 ALC1       68 GROUP        1 X    ALC  0     ROOT ALC X 1
     2 SEC2        4 GROUP        1 X    SEC  0     **** SEC X 2
     3 GLC5        1 GROUP        1 X    GLC  0     **** GLC X 6
     4 ALP1       70 GROUP        1 Y    ALP  0     ROOT ALP Y 8
     5 SEP2        6 GROUP        1 Y    SEP  0     **** SEP Y 9
     6 GLP5        3 GROUP        1 Y    GLP  0     **** GLP Y 13
     7 ALL1       69 GROUP        1 Z    ALL  0     ROOT ALL Z 15
     8 SEL2        5 GROUP        1 Z    SEL  0     **** SEL Z 16
     9 GLL5        2 GROUP        1 Z    GLL  0     **** GLL Z 20
@<TRIPOS>SET

