#    Name: 1p0h_COA_1_ligand
#    Modification time : Mon Mar 24 20:55:43 2014

@<TRIPOS>MOLECULE
1p0h_COA_1_ligand
   79    81     1     0     0
SMALL
NO_CHARGES


@<TRIPOS>ATOM
      1 N1A         7.2140   26.1510   17.0120 N.ar      1 COA601      0.0000 
      2 C2A         8.0300   26.4490   18.0880 C.ar      1 COA601      0.0000 
      3 N3A         7.9600   25.8980   19.3050 N.ar      1 COA601      0.0000 
      4 C4A         6.9610   24.9350   19.4690 C.ar      1 COA601      0.0000 
      5 C5A         6.0690   24.5530   18.4230 C.ar      1 COA601      0.0000 
      6 C6A         6.2220   25.2080   17.1630 C.ar      1 COA601      0.0000 
      7 N6A         5.4140   24.9160   16.0950 N.pl3     1 COA601      0.0000 
      8 N7A         5.1920   23.5880   18.8630 N.2       1 COA601      0.0000 
      9 C8A         5.5200   23.3660   20.1320 C.2       1 COA601      0.0000 
     10 N9A         6.5720   24.1670   20.4900 N.pl3     1 COA601      0.0000 
     11 C1B         7.1720   24.1820   21.8080 C.3       1 COA601      0.0000 
     12 C2B         6.3130   24.6670   22.9520 C.3       1 COA601      0.0000 
     13 O2B         6.2440   26.1480   22.9970 O.3       1 COA601      0.0000 
     14 C3B         7.0040   24.1180   24.1610 C.3       1 COA601      0.0000 
     15 O3B         8.1140   24.9240   24.5350 O.3       1 COA601      0.0000 
     16 P3B         8.6720   24.9140   25.9830 P.3       1 COA601      0.0000 
     17 O7A         9.9070   25.8000   25.9460 O.co2     1 COA601      0.0000 
     18 O8A         9.0720   23.4350   26.2080 O.co2     1 COA601      0.0000 
     19 O9A         7.6360   25.3520   26.9160 O.co2     1 COA601      0.0000 
     20 C4B         7.4160   22.7280   23.6600 C.3       1 COA601      0.0000 
     21 O4B         7.5120   22.8490   22.2530 O.3       1 COA601      0.0000 
     22 C5B         6.4910   21.5880   24.0520 C.3       1 COA601      0.0000 
     23 O5B         5.1760   21.9530   23.6340 O.3       1 COA601      0.0000 
     24 P1A         4.0010   20.8740   23.8400 P.3       1 COA601      0.0000 
     25 O1A         4.1490   20.2340   25.1130 O.co2     1 COA601      0.0000 
     26 O2A         2.7160   21.6200   23.5710 O.co2     1 COA601      0.0000 
     27 O3A         4.3320   19.8510   22.6690 O.3       1 COA601      0.0000 
     28 P2A         3.4200   19.4670   21.4300 P.3       1 COA601      0.0000 
     29 O4A         2.1960   18.7540   21.8470 O.co2     1 COA601      0.0000 
     30 O5A         3.2980   20.6170   20.4700 O.co2     1 COA601      0.0000 
     31 O6A         4.3490   18.3640   20.7710 O.3       1 COA601      0.0000 
     32 CBP         6.1080   17.6570   19.3140 C.3       1 COA601      0.0000 
     33 CCP         5.7410   18.5690   20.4720 C.3       1 COA601      0.0000 
     34 CDP         7.6700   17.7430   19.0240 C.3       1 COA601      0.0000 
     35 CEP         5.8110   16.1950   19.7200 C.3       1 COA601      0.0000 
     36 CAP         5.3040   18.0170   18.0310 C.3       1 COA601      0.0000 
     37 OAP         5.6190   19.3870   17.6260 O.3       1 COA601      0.0000 
     38 C9P         5.4760   17.0330   16.8530 C.2       1 COA601      0.0000 
     39 O9P         4.8800   15.9830   16.7930 O.2       1 COA601      0.0000 
     40 N8P         6.4460   17.3190   16.0120 N.am      1 COA601      0.0000 
     41 C7P         6.6590   16.5510   14.8120 C.3       1 COA601      0.0000 
     42 C6P         7.2090   15.1120   15.0890 C.3       1 COA601      0.0000 
     43 C5P         8.6460   15.1460   15.6260 C.2       1 COA601      0.0000 
     44 O5P         9.5450   15.7090   15.0060 O.2       1 COA601      0.0000 
     45 N4P         8.8400   14.4050   16.7480 N.am      1 COA601      0.0000 
     46 C3P        10.2070   14.0690   17.3530 C.3       1 COA601      0.0000 
     47 C2P        10.8640   12.8670   16.6520 C.3       1 COA601      0.0000 
     48 S1P        10.6170   11.2920   17.5190 S.3       1 COA601      0.0000 
     49 H           8.7885   27.1981   17.9118 H         1 COA601      0.0000 
     50 H           4.7400   24.1913   16.2383 H         1 COA601      0.0000 
     51 H           5.5692   25.4532   15.2660 H         1 COA601      0.0000 
     52 H           5.0901   22.7325   20.7368 H         1 COA601      0.0000 
     53 H           8.0895   24.7764   21.8267 H         1 COA601      0.0000 
     54 H           5.3513   24.2257   22.8697 H         1 COA601      0.0000 
     55 H           6.2809   23.9822   24.9268 H         1 COA601      0.0000 
     56 H           8.4148   22.5273   24.0721 H         1 COA601      0.0000 
     57 H           6.5529   21.4557   25.1283 H         1 COA601      0.0000 
     58 H           6.8379   20.6847   23.5585 H         1 COA601      0.0000 
     59 H           6.3741   18.3165   21.3200 H         1 COA601      0.0000 
     60 H           5.9395   19.5965   20.1743 H         1 COA601      0.0000 
     61 H           4.2280   17.9879   18.3224 H         1 COA601      0.0000 
     62 H           7.1081   18.1132   16.1700 H         1 COA601      0.0000 
     63 H           7.3826   17.0431   14.1358 H         1 COA601      0.0000 
     64 H           5.7237   16.4281   14.2350 H         1 COA601      0.0000 
     65 H           7.1801   14.5486   14.1587 H         1 COA601      0.0000 
     66 H           6.5588   14.6302   15.8162 H         1 COA601      0.0000 
     67 H           8.0369   14.0020   17.2899 H         1 COA601      0.0000 
     68 H          10.0842   13.8380   18.4127 H         1 COA601      0.0000 
     69 H          10.8638   14.9359   17.2608 H         1 COA601      0.0000 
     70 H          11.9362   12.9391   16.6036 H         1 COA601      0.0000 
     71 H          10.4487   12.6643   15.6806 H         1 COA601      0.0000 
     72 H           8.2110   17.4692   19.8192 H         1 COA601      0.0000 
     73 H           7.9404   17.1485   18.2668 H         1 COA601      0.0000 
     74 H           7.9524   18.6715   18.7830 H         1 COA601      0.0000 
     75 H           6.0349   15.5531   18.9866 H         1 COA601      0.0000 
     76 H           6.3386   15.9181   20.5231 H         1 COA601      0.0000 
     77 H           4.8455   16.0603   19.9428 H         1 COA601      0.0000 
     78 H           6.9081   26.4168   23.6946 H         1 COA601      0.0000 
     79 H           4.8413   19.9338   17.9363 H         1 COA601      0.0000 
@<TRIPOS>BOND
     1    2    1 ar   
     2    6    1 ar   
     3    3    2 ar   
     4   49    2 1    
     5    4    3 ar   
     6    5    4 ar   
     7   10    4 1    
     8    6    5 ar   
     9    8    5 1    
    10    7    6 1    
    11   50    7 1    
    12   51    7 1    
    13    9    8 2    
    14   10    9 1    
    15   52    9 1    
    16   11   10 1    
    17   12   11 1    
    18   21   11 1    
    19   53   11 1    
    20   13   12 1    
    21   14   12 1    
    22   54   12 1    
    23   78   13 1    
    24   15   14 1    
    25   20   14 1    
    26   55   14 1    
    27   16   15 1    
    28   17   16 ar   
    29   18   16 ar   
    30   19   16 ar   
    31   21   20 1    
    32   22   20 1    
    33   56   20 1    
    34   23   22 1    
    35   57   22 1    
    36   58   22 1    
    37   24   23 1    
    38   25   24 ar   
    39   26   24 ar   
    40   27   24 1    
    41   28   27 1    
    42   29   28 ar   
    43   30   28 ar   
    44   31   28 1    
    45   33   31 1    
    46   33   32 1    
    47   34   32 1    
    48   35   32 1    
    49   36   32 1    
    50   59   33 1    
    51   60   33 1    
    52   72   34 1    
    53   73   34 1    
    54   74   34 1    
    55   75   35 1    
    56   76   35 1    
    57   77   35 1    
    58   37   36 1    
    59   38   36 1    
    60   61   36 1    
    61   79   37 1    
    62   39   38 2    
    63   40   38 am   
    64   41   40 1    
    65   62   40 1    
    66   42   41 1    
    67   63   41 1    
    68   64   41 1    
    69   43   42 1    
    70   65   42 1    
    71   66   42 1    
    72   44   43 2    
    73   45   43 am   
    74   46   45 1    
    75   67   45 1    
    76   47   46 1    
    77   68   46 1    
    78   69   46 1    
    79   48   47 1    
    80   70   47 1    
    81   71   47 1    
@<TRIPOS>SUBSTRUCTURE
     1 COA601      1 GROUP   
@<TRIPOS>SET

