#    Name: 3vzv_VZV_2_INTS_M
#    Modification time : Tue Mar 25 01:54:11 2014

@<TRIPOS>MOLECULE
3vzv_VZV_2_INTS_M
   81     0     3     0     0
SMALL
NO_CHARGES


@<TRIPOS>ATOM
      1 CA         10.1145    3.2150  -14.1545 C.3       1 GLC5        0.0000 
      2 CA         11.4730    4.3160  -14.9690 C.3       3 GLL5        0.0000 
      3 CA          8.7560    2.1140  -13.3400 C.3       2 GLP5        0.0000 
      4 CA         13.8880    0.2470  -16.2735 C.3       1 GLC5        0.0000 
      5 CA         13.9650    2.2020  -17.2500 C.3       3 GLL5        0.0000 
      6 CA         13.8110   -1.7080  -15.2970 C.3       2 GLP5        0.0000 
      7 CA         15.4565    1.4900  -18.4135 C.3       1 GLC5        0.0000 
      8 CA         16.9480    0.7780  -19.5770 C.3       2 GLP5        0.0000 
      9 CA         11.9925   -0.2930  -16.2760 C.3       1 GLC5        0.0000 
     10 CA         11.6240    1.4470  -16.8690 C.3       3 GLL5        0.0000 
     11 CA         12.3610   -2.0330  -15.6830 C.3       2 GLP5        0.0000 
     12 CA         11.6890   -0.1215  -18.2335 C.3       1 GLC5        0.0000 
     13 CA         11.7540   -1.6900  -19.5980 C.3       2 GLP5        0.0000 
     14 CA          9.9115    0.4745  -17.2100 C.3       1 GLC5        0.0000 
     15 CA          8.1990   -0.4980  -17.5510 C.3       2 GLP5        0.0000 
     16 CA         10.1235    1.5125  -15.9565 C.3       1 GLC5        0.0000 
     17 CA          8.6230    1.5780  -15.0440 C.3       2 GLP5        0.0000 
     18 CA          9.3570    6.0655  -15.9265 C.3       1 GLC5        0.0000 
     19 CA         10.9380    5.7740  -14.9410 C.3       3 GLL5        0.0000 
     20 CA          7.7760    6.3570  -16.9120 C.3       2 GLP5        0.0000 
     21 CA         11.2555    6.9495  -16.5710 C.3       1 GLC5        0.0000 
     22 CA         11.5730    8.1250  -18.2010 C.3       2 GLP5        0.0000 
     23 CA          9.2855    6.9520  -14.1505 C.3       1 GLC5        0.0000 
     24 CA         10.9230    6.2040  -13.4780 C.3       3 GLL5        0.0000 
     25 CA          7.6480    7.7000  -14.8230 C.3       2 GLP5        0.0000 
     26 CA         10.0440    7.4325  -11.8365 C.3       1 GLC5        0.0000 
     27 CA          9.1650    8.6610  -10.1950 C.3       2 GLP5        0.0000 
     28 CA          9.9185    2.3970  -11.8790 C.3       1 GLC5        0.0000 
     29 CA         11.0810    2.6800  -10.4180 C.3       3 GLL5        0.0000 
     30 CA         10.1155    2.8460   -4.4235 C.3       1 GLC5        0.0000 
     31 CA         11.8020    3.3140   -5.5480 C.3       3 GLL5        0.0000 
     32 CA          8.4290    2.3780   -3.2990 C.3       2 GLP5        0.0000 
     33 CA         13.1010    6.8515   -5.7755 C.3       1 GLC5        0.0000 
     34 CA         12.2640    5.3390   -6.8910 C.3       3 GLL5        0.0000 
     35 CA         13.9380    8.3640   -4.6600 C.3       2 GLP5        0.0000 
     36 CA          9.5335    3.9770   -4.0525 C.3       1 GLC5        0.0000 
     37 CA         10.6380    5.5760   -4.8060 C.3       3 GLL5        0.0000 
     38 CA          9.3705    5.3830   -6.1645 C.3       1 GLC5        0.0000 
     39 CA          8.1030    5.1900   -7.5230 C.3       2 GLP5        0.0000 
     40 CA         10.3475    7.5580   -5.5225 C.3       1 GLC5        0.0000 
     41 CA         10.0570    9.5400   -6.2390 C.3       2 GLP5        0.0000 
     42 CA         11.9280    6.3425   -3.3595 C.3       1 GLC5        0.0000 
     43 CA         13.2180    7.1090   -1.9130 C.3       2 GLP5        0.0000 
     44 CA         18.0855    0.4500   -7.8665 C.3       1 GLC5        0.0000 
     45 CA         16.6390    1.5130   -8.1210 C.3       3 GLL5        0.0000 
     46 CA         19.5320   -0.6130   -7.6120 C.3       2 GLP5        0.0000 
     47 CA         14.8310    6.2155   -8.0690 C.3       1 GLC5        0.0000 
     48 CA         15.7560    4.9450   -6.4900 C.3       3 GLL5        0.0000 
     49 CA         13.9060    7.4860   -9.6480 C.3       2 GLP5        0.0000 
     50 CA         15.0555    4.3470   -1.8660 C.3       1 GLC5        0.0000 
     51 CA         16.2680    5.8260   -2.5780 C.3       3 GLL5        0.0000 
     52 CA         13.8430    2.8680   -1.1540 C.3       2 GLP5        0.0000 
     53 CA         17.0865    7.2745   -2.6425 C.3       1 GLC5        0.0000 
     54 CA         17.9050    8.7230   -2.7070 C.3       2 GLP5        0.0000 
     55 CA         14.7430    6.4675   -2.2455 C.3       1 GLC5        0.0000 
     56 CA         17.1655    5.6850   -0.8455 C.3       1 GLC5        0.0000 
     57 CA         18.0630    5.5440    0.8870 C.3       2 GLP5        0.0000 
     58 CA         11.9975    6.7438  -11.6442 C.3       1 GLC5        0.0000 
     59 CA         12.1430    5.4910  -12.9250 C.3       3 GLL5        0.0000 
     60 CA         12.4620    7.6400  -10.0870 C.3       2 GLP5        0.0000 
     61 CA         10.3477    1.4570   -8.8975 C.3       1 GLC5        0.0000 
     62 CA          9.0710    0.7940   -7.3560 C.3       2 GLP5        0.0000 
     63 CA         10.1267    0.7167  -11.6330 C.3       1 GLC5        0.0000 
     64 CA         12.1680    1.5600  -10.4600 C.3       3 GLL5        0.0000 
     65 CA          8.3180    0.5490  -12.4870 C.3       2 GLP5        0.0000 
     66 CA         12.7122    1.8357   -4.1645 C.3       1 GLC5        0.0000 
     67 CA         12.6430    2.5430   -6.3640 C.3       3 GLL5        0.0000 
     68 CA         13.2020    0.7430   -2.3730 C.3       2 GLP5        0.0000 
     69 CA         10.6467    1.8613   -6.6560 C.3       1 GLC5        0.0000 
     70 CA         13.2903    6.2250   -8.4775 C.3       1 GLC5        0.0000 
     71 CA         13.0850    4.5890   -7.7230 C.3       3 GLL5        0.0000 
     72 CA         10.0310    5.0963   -6.9430 C.3       1 GLC5        0.0000 
     73 CA         14.8496    5.4381  -10.8789 C.3       1 GLC5        0.0000 
     74 CA         15.2590    3.5740  -10.0270 C.3       3 GLL5        0.0000 
     75 CA         14.8310    7.2580  -10.8410 C.3       2 GLP5        0.0000 
     76 CA         15.0162    3.5482   -2.6210 C.3       1 GLC5        0.0000 
     77 CA         16.1180    4.9220   -4.0860 C.3       3 GLL5        0.0000 
     78 CA         17.7635    6.3357   -4.3960 C.3       1 GLC5        0.0000 
     79 CA         15.8700    5.6290   -5.2760 C.3       3 GLL5        0.0000 
     80 CA         19.5330    7.3960   -4.1110 C.3       2 GLP5        0.0000 
     81 CA         14.9518    6.7343   -4.8223 C.3       1 GLC5        0.0000 
@<TRIPOS>BOND
@<TRIPOS>SUBSTRUCTURE
     1 GLC5        1 GROUP        1 X    GLC  0     ROOT GLC X 6
     2 GLP5        3 GROUP        1 Y    GLP  0     ROOT GLP Y 13
     3 GLL5        2 GROUP        1 Z    GLL  0     ROOT GLL Z 20
@<TRIPOS>SET

