#    Name: 3vzv_VZV_2_ligand
#    Modification time : Tue Mar 25 01:54:12 2014

@<TRIPOS>MOLECULE
3vzv_VZV_2_ligand
   71    75     1     0     0
SMALL
NO_CHARGES


@<TRIPOS>ATOM
      1 O43        13.1180    2.0930  -13.9390 O.2       1 VZV201      0.0000 
      2 C42        13.0260    3.1490  -13.2750 C.2       1 VZV201      0.0000 
      3 N5         12.2620    4.2340  -13.7030 N.am      1 VZV201      0.0000 
      4 C4         11.4730    4.3160  -14.9690 C.3       1 VZV201      0.0000 
      5 C6         12.1510    3.8990  -16.3530 C.2       1 VZV201      0.0000 
      6 O10        12.2830    4.9220  -17.0770 O.2       1 VZV201      0.0000 
      7 N7         12.5800    2.5930  -16.7980 N.am      1 VZV201      0.0000 
      8 C9         13.9650    2.2020  -17.2500 C.3       1 VZV201      0.0000 
      9 C8         11.6240    1.4470  -16.8690 C.3       1 VZV201      0.0000 
     10 C3         10.9380    5.7740  -14.9410 C.3       1 VZV201      0.0000 
     11 C2         10.9230    6.2040  -13.4780 C.3       1 VZV201      0.0000 
     12 C1         12.1430    5.4910  -12.9250 C.3       1 VZV201      0.0000 
     13 C37        13.8470    3.1540  -11.9610 C.2       1 VZV201      0.0000 
     14 C38        13.6210    2.0360  -10.8830 C.2       1 VZV201      0.0000 
     15 C39        12.1680    1.5600  -10.4600 C.3       1 VZV201      0.0000 
     16 C41        11.0810    2.6800  -10.4180 C.3       1 VZV201      0.0000 
     17 C40        11.7030    0.2090  -11.0980 C.3       1 VZV201      0.0000 
     18 N35        14.2050    2.7270   -9.7320 N.pl3     1 VZV201      0.0000 
     19 C31        14.2410    2.4110   -8.3170 C.3       1 VZV201      0.0000 
     20 C24        13.2690    3.2020   -7.4500 C.ar      1 VZV201      0.0000 
     21 C23        12.6430    2.5430   -6.3640 C.ar      1 VZV201      0.0000 
     22 C22        11.8020    3.3140   -5.5480 C.ar      1 VZV201      0.0000 
     23 C25        13.0850    4.5890   -7.7230 C.ar      1 VZV201      0.0000 
     24 C26        12.2640    5.3390   -6.8910 C.ar      1 VZV201      0.0000 
     25 C21        11.6540    4.6660   -5.8350 C.ar      1 VZV201      0.0000 
     26 CL2        10.6380    5.5760   -4.8060 Cl        1 VZV201      0.0000 
     27 S36        15.1080    4.1710  -11.6520 S.3       1 VZV201      0.0000 
     28 C34        15.2590    3.5740  -10.0270 C.2       1 VZV201      0.0000 
     29 N33        16.0820    3.7480   -9.0680 N.pl3     1 VZV201      0.0000 
     30 C32        15.7350    2.7940   -7.9540 C.3       1 VZV201      0.0000 
     31 C44        16.6390    1.5130   -8.1210 C.3       1 VZV201      0.0000 
     32 C15        15.8790    3.5280   -6.5340 C.ar      1 VZV201      0.0000 
     33 C16        16.1280    2.8370   -5.2980 C.ar      1 VZV201      0.0000 
     34 C11        16.2610    3.5350   -4.0900 C.ar      1 VZV201      0.0000 
     35 C14        15.7560    4.9450   -6.4900 C.ar      1 VZV201      0.0000 
     36 C13        15.8700    5.6290   -5.2760 C.ar      1 VZV201      0.0000 
     37 C12        16.1180    4.9220   -4.0860 C.ar      1 VZV201      0.0000 
     38 CL1        16.2680    5.8260   -2.5780 Cl        1 VZV201      0.0000 
     39 H          10.5619    3.6846  -14.8362 H         1 VZV201      0.0000 
     40 H           9.9458    5.7873  -15.3379 H         1 VZV201      0.0000 
     41 H          11.6013    6.3979  -15.5004 H         1 VZV201      0.0000 
     42 H          10.0488    5.8450  -13.0085 H         1 VZV201      0.0000 
     43 H          11.0518    7.2492  -13.4110 H         1 VZV201      0.0000 
     44 H          13.0098    6.1091  -13.0688 H         1 VZV201      0.0000 
     45 H          11.9873    5.2787  -11.8835 H         1 VZV201      0.0000 
     46 H          12.3110    1.2799   -9.3192 H         1 VZV201      0.0000 
     47 H          14.1582    1.3677   -8.1493 H         1 VZV201      0.0000 
     48 H          12.7981    1.5688   -6.1915 H         1 VZV201      0.0000 
     49 H          11.3138    2.8877   -4.7650 H         1 VZV201      0.0000 
     50 H          13.5561    5.0082   -8.5207 H         1 VZV201      0.0000 
     51 H          12.1155    6.3229   -7.0423 H         1 VZV201      0.0000 
     52 H          16.8263    4.3385   -8.9477 H         1 VZV201      0.0000 
     53 H          16.2073    1.8129   -5.3171 H         1 VZV201      0.0000 
     54 H          16.4601    3.0312   -3.2253 H         1 VZV201      0.0000 
     55 H          15.5827    5.4578   -7.3604 H         1 VZV201      0.0000 
     56 H          15.7730    6.6500   -5.2494 H         1 VZV201      0.0000 
     57 H          14.6449    2.3467  -16.5311 H         1 VZV201      0.0000 
     58 H          14.0127    1.2372  -17.5087 H         1 VZV201      0.0000 
     59 H          14.2604    2.7333  -18.0440 H         1 VZV201      0.0000 
     60 H          12.0679    0.6128  -17.1963 H         1 VZV201      0.0000 
     61 H          11.2287    1.2372  -15.9747 H         1 VZV201      0.0000 
     62 H          10.8625    1.6364  -17.4889 H         1 VZV201      0.0000 
     63 H          11.3187    3.4042   -9.7707 H         1 VZV201      0.0000 
     64 H          10.9595    3.1133  -11.3110 H         1 VZV201      0.0000 
     65 H          10.1890    2.3217  -10.1423 H         1 VZV201      0.0000 
     66 H          11.6811    0.2579  -12.0966 H         1 VZV201      0.0000 
     67 H          12.3123   -0.5457  -10.8548 H         1 VZV201      0.0000 
     68 H          10.7845   -0.0472  -10.7969 H         1 VZV201      0.0000 
     69 H          17.5961    1.7027   -7.9018 H         1 VZV201      0.0000 
     70 H          16.3430    0.7689   -7.5220 H         1 VZV201      0.0000 
     71 H          16.6167    1.1622   -9.0572 H         1 VZV201      0.0000 
@<TRIPOS>BOND
     1    2    1 2    
     2    3    2 am   
     3   13    2 1    
     4    4    3 1    
     5   12    3 1    
     6    5    4 1    
     7   10    4 1    
     8   39    4 1    
     9    6    5 2    
    10    7    5 am   
    11    8    7 1    
    12    9    7 1    
    13   57    8 1    
    14   58    8 1    
    15   59    8 1    
    16   60    9 1    
    17   61    9 1    
    18   62    9 1    
    19   11   10 1    
    20   40   10 1    
    21   41   10 1    
    22   12   11 1    
    23   42   11 1    
    24   43   11 1    
    25   44   12 1    
    26   45   12 1    
    27   14   13 2    
    28   27   13 1    
    29   15   14 1    
    30   18   14 1    
    31   16   15 1    
    32   17   15 1    
    33   46   15 1    
    34   63   16 1    
    35   64   16 1    
    36   65   16 1    
    37   66   17 1    
    38   67   17 1    
    39   68   17 1    
    40   19   18 1    
    41   28   18 2    
    42   20   19 1    
    43   30   19 1    
    44   47   19 1    
    45   21   20 ar   
    46   23   20 ar   
    47   22   21 ar   
    48   48   21 1    
    49   25   22 ar   
    50   49   22 1    
    51   24   23 ar   
    52   50   23 1    
    53   25   24 ar   
    54   51   24 1    
    55   26   25 1    
    56   28   27 1    
    57   29   28 1    
    58   30   29 1    
    59   52   29 1    
    60   31   30 1    
    61   32   30 1    
    62   69   31 1    
    63   70   31 1    
    64   71   31 1    
    65   33   32 ar   
    66   35   32 ar   
    67   34   33 ar   
    68   53   33 1    
    69   37   34 ar   
    70   54   34 1    
    71   36   35 ar   
    72   55   35 1    
    73   37   36 ar   
    74   56   36 1    
    75   38   37 1    
@<TRIPOS>SUBSTRUCTURE
     1 VZV201      1 GROUP   
@<TRIPOS>SET

