#    Name: 3qrt_X14_1_INTS_M
#    Modification time : Tue Mar 25 10:04:19 2014

@<TRIPOS>MOLECULE
3qrt_X14_1_INTS_M
   61     0     9     0     0
SMALL
NO_CHARGES


@<TRIPOS>ATOM
      1 O          90.1955   47.9635  -12.9100 O.2       1 ALC1        0.0000 
      2 O          91.2360   47.9650  -11.9720 O.2       7 ALL1        0.0000 
      3 O          89.1550   47.9620  -13.8480 O.2       4 ALP1        0.0000 
      4 O          88.1065   43.5875   -7.1465 O.2       1 ALC1        0.0000 
      5 O          87.6810   44.6610   -6.2790 O.2       7 ALL1        0.0000 
      6 O          88.5320   42.5140   -8.0140 O.2       4 ALP1        0.0000 
      7 CA         95.2975   46.3255  -14.4305 C.3       3 GLC5        0.0000 
      8 CA         94.9170   44.2400  -14.9690 C.3       9 GLL5        0.0000 
      9 CA         95.6780   48.4110  -13.8920 C.3       6 GLP5        0.0000 
     10 CA         94.4780   43.9525  -16.7475 C.3       3 GLC5        0.0000 
     11 CA         94.0390   43.6650  -18.5260 C.3       6 GLP5        0.0000 
     12 CA         96.0655   45.1365  -16.0260 C.3       3 GLC5        0.0000 
     13 CA         97.2140   46.0330  -17.0830 C.3       6 GLP5        0.0000 
     14 CA         93.1265   43.8590  -14.9020 C.3       3 GLC5        0.0000 
     15 CA         91.3360   43.4780  -14.8350 C.3       6 GLP5        0.0000 
     16 CA         97.4155   44.3745  -14.7230 C.3       3 GLC5        0.0000 
     17 CA         95.8700   43.6200  -13.9030 C.3       9 GLL5        0.0000 
     18 CA         98.9610   45.1290  -15.5430 C.3       6 GLP5        0.0000 
     19 CA         94.5895   41.8060  -14.0065 C.3       3 GLC5        0.0000 
     20 CA         95.1440   43.3520  -12.5340 C.3       9 GLL5        0.0000 
     21 CA         94.0350   40.2600  -15.4790 C.3       6 GLP5        0.0000 
     22 CA         95.7590   46.0395  -10.8655 C.3       3 GLC5        0.0000 
     23 CA         94.4930   44.6480  -11.9180 C.3       9 GLL5        0.0000 
     24 CA         97.0250   47.4310   -9.8130 C.3       6 GLP5        0.0000 
     25 CA         95.0855   46.5295  -12.9050 C.3       3 GLC5        0.0000 
     26 CA         92.2620   49.3055  -10.4160 C.3       3 GLC5        0.0000 
     27 CA         90.6030   48.7110  -10.8700 C.3       9 GLL5        0.0000 
     28 CA         93.9210   49.9000   -9.9620 C.3       6 GLP5        0.0000 
     29 CA         91.0090   49.9405  -11.9580 C.3       3 GLC5        0.0000 
     30 CA         91.4150   51.1700  -13.0460 C.3       6 GLP5        0.0000 
     31 CA         88.1875   43.7540   -9.7840 C.3       3 GLC5        0.0000 
     32 CA         88.5310   45.8110   -9.4310 C.3       9 GLL5        0.0000 
     33 CA         87.8440   41.6970  -10.1370 C.3       6 GLP5        0.0000 
     34 CA         89.6040   44.8105  -11.5880 C.3       3 GLC5        0.0000 
     35 CA         89.4190   46.5170  -10.2610 C.3       9 GLL5        0.0000 
     36 CA         89.7890   43.1040  -12.9150 C.3       6 GLP5        0.0000 
     37 CA         97.6780   44.6880   -9.7235 C.3       3 GLC5        0.0000 
     38 CA         97.2490   43.6760  -11.0840 C.3       9 GLL5        0.0000 
     39 CA         98.1070   45.7000   -8.3630 C.3       6 GLP5        0.0000 
     40 CA         99.3565   43.4515  -10.9610 C.3       3 GLC5        0.0000 
     41 CA        101.4640   43.2270  -10.8380 C.3       6 GLP5        0.0000 
     42 CA         97.1170   39.9865  -12.5695 C.3       3 GLC5        0.0000 
     43 CA         96.7870   41.4820  -12.1210 C.3       9 GLL5        0.0000 
     44 CA         97.4470   38.4910  -13.0180 C.3       6 GLP5        0.0000 
     45 CA         93.1230   39.8220  -11.0695 C.3       3 GLC5        0.0000 
     46 CA         94.2120   41.3330  -10.5580 C.3       9 GLL5        0.0000 
     47 CA         92.0340   38.3110  -11.5810 C.3       6 GLP5        0.0000 
     48 N          86.0300   44.0930   -9.4565 N.am      2 SEC2        0.0000 
     49 N          85.9530   44.7970   -8.1760 N.am      8 SEL2        0.0000 
     50 N          86.1070   43.3890  -10.7370 N.am      5 SEP2        0.0000 
     51 CA         94.4900   47.1925  -13.4260 C.3       3 GLC5        0.0000 
     52 CA         92.8250   46.5050  -12.9360 C.3       9 GLL5        0.0000 
     53 CA         92.3190   44.7260  -13.8975 C.3       3 GLC5        0.0000 
     54 CA         94.7142   42.0950  -14.9575 C.3       3 GLC5        0.0000 
     55 CA         93.0773   43.7390  -13.5305 C.3       3 GLC5        0.0000 
     56 CA         91.1693   48.3118   -8.4758 C.3       3 GLC5        0.0000 
     57 CA         89.6530   47.9030  -10.0270 C.3       9 GLL5        0.0000 
     58 CA         93.0130   48.3890   -7.4530 C.3       6 GLP5        0.0000 
     59 CA         87.1386   45.9663  -10.5506 C.3       3 GLC5        0.0000 
     60 CA         87.8840   46.4930   -8.3760 C.3       9 GLL5        0.0000 
     61 CA         85.4640   45.5980  -11.5190 C.3       6 GLP5        0.0000 
@<TRIPOS>BOND
@<TRIPOS>SUBSTRUCTURE
     1 ALC1        1 GROUP        1 X    ALC  0     ROOT ALC X 1
     2 SEC2       48 GROUP        1 X    SEC  0     **** SEC X 2
     3 GLC5        7 GROUP        1 X    GLC  0     **** GLC X 6
     4 ALP1        3 GROUP        1 Y    ALP  0     ROOT ALP Y 8
     5 SEP2       50 GROUP        1 Y    SEP  0     **** SEP Y 9
     6 GLP5        9 GROUP        1 Y    GLP  0     **** GLP Y 13
     7 ALL1        2 GROUP        1 Z    ALL  0     ROOT ALL Z 15
     8 SEL2       49 GROUP        1 Z    SEL  0     **** SEL Z 16
     9 GLL5        8 GROUP        1 Z    GLL  0     **** GLL Z 20
@<TRIPOS>SET

