#    Name: 3qrt_X14_1_ligand
#    Modification time : Tue Mar 25 10:04:19 2014

@<TRIPOS>MOLECULE
3qrt_X14_1_ligand
   56    58     1     0     0
SMALL
NO_CHARGES


@<TRIPOS>ATOM
      1 N01        92.4740   46.8970  -14.1860 N.pl3     1 X14535      0.0000 
      2 N02        93.2020   46.1070  -15.0090 N.2       1 X14535      0.0000 
      3 N03        91.2360   47.9650  -11.9720 N.am      1 X14535      0.0000 
      4 N04        87.6810   44.6610   -6.2790 N.pl3     1 X14535      0.0000 
      5 C05        93.9920   45.2340  -14.3410 C.2       1 X14535      0.0000 
      6 C06        93.7790   45.4430  -12.9840 C.2       1 X14535      0.0000 
      7 C07        92.8250   46.5050  -12.9360 C.2       1 X14535      0.0000 
      8 C08        94.9170   44.2400  -14.9690 C.3       1 X14535      0.0000 
      9 C09        95.8700   43.6200  -13.9030 C.3       1 X14535      0.0000 
     10 C10        95.1440   43.3520  -12.5340 C.3       1 X14535      0.0000 
     11 C11        94.4930   44.6480  -11.9180 C.3       1 X14535      0.0000 
     12 C12        96.1350   42.7080  -11.5010 C.3       1 X14535      0.0000 
     13 C13        92.3110   47.0960  -11.8130 C.2       1 X14535      0.0000 
     14 C14        90.6030   48.7110  -10.8700 C.3       1 X14535      0.0000 
     15 C15        89.6530   47.9030  -10.0270 C.ar      1 X14535      0.0000 
     16 C16        88.9980   48.5660   -8.9700 C.ar      1 X14535      0.0000 
     17 C17        88.1100   47.8620   -8.1390 C.ar      1 X14535      0.0000 
     18 C18        87.8840   46.4930   -8.3760 C.ar      1 X14535      0.0000 
     19 C19        88.5310   45.8110   -9.4310 C.ar      1 X14535      0.0000 
     20 C20        89.4190   46.5170  -10.2610 C.ar      1 X14535      0.0000 
     21 C21        97.2490   43.6760  -11.0840 C.3       1 X14535      0.0000 
     22 C22        96.7870   41.4820  -12.1210 C.3       1 X14535      0.0000 
     23 C23        95.3660   42.2970  -10.2440 C.3       1 X14535      0.0000 
     24 C24        94.2120   41.3330  -10.5580 C.3       1 X14535      0.0000 
     25 O25        92.7860   46.9000  -10.7000 O.2       1 X14535      0.0000 
     26 O26        85.9830   46.5740   -6.5840 O.2       1 X14535      0.0000 
     27 O27        85.9530   44.7970   -8.1760 O.2       1 X14535      0.0000 
     28 S28        86.7840   45.6130   -7.3470 S.o2      1 X14535      0.0000 
     29 H          91.8614   47.5681  -14.4254 H         1 X14535      0.0000 
     30 H          90.8273   48.1211  -12.9219 H         1 X14535      0.0000 
     31 H          87.9686   45.1041   -5.4298 H         1 X14535      0.0000 
     32 H          87.8610   43.7218   -6.5716 H         1 X14535      0.0000 
     33 H          95.5302   44.7180  -15.7317 H         1 X14535      0.0000 
     34 H          94.3521   43.4297  -15.4278 H         1 X14535      0.0000 
     35 H          96.6985   44.3018  -13.7272 H         1 X14535      0.0000 
     36 H          96.2582   42.6765  -14.2788 H         1 X14535      0.0000 
     37 H          94.3480   42.6319  -12.7099 H         1 X14535      0.0000 
     38 H          93.7965   44.3356  -11.1468 H         1 X14535      0.0000 
     39 H          95.2864   45.2383  -11.4715 H         1 X14535      0.0000 
     40 H          90.0526   49.5894  -11.2783 H         1 X14535      0.0000 
     41 H          91.3886   49.1380  -10.2053 H         1 X14535      0.0000 
     42 H          89.1705   49.5619   -8.8087 H         1 X14535      0.0000 
     43 H          87.6348   48.3359   -7.3737 H         1 X14535      0.0000 
     44 H          88.3542   44.8221   -9.5850 H         1 X14535      0.0000 
     45 H          89.8968   46.0482  -11.0278 H         1 X14535      0.0000 
     46 H          94.9608   43.1910   -9.7618 H         1 X14535      0.0000 
     47 H          96.0530   41.8127   -9.5443 H         1 X14535      0.0000 
     48 H          97.8738   43.2606  -10.4229 H         1 X14535      0.0000 
     49 H          97.8005   43.9666  -11.8659 H         1 X14535      0.0000 
     50 H          96.8821   44.5041  -10.6602 H         1 X14535      0.0000 
     51 H          97.3035   41.7130  -12.9455 H         1 X14535      0.0000 
     52 H          97.4248   41.0412  -11.4895 H         1 X14535      0.0000 
     53 H          96.1104   40.7936  -12.3823 H         1 X14535      0.0000 
     54 H          94.5379   40.4913  -10.9885 H         1 X14535      0.0000 
     55 H          93.7155   41.0665   -9.7319 H         1 X14535      0.0000 
     56 H          93.5456   41.7420  -11.1814 H         1 X14535      0.0000 
@<TRIPOS>BOND
     1    2    1 1    
     2    7    1 1    
     3   29    1 1    
     4    5    2 2    
     5   13    3 am   
     6   14    3 1    
     7   30    3 1    
     8   28    4 1    
     9   31    4 1    
    10   32    4 1    
    11    6    5 1    
    12    8    5 1    
    13    7    6 2    
    14   11    6 1    
    15   13    7 1    
    16    9    8 1    
    17   33    8 1    
    18   34    8 1    
    19   10    9 1    
    20   35    9 1    
    21   36    9 1    
    22   11   10 1    
    23   12   10 1    
    24   37   10 1    
    25   38   11 1    
    26   39   11 1    
    27   21   12 1    
    28   22   12 1    
    29   23   12 1    
    30   25   13 2    
    31   15   14 1    
    32   40   14 1    
    33   41   14 1    
    34   16   15 ar   
    35   20   15 ar   
    36   17   16 ar   
    37   42   16 1    
    38   18   17 ar   
    39   43   17 1    
    40   19   18 ar   
    41   28   18 1    
    42   20   19 ar   
    43   44   19 1    
    44   45   20 1    
    45   48   21 1    
    46   49   21 1    
    47   50   21 1    
    48   51   22 1    
    49   52   22 1    
    50   53   22 1    
    51   24   23 1    
    52   46   23 1    
    53   47   23 1    
    54   54   24 1    
    55   55   24 1    
    56   56   24 1    
    57   28   26 2    
    58   28   27 2    
@<TRIPOS>SUBSTRUCTURE
     1 X14535      1 GROUP   
@<TRIPOS>SET

