#    Name: 1FXU_1_CAVITY_N1_6.mol2
#    Modification time : Tue Mar 11 00:08:24 2014

@<TRIPOS>MOLECULE
1FXU_1_CAVITY_N1_6.mol2
   86     0     6     0     0
SMALL
NO_CHARGES


@<TRIPOS>ATOM
      1 N          77.4639   48.6687   57.9709 N.2       2 ALA2        0.0000 
      2 CZ         75.9797   48.5740   57.7757 C.ar      4 PHE5        0.0000 
      3 DU         75.8582   47.8187   59.0660 H         6 CUB7        0.0000 
      4 O          74.3740   47.7240   58.8709 O.2       2 ALA2        0.0000 
      5 N          77.6436   47.3762   57.2312 N.2       2 ALA2        0.0000 
      6 N          77.5222   46.6209   58.5215 N.2       2 ALA2        0.0000 
      7 DU         77.4007   45.8657   59.8118 H         6 CUB7        0.0000 
      8 CZ         76.2808   48.0367   55.7458 C.ar      4 PHE5        0.0000 
      9 CZ         76.1594   47.2815   57.0361 C.ar      4 PHE5        0.0000 
     10 CA         76.0380   46.5262   58.3264 C.3       5 GLY6        0.0000 
     11 CA         75.9165   45.7710   59.6167 C.3       5 GLY6        0.0000 
     12 CZ         74.6752   47.1867   56.8410 C.ar      4 PHE5        0.0000 
     13 CA         79.1861   45.4231   57.9770 C.3       5 GLY6        0.0000 
     14 N          77.8233   46.0836   56.4916 N.2       2 ALA2        0.0000 
     15 DU         77.7019   45.3284   57.7819 H         6 CUB7        0.0000 
     16 DU         77.5805   44.5731   59.0722 H         6 CUB7        0.0000 
     17 CZ         76.4606   46.7442   55.0062 C.ar      4 PHE5        0.0000 
     18 N          76.3391   45.9889   56.2965 N.2       2 ALA2        0.0000 
     19 CA         76.2177   45.2337   57.5868 C.3       5 GLY6        0.0000 
     20 CA         76.0962   44.4784   58.8771 C.3       5 GLY6        0.0000 
     21 CA         75.9748   43.7232   60.1674 C.3       5 GLY6        0.0000 
     22 CZ         75.3407   48.9152   50.9401 C.ar      4 PHE5        0.0000 
     23 O          74.8549   45.8942   56.1013 O.2       2 ALA2        0.0000 
     24 NZ         73.9779   49.5757   49.4547 N.2       3 LYS4        0.0000 
     25 CZ         73.8564   48.8205   50.7450 C.ar      4 PHE5        0.0000 
     26 N          72.3722   48.7258   50.5499 N.2       2 ALA2        0.0000 
     27 CZ         72.2507   47.9705   51.8402 C.ar      4 PHE5        0.0000 
     28 CZ         79.3658   44.1306   57.2374 C.ar      4 PHE5        0.0000 
     29 CZ         79.2444   43.3753   58.5277 C.ar      4 PHE5        0.0000 
     30 CZ         78.0031   44.7911   55.7520 C.ar      4 PHE5        0.0000 
     31 OG         77.8816   44.0358   57.0423 O.2       1 SER1        0.0000 
     32 CA         77.7602   43.2806   58.3326 C.3       5 GLY6        0.0000 
     33 CA         77.6387   42.5254   59.6229 C.3       5 GLY6        0.0000 
     34 CA         76.6403   45.4516   54.2665 C.3       5 GLY6        0.0000 
     35 O          76.5188   44.6964   55.5568 O.2       2 ALA2        0.0000 
     36 O          76.3974   43.9411   56.8471 O.2       2 ALA2        0.0000 
     37 CA         76.2759   43.1859   58.1374 C.3       5 GLY6        0.0000 
     38 CA         76.1545   42.4307   59.4277 C.3       5 GLY6        0.0000 
     39 CA         75.5204   47.6226   50.2005 C.3       5 GLY6        0.0000 
     40 CA         75.3989   46.8674   51.4908 C.3       5 GLY6        0.0000 
     41 CZ         75.2775   46.1122   52.7811 C.ar      4 PHE5        0.0000 
     42 CZ         75.1560   45.3569   54.0714 C.ar      4 PHE5        0.0000 
     43 O          75.0346   44.6017   55.3617 O.2       2 ALA2        0.0000 
     44 N          74.1576   48.2832   48.7151 N.2       2 ALA2        0.0000 
     45 N          74.0361   47.5279   50.0054 N.2       2 ALA2        0.0000 
     46 CZ         73.9147   46.7727   51.2957 C.ar      4 PHE5        0.0000 
     47 CZ         73.7932   46.0174   52.5860 C.ar      4 PHE5        0.0000 
     48 O          73.6718   45.2622   53.8763 O.2       2 ALA2        0.0000 
     49 O          72.5519   47.4332   49.8103 O.2       2 ALA2        0.0000 
     50 CZ         72.4304   46.6780   51.1006 C.ar      4 PHE5        0.0000 
     51 CA         72.3090   45.9227   52.3909 C.3       5 GLY6        0.0000 
     52 CA         76.8200   44.1591   53.5269 C.3       5 GLY6        0.0000 
     53 OG         76.6985   43.4038   54.8172 O.2       1 SER1        0.0000 
     54 OG         76.5771   42.6486   56.1075 O.2       1 SER1        0.0000 
     55 CA         75.7001   46.3301   49.4609 C.3       5 GLY6        0.0000 
     56 CA         75.5786   45.5749   50.7512 C.3       5 GLY6        0.0000 
     57 CA         75.4572   44.8196   52.0415 C.3       5 GLY6        0.0000 
     58 DU         75.3357   44.0644   53.3318 H         6 CUB7        0.0000 
     59 O          75.2143   43.3091   54.6221 O.2       2 ALA2        0.0000 
     60 N          74.2158   46.2354   49.2658 N.2       2 ALA2        0.0000 
     61 N          74.0944   45.4801   50.5561 N.2       2 ALA2        0.0000 
     62 DU         73.9730   44.7249   51.8463 H         6 CUB7        0.0000 
     63 O          73.8515   43.9697   53.1366 O.2       2 ALA2        0.0000 
     64 CA         72.7316   46.1407   49.0706 C.3       5 GLY6        0.0000 
     65 N          72.6102   45.3854   50.3609 N.2       2 ALA2        0.0000 
     66 N          72.4887   44.6302   51.6512 N.2       2 ALA2        0.0000 
     67 CA         72.3673   43.8750   52.9415 C.3       5 GLY6        0.0000 
     68 OG         76.9997   42.8665   52.7873 O.2       1 SER1        0.0000 
     69 O          75.7583   44.2823   50.0115 O.2       2 ALA2        0.0000 
     70 DU         75.6369   43.5271   51.3018 H         6 CUB7        0.0000 
     71 OG         75.5155   42.7718   52.5921 O.2       1 SER1        0.0000 
     72 OG         75.3940   42.0166   53.8824 O.2       1 SER1        0.0000 
     73 N          74.3956   44.9429   48.5261 N.2       2 ALA2        0.0000 
     74 N          74.2741   44.1876   49.8164 N.2       2 ALA2        0.0000 
     75 N          74.1527   43.4324   51.1067 N.2       2 ALA2        0.0000 
     76 OG         74.0312   42.6771   52.3970 O.2       1 SER1        0.0000 
     77 N          72.6684   43.3377   50.9116 N.2       2 ALA2        0.0000 
     78 CA         77.3008   42.3292   50.7573 C.3       5 GLY6        0.0000 
     79 O          75.9381   42.9898   49.2719 O.2       2 ALA2        0.0000 
     80 DU         75.8166   42.2345   50.5622 H         6 CUB7        0.0000 
     81 OG         75.6952   41.4793   51.8525 O.2       1 SER1        0.0000 
     82 N          74.3324   42.1398   50.3671 N.2       2 ALA2        0.0000 
     83 OG         75.9963   40.9420   49.8226 O.2       1 SER1        0.0000 
     84 N          75.8749   40.1868   51.1129 N.2       2 ALA2        0.0000 
     85 N          74.5121   40.8473   49.6275 N.2       2 ALA2        0.0000 
     86 OG         74.3906   40.0921   50.9177 O.2       1 SER1        0.0000 
@<TRIPOS>BOND
@<TRIPOS>SUBSTRUCTURE
     1 SER1       31 GROUP   
     2 ALA2        1 GROUP   
     3 LYS4       24 GROUP   
     4 PHE5        2 GROUP   
     5 GLY6       10 GROUP   
     6 CUB7        3 GROUP   
@<TRIPOS>SET

