#    Name: 1fxu_GU7_1_INTS_M
#    Modification time : Tue Mar 25 02:13:31 2014

@<TRIPOS>MOLECULE
1fxu_GU7_1_INTS_M
   39     0     9     0     0
SMALL
NO_CHARGES


@<TRIPOS>ATOM
      1 O          74.7965   51.0750   49.7315 O.2       1 ALC1        0.0000 
      2 O          73.9180   49.9950   49.8900 O.2       7 ALL1        0.0000 
      3 O          75.6750   52.1550   49.5730 O.2       4 ALP1        0.0000 
      4 O          70.5485   51.6445   50.0410 O.2       1 ALC1        0.0000 
      5 O          72.2420   51.6370   50.1420 O.2       7 ALL1        0.0000 
      6 O          68.8550   51.6520   49.9400 O.2       4 ALP1        0.0000 
      7 N          70.3660   49.5630   50.7220 N.am      2 SEC2        0.0000 
      8 N          71.6100   49.3840   50.3510 N.am      8 SEL2        0.0000 
      9 N          69.1220   49.7420   51.0930 N.am      5 SEP2        0.0000 
     10 CA         73.1130   45.4550   48.5640 C.3       3 GLC5        0.0000 
     11 CA         74.7160   45.5410   50.1180 C.3       9 GLL5        0.0000 
     12 CA         71.5100   45.3690   47.0100 C.3       6 GLP5        0.0000 
     13 CA         75.5660   45.5375   48.4470 C.3       3 GLC5        0.0000 
     14 CA         76.4160   45.5340   46.7760 C.3       6 GLP5        0.0000 
     15 CA         74.8395   47.2955   52.4990 C.3       3 GLC5        0.0000 
     16 CA         75.5580   45.5810   51.3730 C.3       9 GLL5        0.0000 
     17 CA         74.1210   49.0100   53.6250 C.3       6 GLP5        0.0000 
     18 CA         77.2810   45.9100   51.7040 C.3       3 GLC5        0.0000 
     19 CA         79.0040   46.2390   52.0350 C.3       6 GLP5        0.0000 
     20 CA         77.3430   45.3225   52.7780 C.3       3 GLC5        0.0000 
     21 CA         75.6820   44.4060   53.5210 C.3       9 GLL5        0.0000 
     22 CA         74.2705   46.9500   54.7130 C.3       3 GLC5        0.0000 
     23 CA         74.7720   45.1570   54.4820 C.3       9 GLL5        0.0000 
     24 CA         73.7690   48.7430   54.9440 C.3       6 GLP5        0.0000 
     25 CA         73.7675   44.5360   56.2255 C.3       3 GLC5        0.0000 
     26 CA         72.7630   43.9150   57.9690 C.3       6 GLP5        0.0000 
     27 O          73.1610   44.2900   55.3575 O.2       1 ALC1        0.0000 
     28 O          73.4380   45.0490   54.0640 O.2       7 ALL1        0.0000 
     29 O          72.8840   43.5310   56.6510 O.2       4 ALP1        0.0000 
     30 CA         77.8025   42.5655   54.3440 C.3       3 GLC5        0.0000 
     31 CA         75.7090   42.9800   54.0410 C.3       9 GLL5        0.0000 
     32 CA         79.8960   42.1510   54.6470 C.3       6 GLP5        0.0000 
     33 O          77.5355   41.7835   53.9090 O.2       1 ALC1        0.0000 
     34 O          76.3600   42.1240   53.1240 O.2       7 ALL1        0.0000 
     35 O          78.7110   41.4430   54.6940 O.2       4 ALP1        0.0000 
     36 CA         72.1308   46.6317   48.6300 C.3       3 GLC5        0.0000 
     37 CA         73.4070   47.6930   50.1500 C.3       9 GLL5        0.0000 
     38 CA         71.7742   48.4737   48.6200 C.3       3 GLC5        0.0000 
     39 CA         70.7970   49.0530   46.9900 C.3       6 GLP5        0.0000 
@<TRIPOS>BOND
@<TRIPOS>SUBSTRUCTURE
     1 ALC1        1 GROUP        1 X    ALC  0     ROOT ALC X 1
     2 SEC2        7 GROUP        1 X    SEC  0     **** SEC X 2
     3 GLC5       10 GROUP        1 X    GLC  0     **** GLC X 6
     4 ALP1        3 GROUP        1 Y    ALP  0     ROOT ALP Y 8
     5 SEP2        9 GROUP        1 Y    SEP  0     **** SEP Y 9
     6 GLP5       12 GROUP        1 Y    GLP  0     **** GLP Y 13
     7 ALL1        2 GROUP        1 Z    ALL  0     ROOT ALL Z 15
     8 SEL2        8 GROUP        1 Z    SEL  0     **** SEL Z 16
     9 GLL5       11 GROUP        1 Z    GLL  0     **** GLL Z 20
@<TRIPOS>SET

