#    Name: 1fxu_GU7_1_ligand
#    Modification time : Tue Mar 25 02:13:31 2014

@<TRIPOS>MOLECULE
1fxu_GU7_1_ligand
   34    35     1     0     0
SMALL
NO_CHARGES


@<TRIPOS>ATOM
      1 N9         71.3570   46.9230   50.4450 N.2       1 GU7290      0.0000 
      2 C8         72.2610   45.8800   50.4250 C.2       1 GU7290      0.0000 
      3 N7         73.4760   46.3200   50.2400 N.pl3     1 GU7290      0.0000 
      4 C5         73.4070   47.6930   50.1500 C.2       1 GU7290      0.0000 
      5 C6         74.4310   48.6800   49.9180 C.2       1 GU7290      0.0000 
      6 O6         75.6480   48.4850   49.7320 O.2       1 GU7290      0.0000 
      7 N1         73.9180   49.9950   49.8900 N.am      1 GU7290      0.0000 
      8 C2         72.5760   50.3160   50.0970 C.2       1 GU7290      0.0000 
      9 N2         72.2420   51.6370   50.1420 N.pl3     1 GU7290      0.0000 
     10 N3         71.6100   49.3840   50.3510 N.2       1 GU7290      0.0000 
     11 C4         72.0960   48.0960   50.3500 C.2       1 GU7290      0.0000 
     12 C10        74.7160   45.5410   50.1180 C.3       1 GU7290      0.0000 
     13 C11        75.5580   45.5810   51.3730 C.3       1 GU7290      0.0000 
     14 N12        75.1220   44.4340   52.1550 N.4       1 GU7290      0.0000 
     15 C13        75.6820   44.4060   53.5210 C.3       1 GU7290      0.0000 
     16 C14        74.7720   45.1570   54.4820 C.3       1 GU7290      0.0000 
     17 O15        73.4380   45.0490   54.0640 O.3       1 GU7290      0.0000 
     18 C16        75.7090   42.9800   54.0410 C.3       1 GU7290      0.0000 
     19 O17        76.3600   42.1240   53.1240 O.3       1 GU7290      0.0000 
     20 H          71.9843   44.9418   50.5391 H         1 GU7290      0.0000 
     21 H          74.5962   50.7783   49.7004 H         1 GU7290      0.0000 
     22 H          72.9909   52.2852   50.0039 H         1 GU7290      0.0000 
     23 H          71.2775   51.8416   50.3091 H         1 GU7290      0.0000 
     24 H          75.3235   45.9208   49.2762 H         1 GU7290      0.0000 
     25 H          74.4820   44.4858   49.8865 H         1 GU7290      0.0000 
     26 H          75.3687   46.5032   51.8924 H         1 GU7290      0.0000 
     27 H          76.5951   45.4979   51.1016 H         1 GU7290      0.0000 
     28 H          76.6509   44.8133   53.5663 H         1 GU7290      0.0000 
     29 H          75.1161   46.2027   54.5136 H         1 GU7290      0.0000 
     30 H          74.9304   44.7331   55.4861 H         1 GU7290      0.0000 
     31 H          74.6657   42.6704   54.2222 H         1 GU7290      0.0000 
     32 H          76.2140   42.9913   55.0218 H         1 GU7290      0.0000 
     33 H          72.9494   44.6746   54.8521 H         1 GU7290      0.0000 
     34 H          77.2193   41.8729   53.5697 H         1 GU7290      0.0000 
@<TRIPOS>BOND
     1    2    1 2    
     2   11    1 1    
     3    3    2 1    
     4   20    2 1    
     5    4    3 1    
     6   12    3 1    
     7    5    4 1    
     8   11    4 2    
     9    6    5 2    
    10    7    5 am   
    11    8    7 1    
    12   21    7 1    
    13    9    8 1    
    14   10    8 2    
    15   22    9 1    
    16   23    9 1    
    17   11   10 1    
    18   13   12 1    
    19   24   12 1    
    20   25   12 1    
    21   14   13 1    
    22   26   13 1    
    23   27   13 1    
    24   15   14 1    
    25   16   15 1    
    26   18   15 1    
    27   28   15 1    
    28   17   16 1    
    29   29   16 1    
    30   30   16 1    
    31   33   17 1    
    32   19   18 1    
    33   31   18 1    
    34   32   18 1    
    35   34   19 1    
@<TRIPOS>SUBSTRUCTURE
     1 GU7290      1 GROUP   
@<TRIPOS>SET

