#    Name: 2wuf_KEM_1_INTS_M
#    Modification time : Tue Mar 25 04:42:02 2014

@<TRIPOS>MOLECULE
2wuf_KEM_1_INTS_M
   57     0     6     0     0
SMALL
NO_CHARGES


@<TRIPOS>ATOM
      1 CA         10.3780  -38.0030   10.8135 C.3       2 GLC5        0.0000 
      2 CA          9.8520  -39.5360    9.4710 C.3       6 GLL5        0.0000 
      3 CA         10.9040  -36.4700   12.1560 C.3       4 GLP5        0.0000 
      4 CA         10.7280  -38.2525    8.4905 C.3       2 GLC5        0.0000 
      5 CA         11.6040  -36.9690    7.5100 C.3       4 GLP5        0.0000 
      6 CA          8.8440  -37.9515    9.6755 C.3       2 GLC5        0.0000 
      7 CA          7.8360  -36.3670    9.8800 C.3       4 GLP5        0.0000 
      8 CA         10.5905  -40.8105   13.8930 C.3       2 GLC5        0.0000 
      9 CA          9.3580  -39.8410   12.3420 C.3       6 GLL5        0.0000 
     10 CA         11.8230  -41.7800   15.4440 C.3       4 GLP5        0.0000 
     11 CA         10.1310  -38.1555   12.2490 C.3       2 GLC5        0.0000 
     12 CA          7.3270  -39.2580   11.7680 C.3       2 GLC5        0.0000 
     13 CA          5.2960  -38.6750   11.1940 C.3       4 GLP5        0.0000 
     14 N          12.1035  -41.0770   12.3830 N.am      1 SEC2        0.0000 
     15 N          11.7950  -41.8220   11.1990 N.am      5 SEL2        0.0000 
     16 N          12.4120  -40.3320   13.5670 N.am      3 SEP2        0.0000 
     17 N          12.3155  -43.1230   11.6445 N.am      1 SEC2        0.0000 
     18 N          12.8360  -44.4240   12.0900 N.am      3 SEP2        0.0000 
     19 CA         12.8100  -40.1100   10.9745 C.3       2 GLC5        0.0000 
     20 CA         12.3530  -40.8410    9.0590 C.3       6 GLL5        0.0000 
     21 CA         13.2670  -39.3790   12.8900 C.3       4 GLP5        0.0000 
     22 CA         13.5480  -41.8605   10.4230 C.3       2 GLC5        0.0000 
     23 CA         14.7430  -42.8800   11.7870 C.3       4 GLP5        0.0000 
     24 CA         14.1965  -39.6570    8.6885 C.3       2 GLC5        0.0000 
     25 CA         16.0400  -38.4730    8.3180 C.3       4 GLP5        0.0000 
     26 CA         14.6140  -39.6165    7.4945 C.3       2 GLC5        0.0000 
     27 CA         13.1880  -40.7600    6.6710 C.3       6 GLL5        0.0000 
     28 CA         12.6105  -38.0520    6.0975 C.3       2 GLC5        0.0000 
     29 CA         13.6170  -39.1350    4.6850 C.3       6 GLL5        0.0000 
     30 CA         14.8285  -38.8040    6.5015 C.3       2 GLC5        0.0000 
     31 CA         16.4180  -42.0045    4.5690 C.3       2 GLC5        0.0000 
     32 CA         14.2690  -41.4080    4.3180 C.3       6 GLL5        0.0000 
     33 CA         18.5670  -42.6010    4.8200 C.3       4 GLP5        0.0000 
     34 CA         15.5660  -43.0305    8.0360 C.3       2 GLC5        0.0000 
     35 CA         14.6720  -42.8430    6.1110 C.3       6 GLL5        0.0000 
     36 CA         16.4600  -43.2180    9.9610 C.3       4 GLP5        0.0000 
     37 CA          8.6385  -41.3255    8.7108 C.3       2 GLC5        0.0000 
     38 CA         10.0020  -40.8720   10.2100 C.3       6 GLL5        0.0000 
     39 CA          7.3500  -42.4470    7.5810 C.3       4 GLP5        0.0000 
     40 CA         11.3879  -39.8760   12.2546 C.3       2 GLC5        0.0000 
     41 CA          9.8599  -42.2570   12.0946 C.3       2 GLC5        0.0000 
     42 CA         10.2110  -44.1410   12.5700 C.3       4 GLP5        0.0000 
     43 CA          7.8179  -41.4055   11.6356 C.3       2 GLC5        0.0000 
     44 CA          9.3170  -40.9380   11.5830 C.3       6 GLL5        0.0000 
     45 CA          6.1270  -42.4380   11.6520 C.3       4 GLP5        0.0000 
     46 CA         12.1289  -38.8787    7.4995 C.3       2 GLC5        0.0000 
     47 CA         12.1274  -39.8031    3.0204 C.3       2 GLC5        0.0000 
     48 CA         13.1780  -40.5560    5.0860 C.3       6 GLL5        0.0000 
     49 CA         10.4520  -40.0750    1.9640 C.3       4 GLP5        0.0000 
     50 CA         16.4827  -38.9745    3.6205 C.3       2 GLC5        0.0000 
     51 CA         14.2080  -39.2170    3.2680 C.3       6 GLL5        0.0000 
     52 CA         18.4230  -38.0460    4.0120 C.3       4 GLP5        0.0000 
     53 CA         16.1327  -40.9405    6.6470 C.3       2 GLC5        0.0000 
     54 CA         15.3830  -41.8210    5.2510 C.3       6 GLL5        0.0000 
     55 CA         17.2380  -39.5490    7.6130 C.3       4 GLP5        0.0000 
     56 CA         16.5828  -42.7135    5.8635 C.3       2 GLC5        0.0000 
     57 CA         18.1380  -43.0950    6.0460 C.3       4 GLP5        0.0000 
@<TRIPOS>BOND
@<TRIPOS>SUBSTRUCTURE
     1 SEC2       14 GROUP        1 X    SEC  0     ROOT SEC X 2
     2 GLC5        1 GROUP        1 X    GLC  0     **** GLC X 6
     3 SEP2       16 GROUP        1 Y    SEP  0     ROOT SEP Y 9
     4 GLP5        3 GROUP        1 Y    GLP  0     **** GLP Y 13
     5 SEL2       15 GROUP        1 Z    SEL  0     ROOT SEL Z 16
     6 GLL5        2 GROUP        1 Z    GLL  0     **** GLL Z 20
@<TRIPOS>SET

