#    Name: 2wuf_KEM_1_ligand
#    Modification time : Tue Mar 25 04:42:02 2014

@<TRIPOS>MOLECULE
2wuf_KEM_1_ligand
   50    51     1     0     0
SMALL
NO_CHARGES


@<TRIPOS>ATOM
      1 C01         9.8520  -39.5360    9.4710 C.3       1 KEM1289     0.0000 
      2 C02        10.0020  -40.8720   10.2100 C.3       1 KEM1289     0.0000 
      3 C03         9.3170  -40.9380   11.5830 C.2       1 KEM1289     0.0000 
      4 C04         9.3580  -39.8410   12.3420 C.2       1 KEM1289     0.0000 
      5 C05         8.8290  -39.7800   13.7770 C.2       1 KEM1289     0.0000 
      6 O06         8.7710  -40.7940   14.3670 O.2       1 KEM1289     0.0000 
      7 C07         8.4360  -38.4380   14.4350 C.2       1 KEM1289     0.0000 
      8 O08         8.1160  -37.2910   13.7200 O.co2     1 KEM1289     0.0000 
      9 O09         8.8250  -38.1850   15.5080 O.co2     1 KEM1289     0.0000 
     10 C10        11.4110  -41.4270   10.1720 C.2       1 KEM1289     0.0000 
     11 O11        11.7950  -41.8220   11.1990 O.2       1 KEM1289     0.0000 
     12 C12        12.3530  -40.8410    9.0590 C.3       1 KEM1289     0.0000 
     13 C13        11.8860  -40.7930    7.5550 C.3       1 KEM1289     0.0000 
     14 C14        13.1880  -40.7600    6.6710 C.3       1 KEM1289     0.0000 
     15 C15        13.1780  -40.5560    5.0860 C.3       1 KEM1289     0.0000 
     16 C16        13.6170  -39.1350    4.6850 C.3       1 KEM1289     0.0000 
     17 C17        14.2080  -39.2170    3.2680 C.3       1 KEM1289     0.0000 
     18 C18        14.8770  -40.5890    3.1900 C.3       1 KEM1289     0.0000 
     19 O19        15.3420  -41.0980    2.2260 O.3       1 KEM1289     0.0000 
     20 C20        14.2690  -41.4080    4.3180 C.3       1 KEM1289     0.0000 
     21 C21        13.7930  -42.7620    3.7230 C.3       1 KEM1289     0.0000 
     22 C22        15.3830  -41.8210    5.2510 C.3       1 KEM1289     0.0000 
     23 C23        14.6720  -42.8430    6.1110 C.3       1 KEM1289     0.0000 
     24 C24        13.8430  -42.0530    7.0810 C.2       1 KEM1289     0.0000 
     25 O25        13.5430  -42.5400    8.0880 O.2       1 KEM1289     0.0000 
     26 H           9.3845  -41.6210    9.5515 H         1 KEM1289     0.0000 
     27 H           8.8847  -41.8086   11.8115 H         1 KEM1289     0.0000 
     28 H           9.7575  -38.9339   12.0111 H         1 KEM1289     0.0000 
     29 H          13.3233  -41.4069    9.0968 H         1 KEM1289     0.0000 
     30 H          12.6346  -39.7960    9.3621 H         1 KEM1289     0.0000 
     31 H          11.3299  -39.9028    7.3912 H         1 KEM1289     0.0000 
     32 H          11.3353  -41.6739    7.3330 H         1 KEM1289     0.0000 
     33 H          13.8357  -39.9631    7.1198 H         1 KEM1289     0.0000 
     34 H          12.2443  -40.7594    4.6741 H         1 KEM1289     0.0000 
     35 H          14.3683  -38.7884    5.3671 H         1 KEM1289     0.0000 
     36 H          12.7631  -38.4864    4.6801 H         1 KEM1289     0.0000 
     37 H          14.9372  -38.4513    3.1424 H         1 KEM1289     0.0000 
     38 H          13.4227  -39.1563    2.5515 H         1 KEM1289     0.0000 
     39 H          15.9158  -40.2271    3.9039 H         1 KEM1289     0.0000 
     40 H          15.6866  -41.0020    5.8392 H         1 KEM1289     0.0000 
     41 H          16.1590  -42.2821    4.7086 H         1 KEM1289     0.0000 
     42 H          15.3942  -43.4349    6.6388 H         1 KEM1289     0.0000 
     43 H          14.0396  -43.4538    5.4966 H         1 KEM1289     0.0000 
     44 H          10.2424  -38.7773    9.9925 H         1 KEM1289     0.0000 
     45 H          10.3121  -39.5489    8.5832 H         1 KEM1289     0.0000 
     46 H           8.8925  -39.3115    9.3006 H         1 KEM1289     0.0000 
     47 H          14.5332  -43.2410    3.2510 H         1 KEM1289     0.0000 
     48 H          13.4496  -43.3787    4.4313 H         1 KEM1289     0.0000 
     49 H          13.0549  -42.6373    3.0600 H         1 KEM1289     0.0000 
     50 H          15.7263  -41.3068    3.1254 H         1 KEM1289     0.0000 
@<TRIPOS>BOND
     1    2    1 1    
     2   44    1 1    
     3   45    1 1    
     4   46    1 1    
     5    3    2 1    
     6   10    2 1    
     7   26    2 1    
     8    4    3 2    
     9   27    3 1    
    10    5    4 1    
    11   28    4 1    
    12    6    5 2    
    13    7    5 1    
    14    8    7 ar   
    15    9    7 ar   
    16   11   10 2    
    17   12   10 1    
    18   13   12 1    
    19   29   12 1    
    20   30   12 1    
    21   14   13 1    
    22   31   13 1    
    23   32   13 1    
    24   15   14 1    
    25   24   14 1    
    26   33   14 1    
    27   16   15 1    
    28   20   15 1    
    29   34   15 1    
    30   17   16 1    
    31   35   16 1    
    32   36   16 1    
    33   18   17 1    
    34   37   17 1    
    35   38   17 1    
    36   19   18 1    
    37   20   18 1    
    38   39   18 1    
    39   50   19 1    
    40   21   20 1    
    41   22   20 1    
    42   47   21 1    
    43   48   21 1    
    44   49   21 1    
    45   23   22 1    
    46   40   22 1    
    47   41   22 1    
    48   24   23 1    
    49   42   23 1    
    50   43   23 1    
    51   25   24 2    
@<TRIPOS>SUBSTRUCTURE
     1 KEM1289     1 GROUP   
@<TRIPOS>SET

