#    Name: 2ds1_1CD_1_INTS_M
#    Modification time : Mon Apr  7 17:25:37 2014

@<TRIPOS>MOLECULE
2ds1_1CD_1_INTS_M
   52     0     9     0     0
SMALL
NO_CHARGES


@<TRIPOS>ATOM
      1 CA         -7.2055   10.9760   11.1465 C.3       3 GLC5        0.0000 
      2 CA         -6.7810   10.0080   12.8240 C.3       9 GLL5        0.0000 
      3 CA         -7.6300   11.9440    9.4690 C.3       6 GLP5        0.0000 
      4 CA         -5.9815   11.9580   13.0565 C.3       3 GLC5        0.0000 
      5 CA         -5.1820   13.9080   13.2890 C.3       6 GLP5        0.0000 
      6 CA         -7.1290    6.4405   16.1620 C.3       3 GLC5        0.0000 
      7 CA         -7.6640    6.9900   14.3740 C.3       9 GLL5        0.0000 
      8 CA         -6.5940    5.8910   17.9500 C.3       6 GLP5        0.0000 
      9 CA        -10.9060    9.7260    7.3660 C.3       3 GLC5        0.0000 
     10 CA        -11.3400    9.0350    9.2620 C.3       9 GLL5        0.0000 
     11 CA        -10.4720   10.4170    5.4700 C.3       6 GLP5        0.0000 
     12 O         -12.0095   12.0800    9.5105 O.2       1 ALC1        0.0000 
     13 O         -11.7780   11.2250   10.5350 O.2       7 ALL1        0.0000 
     14 O         -12.2410   12.9350    8.4860 O.2       4 ALP1        0.0000 
     15 N         -12.4840   14.2215   10.7380 N.am      2 SEC2        0.0000 
     16 N         -12.1290   13.1970   11.7080 N.am      8 SEL2        0.0000 
     17 N         -12.8390   15.2460    9.7680 N.am      5 SEP2        0.0000 
     18 CA         -8.8715    8.7925   17.2700 C.3       3 GLC5        0.0000 
     19 CA         -7.2100    9.2910   16.8760 C.3       9 GLL5        0.0000 
     20 CA        -10.5330    8.2940   17.6640 C.3       6 GLP5        0.0000 
     21 CA         -7.2670    9.6135   18.7290 C.3       3 GLC5        0.0000 
     22 CA         -7.3240    9.9360   20.5820 C.3       6 GLP5        0.0000 
     23 N          -6.4045   11.3315   18.7575 N.am      2 SEC2        0.0000 
     24 N          -6.7310   12.1390   17.5080 N.am      8 SEL2        0.0000 
     25 N          -6.0780   10.5240   20.0070 N.am      5 SEP2        0.0000 
     26 CA         -4.7645    9.9405   12.3027 C.3       3 GLC5        0.0000 
     27 CA         -6.2410    8.6700   13.3410 C.3       9 GLL5        0.0000 
     28 CA         -3.0180   10.5420   11.5230 C.3       6 GLP5        0.0000 
     29 CA         -9.6378    5.7820   13.8075 C.3       3 GLC5        0.0000 
     30 CA         -8.1390    7.0520   12.9180 C.3       9 GLL5        0.0000 
     31 CA        -11.3740    4.5430   13.9690 C.3       6 GLP5        0.0000 
     32 CA        -12.5102    9.6813   11.9040 C.3       3 GLC5        0.0000 
     33 CA        -10.4200    9.5770   11.5360 C.3       9 GLL5        0.0000 
     34 CA        -14.1900    9.5850   12.8520 C.3       6 GLP5        0.0000 
     35 CA         -9.2302   10.8607   10.2125 C.3       3 GLC5        0.0000 
     36 CA        -11.2410    9.9780   10.3760 C.3       9 GLL5        0.0000 
     37 CA        -10.9665   10.7417   15.3173 C.3       3 GLC5        0.0000 
     38 CA        -10.1150   12.5160   13.9300 C.3       9 GLL5        0.0000 
     39 CA        -12.2850    9.2900   16.1780 C.3       6 GLP5        0.0000 
     40 CA         -6.8075   13.6920   14.5475 C.3       3 GLC5        0.0000 
     41 CA         -8.5010   14.2040   15.7380 C.3       9 GLL5        0.0000 
     42 CA        -11.6609   13.7134   14.6979 C.3       3 GLC5        0.0000 
     43 CA         -9.4210   14.7740   14.7440 C.3       9 GLL5        0.0000 
     44 CA        -13.5250   13.4180   15.0810 C.3       6 GLP5        0.0000 
     45 CA         -9.0209   13.9379   12.6154 C.3       3 GLC5        0.0000 
     46 CA        -10.2300   13.9710   13.8410 C.3       9 GLL5        0.0000 
     47 CA         -8.2450   13.8670   10.9160 C.3       6 GLP5        0.0000 
     48 CA         -8.9681   15.8926   14.2246 C.3       3 GLC5        0.0000 
     49 CA         -8.7730   17.4970   13.4340 C.3       6 GLP5        0.0000 
     50 CA        -10.2106   15.3411   15.9321 C.3       3 GLC5        0.0000 
     51 CA        -11.2580   16.3940   16.8490 C.3       6 GLP5        0.0000 
     52 CA         -6.6690    7.4210   17.1625 C.3       3 GLC5        0.0000 
@<TRIPOS>BOND
@<TRIPOS>SUBSTRUCTURE
     1 ALC1       12 GROUP        1 X    ALC  0     ROOT ALC X 1
     2 SEC2       15 GROUP        1 X    SEC  0     **** SEC X 2
     3 GLC5        1 GROUP        1 X    GLC  0     **** GLC X 6
     4 ALP1       14 GROUP        1 Y    ALP  0     ROOT ALP Y 8
     5 SEP2       17 GROUP        1 Y    SEP  0     **** SEP Y 9
     6 GLP5        3 GROUP        1 Y    GLP  0     **** GLP Y 13
     7 ALL1       13 GROUP        1 Z    ALL  0     ROOT ALL Z 15
     8 SEL2       16 GROUP        1 Z    SEL  0     **** SEL Z 16
     9 GLL5        2 GROUP        1 Z    GLL  0     **** GLL Z 20
@<TRIPOS>SET

