#    Name: 2ds1_1CD_1_ligand
#    Modification time : Mon Apr  7 17:25:37 2014

@<TRIPOS>MOLECULE
2ds1_1CD_1_ligand
   52    57     1     0     0
SMALL
NO_CHARGES


@<TRIPOS>ATOM
      1 C1         -6.7810   10.0080   12.8240 C.3       1 1CD501      0.0000 
      2 N2         -6.9360    8.2690   14.5930 N.4       1 1CD501      0.0000 
      3 C3         -7.6640    6.9900   14.3740 C.3       1 1CD501      0.0000 
      4 C4         -8.1390    7.0520   12.9180 C.3       1 1CD501      0.0000 
      5 C5         -6.7440    7.4970   12.5030 C.3       1 1CD501      0.0000 
      6 C6         -6.2410    8.6700   13.3410 C.3       1 1CD501      0.0000 
      7 C7        -10.4200    9.5770   11.5360 C.ar      1 1CD501      0.0000 
      8 C8         -9.7580    8.2790   11.5480 C.ar      1 1CD501      0.0000 
      9 C9        -11.2410    9.9780   10.3760 C.ar      1 1CD501      0.0000 
     10 N10       -10.2140   10.3950   12.6260 N.2       1 1CD501      0.0000 
     11 C11        -9.8580    7.3430   10.4130 C.ar      1 1CD501      0.0000 
     12 O12        -9.1010    8.0920   12.7620 O.3       1 1CD501      0.0000 
     13 C13       -11.3400    9.0350    9.2620 C.ar      1 1CD501      0.0000 
     14 N14       -11.7780   11.2250   10.5350 N.am      1 1CD501      0.0000 
     15 C15       -10.6960   11.6760   12.8380 C.2       1 1CD501      0.0000 
     16 C16       -10.6590    7.7260    9.2510 C.ar      1 1CD501      0.0000 
     17 C17       -11.5920   12.0950   11.6420 C.2       1 1CD501      0.0000 
     18 C18       -10.1150   12.5160   13.9300 C.ar      1 1CD501      0.0000 
     19 O19       -12.1290   13.1970   11.7080 O.2       1 1CD501      0.0000 
     20 C20        -9.1810   11.8710   14.9830 C.ar      1 1CD501      0.0000 
     21 C21       -10.2300   13.9710   13.8410 C.ar      1 1CD501      0.0000 
     22 C22        -8.3650   12.7480   15.8740 C.ar      1 1CD501      0.0000 
     23 N23        -8.7960   10.6110   15.3440 N.pl3     1 1CD501      0.0000 
     24 C24        -9.4210   14.7740   14.7440 C.ar      1 1CD501      0.0000 
     25 C25        -7.5560   11.8010   16.6560 C.2       1 1CD501      0.0000 
     26 C26        -8.5010   14.2040   15.7380 C.ar      1 1CD501      0.0000 
     27 N27        -7.8330   10.4980   16.3140 N.am      1 1CD501      0.0000 
     28 C28        -7.2100    9.2910   16.8760 C.3       1 1CD501      0.0000 
     29 O29        -6.7310   12.1390   17.5080 O.2       1 1CD501      0.0000 
     30 C30        -6.2780    8.6110   15.8740 C.3       1 1CD501      0.0000 
     31 H          -7.8818    9.0717   14.5606 H         1 1CD501      0.0000 
     32 H          -8.5161    6.9230   15.0154 H         1 1CD501      0.0000 
     33 H          -7.0081    6.1545   14.4907 H         1 1CD501      0.0000 
     34 H          -8.3163    6.1316   12.5915 H         1 1CD501      0.0000 
     35 H          -6.7577    7.7911   11.4482 H         1 1CD501      0.0000 
     36 H          -6.0499    6.6568   12.6111 H         1 1CD501      0.0000 
     37 H          -5.2349    8.6266   13.4433 H         1 1CD501      0.0000 
     38 H          -9.3871    6.4683   10.4425 H         1 1CD501      0.0000 
     39 H         -11.9083    9.2910    8.4479 H         1 1CD501      0.0000 
     40 H         -12.4097   11.6047    9.7517 H         1 1CD501      0.0000 
     41 H         -10.7465    7.1224    8.4685 H         1 1CD501      0.0000 
     42 H         -10.8406   14.3927   13.1852 H         1 1CD501      0.0000 
     43 H          -9.2065    9.7860   14.9113 H         1 1CD501      0.0000 
     44 H          -9.4926   15.8017   14.6885 H         1 1CD501      0.0000 
     45 H          -7.9624   14.8138   16.3274 H         1 1CD501      0.0000 
     46 H          -7.9791    8.5647   17.1776 H         1 1CD501      0.0000 
     47 H          -6.6258    9.5409   17.7739 H         1 1CD501      0.0000 
     48 H          -5.4182    9.2821   15.6920 H         1 1CD501      0.0000 
     49 H          -5.8697    7.6985   16.3467 H         1 1CD501      0.0000 
     50 H          -6.6551   10.7421   13.4913 H         1 1CD501      0.0000 
     51 H          -6.3213   10.2941   11.9833 H         1 1CD501      0.0000 
     52 H          -7.7592    9.9605   12.6216 H         1 1CD501      0.0000 
@<TRIPOS>BOND
     1    6    1 1    
     2   50    1 1    
     3   51    1 1    
     4   52    1 1    
     5    3    2 1    
     6    6    2 1    
     7   30    2 1    
     8   31    2 1    
     9    4    3 1    
    10   32    3 1    
    11   33    3 1    
    12    5    4 1    
    13   12    4 1    
    14   34    4 1    
    15    6    5 1    
    16   35    5 1    
    17   36    5 1    
    18   37    6 1    
    19    8    7 ar   
    20    9    7 ar   
    21   10    7 1    
    22   11    8 ar   
    23   12    8 1    
    24   13    9 ar   
    25   14    9 1    
    26   15   10 2    
    27   16   11 ar   
    28   38   11 1    
    29   16   13 ar   
    30   39   13 1    
    31   17   14 am   
    32   40   14 1    
    33   17   15 1    
    34   18   15 1    
    35   41   16 1    
    36   19   17 2    
    37   20   18 ar   
    38   21   18 ar   
    39   22   20 ar   
    40   23   20 1    
    41   24   21 ar   
    42   42   21 1    
    43   25   22 1    
    44   26   22 ar   
    45   27   23 1    
    46   43   23 1    
    47   26   24 ar   
    48   44   24 1    
    49   27   25 am   
    50   29   25 2    
    51   45   26 1    
    52   28   27 1    
    53   30   28 1    
    54   46   28 1    
    55   47   28 1    
    56   48   30 1    
    57   49   30 1    
@<TRIPOS>SUBSTRUCTURE
     1 1CD501      1 GROUP   
@<TRIPOS>SET

