#    Name: 2byh_2D7_1_INTS_M
#    Modification time : Mon Mar 24 21:57:38 2014

@<TRIPOS>MOLECULE
2byh_2D7_1_INTS_M
   65     0     9     0     0
SMALL
NO_CHARGES


@<TRIPOS>ATOM
      1 N           7.1675   -2.7145    5.5610 N.am      2 SEC2        0.0000 
      2 N           5.6560   -2.4880    5.5440 N.am      8 SEL2        0.0000 
      3 N           8.6790   -2.9410    5.5780 N.am      5 SEP2        0.0000 
      4 CA          4.4335   -3.4090    8.8605 C.3       3 GLC5        0.0000 
      5 CA          3.9620   -3.6990    6.6910 C.3       9 GLL5        0.0000 
      6 CA          4.9050   -3.1190   11.0300 C.3       6 GLP5        0.0000 
      7 CA          2.2935   -3.9625    5.3250 C.3       3 GLC5        0.0000 
      8 CA          0.6250   -4.2260    3.9590 C.3       6 GLP5        0.0000 
      9 CA          4.8755   -4.3605    4.8280 C.3       3 GLC5        0.0000 
     10 CA          5.7890   -5.0220    2.9650 C.3       6 GLP5        0.0000 
     11 CA          5.9565   -3.4190    7.3215 C.3       3 GLC5        0.0000 
     12 CA          7.9510   -3.1390    7.9520 C.3       6 GLP5        0.0000 
     13 CA          4.8290   -5.5265    6.9510 C.3       3 GLC5        0.0000 
     14 CA          5.6960   -7.3540    7.2110 C.3       6 GLP5        0.0000 
     15 CA          6.5930    2.2550    7.5795 C.3       3 GLC5        0.0000 
     16 CA          4.9460    1.0980    7.6980 C.3       9 GLL5        0.0000 
     17 CA          8.2400    3.4120    7.4610 C.3       6 GLP5        0.0000 
     18 N           0.5120    1.0360   10.6320 N.am      2 SEC2        0.0000 
     19 N           1.8700    1.8370   10.5490 N.am      8 SEL2        0.0000 
     20 N          -0.8460    0.2350   10.7150 N.am      5 SEP2        0.0000 
     21 O           5.0350    5.0065   13.9490 O.2       1 ALC1        0.0000 
     22 O           4.0790    5.2510   12.5160 O.2       7 ALL1        0.0000 
     23 O           5.9910    4.7620   15.3820 O.2       4 ALP1        0.0000 
     24 CA          4.5375    6.0980   11.2380 C.3       3 GLC5        0.0000 
     25 CA          4.3160    4.1910   11.7700 C.3       9 GLL5        0.0000 
     26 CA          4.7590    8.0050   10.7060 C.3       6 GLP5        0.0000 
     27 CA          6.1580   -1.5190   10.9580 C.3       3 GLC5        0.0000 
     28 CA          7.4110    0.0810   10.8860 C.3       9 GLL5        0.0000 
     29 CA          8.2180   -1.3365   10.5305 C.3       3 GLC5        0.0000 
     30 CA          9.0250   -2.7540   10.1750 C.3       6 GLP5        0.0000 
     31 CA          9.7845    1.9470   12.3990 C.3       3 GLC5        0.0000 
     32 CA          8.2720    2.6270   11.0890 C.3       9 GLL5        0.0000 
     33 CA         11.2970    1.2670   13.7090 C.3       6 GLP5        0.0000 
     34 O          10.4925    2.9780   10.8395 O.2       1 ALC1        0.0000 
     35 O           9.4540    2.0890   10.8230 O.2       7 ALL1        0.0000 
     36 O          11.5310    3.8670   10.8560 O.2       4 ALP1        0.0000 
     37 CA          5.8005    6.2545   11.1395 C.3       3 GLC5        0.0000 
     38 CA          6.8420    4.5040   11.5730 C.3       9 GLL5        0.0000 
     39 CA          7.1340    4.6470   13.4215 C.3       3 GLC5        0.0000 
     40 CA          7.4260    4.7900   15.2700 C.3       6 GLP5        0.0000 
     41 O           7.9120    6.4325   12.1655 O.2       1 ALC1        0.0000 
     42 O           6.7700    5.8180   11.8090 O.2       7 ALL1        0.0000 
     43 O           9.0540    7.0470   12.5220 O.2       4 ALP1        0.0000 
     44 CA          6.4115   -1.8907    7.5122 C.3       3 GLC5        0.0000 
     45 CA          4.5170   -1.2360    7.1850 C.3       9 GLL5        0.0000 
     46 CA          1.8077   -1.3220    9.5645 C.3       3 GLC5        0.0000 
     47 CA          3.5280   -1.2370    8.1690 C.3       9 GLL5        0.0000 
     48 CA          0.2230   -1.9820   10.5940 C.3       6 GLP5        0.0000 
     49 CA          4.2724   -1.8904    9.6595 C.3       3 GLC5        0.0000 
     50 CA          3.2570   -0.0870    8.9010 C.3       9 GLL5        0.0000 
     51 CA          2.9005    3.1890   12.9010 C.3       3 GLC5        0.0000 
     52 CA          3.0700    3.7810   11.1680 C.3       9 GLL5        0.0000 
     53 CA          2.1080    2.3920   14.3330 C.3       6 GLP5        0.0000 
     54 CA          6.8365    3.1513   13.2662 C.3       3 GLC5        0.0000 
     55 CA          5.9130    2.3050   11.3540 C.3       9 GLL5        0.0000 
     56 CA          7.8620    3.3180   15.0750 C.3       6 GLP5        0.0000 
     57 CA          7.9795    2.8152    9.2797 C.3       3 GLC5        0.0000 
     58 CA          7.1660    1.8100   11.1080 C.3       9 GLL5        0.0000 
     59 CA          5.5213    1.8301   12.9044 C.3       3 GLC5        0.0000 
     60 CA          4.5540    1.2630   14.5260 C.3       6 GLP5        0.0000 
     61 CA          7.8593    3.8245    9.4555 C.3       3 GLC5        0.0000 
     62 CA          8.1150    3.9700   11.3270 C.3       9 GLL5        0.0000 
     63 CA          8.3038    5.8800   10.3360 C.3       3 GLC5        0.0000 
     64 CA          9.1290    7.5230    9.2220 C.3       6 GLP5        0.0000 
     65 CA          7.8895    3.2061   13.1439 C.3       3 GLC5        0.0000 
@<TRIPOS>BOND
@<TRIPOS>SUBSTRUCTURE
     1 ALC1       21 GROUP        1 X    ALC  0     ROOT ALC X 1
     2 SEC2        1 GROUP        1 X    SEC  0     **** SEC X 2
     3 GLC5        4 GROUP        1 X    GLC  0     **** GLC X 6
     4 ALP1       23 GROUP        1 Y    ALP  0     ROOT ALP Y 8
     5 SEP2        3 GROUP        1 Y    SEP  0     **** SEP Y 9
     6 GLP5        6 GROUP        1 Y    GLP  0     **** GLP Y 13
     7 ALL1       22 GROUP        1 Z    ALL  0     ROOT ALL Z 15
     8 SEL2        2 GROUP        1 Z    SEL  0     **** SEL Z 16
     9 GLL5        5 GROUP        1 Z    GLL  0     **** GLL Z 20
@<TRIPOS>SET

