#    Name: 2byh_2D7_1_ligand
#    Modification time : Mon Mar 24 21:57:38 2014

@<TRIPOS>MOLECULE
2byh_2D7_1_ligand
   40    42     1     0     0
SMALL
NO_CHARGES


@<TRIPOS>ATOM
      1 O6          5.6560   -2.4880    5.5440 O.2       1 2D71226     0.0000 
      2 C17         4.7820   -2.4710    6.3870 C.2       1 2D71226     0.0000 
      3 C18         3.9620   -3.6990    6.6910 C.3       1 2D71226     0.0000 
      4 C14         4.5170   -1.2360    7.1850 C.ar      1 2D71226     0.0000 
      5 C15         3.5280   -1.2370    8.1690 C.ar      1 2D71226     0.0000 
      6 C16         3.2570   -0.0870    8.9010 C.ar      1 2D71226     0.0000 
      7 C13         5.2270   -0.0490    6.9600 C.ar      1 2D71226     0.0000 
      8 C12         4.9460    1.0980    7.6980 C.ar      1 2D71226     0.0000 
      9 C11         3.9150    1.1240    8.6270 C.ar      1 2D71226     0.0000 
     10 N3          3.7560    2.2280    9.3850 N.am      1 2D71226     0.0000 
     11 C10         2.8530    2.5610   10.3120 C.2       1 2D71226     0.0000 
     12 O5          1.8700    1.8370   10.5490 O.2       1 2D71226     0.0000 
     13 C8          3.0700    3.7810   11.1680 C.2       1 2D71226     0.0000 
     14 C9          2.1150    4.6050   11.7260 C.2       1 2D71226     0.0000 
     15 N1          2.7820    5.4630   12.5070 N.2       1 2D71226     0.0000 
     16 N2          4.0790    5.2510   12.5160 N.pl3     1 2D71226     0.0000 
     17 C7          4.3160    4.1910   11.7700 C.2       1 2D71226     0.0000 
     18 C5          5.7090    3.6640   11.5610 C.ar      1 2D71226     0.0000 
     19 C6          5.9130    2.3050   11.3540 C.ar      1 2D71226     0.0000 
     20 C1          7.1660    1.8100   11.1080 C.ar      1 2D71226     0.0000 
     21 CL1         7.4110    0.0810   10.8860 Cl        1 2D71226     0.0000 
     22 C2          8.2720    2.6270   11.0890 C.ar      1 2D71226     0.0000 
     23 O2          9.4540    2.0890   10.8230 O.3       1 2D71226     0.0000 
     24 C3          8.1150    3.9700   11.3270 C.ar      1 2D71226     0.0000 
     25 C4          6.8420    4.5040   11.5730 C.ar      1 2D71226     0.0000 
     26 O4          6.7700    5.8180   11.8090 O.3       1 2D71226     0.0000 
     27 H           2.9941   -2.1006    8.3533 H         1 2D71226     0.0000 
     28 H           2.5582   -0.1163    9.6639 H         1 2D71226     0.0000 
     29 H           5.9644   -0.0286    6.2397 H         1 2D71226     0.0000 
     30 H           5.5201    1.9495    7.5490 H         1 2D71226     0.0000 
     31 H           4.5387    3.0215    9.1972 H         1 2D71226     0.0000 
     32 H           1.1828    4.5537   11.5719 H         1 2D71226     0.0000 
     33 H           4.7463    5.7806   12.9882 H         1 2D71226     0.0000 
     34 H           5.0975    1.6626   11.3881 H         1 2D71226     0.0000 
     35 H           8.9316    4.6018   11.3276 H         1 2D71226     0.0000 
     36 H           4.5326   -4.4589    7.0024 H         1 2D71226     0.0000 
     37 H           3.2867   -3.5265    7.4081 H         1 2D71226     0.0000 
     38 H           3.4606   -4.0191    5.8872 H         1 2D71226     0.0000 
     39 H          10.1060    2.8425   10.9073 H         1 2D71226     0.0000 
     40 H           7.7066    6.0937   12.0253 H         1 2D71226     0.0000 
@<TRIPOS>BOND
     1    2    1 2    
     2    3    2 1    
     3    4    2 1    
     4   36    3 1    
     5   37    3 1    
     6   38    3 1    
     7    5    4 ar   
     8    7    4 ar   
     9    6    5 ar   
    10   27    5 1    
    11    9    6 ar   
    12   28    6 1    
    13    8    7 ar   
    14   29    7 1    
    15    9    8 ar   
    16   30    8 1    
    17   10    9 1    
    18   11   10 am   
    19   31   10 1    
    20   12   11 2    
    21   13   11 1    
    22   14   13 1    
    23   17   13 2    
    24   15   14 2    
    25   32   14 1    
    26   16   15 1    
    27   17   16 1    
    28   33   16 1    
    29   18   17 1    
    30   19   18 ar   
    31   25   18 ar   
    32   20   19 ar   
    33   34   19 1    
    34   21   20 1    
    35   22   20 ar   
    36   23   22 1    
    37   24   22 ar   
    38   39   23 1    
    39   25   24 ar   
    40   35   24 1    
    41   26   25 1    
    42   40   26 1    
@<TRIPOS>SUBSTRUCTURE
     1 2D71226     1 GROUP   
@<TRIPOS>SET

