#    Name: 2fb8_215_2_INTS_M
#    Modification time : Tue Mar 25 12:27:05 2014

@<TRIPOS>MOLECULE
2fb8_215_2_INTS_M
   61     0     9     0     0
SMALL
NO_CHARGES


@<TRIPOS>ATOM
      1 CA        -26.5255    2.3505   -7.4905 C.3       3 GLC5        0.0000 
      2 CA        -24.6130    3.3100   -7.5180 C.3       9 GLL5        0.0000 
      3 CA        -28.4380    1.3910   -7.4630 C.3       6 GLP5        0.0000 
      4 O         -24.7220    0.3370   -4.1255 O.2       1 ALC1        0.0000 
      5 O         -23.9080    1.3000   -4.5090 O.2       7 ALL1        0.0000 
      6 O         -25.5360   -0.6260   -3.7420 O.2       4 ALP1        0.0000 
      7 CA        -23.1445    5.9800   -9.2230 C.3       3 GLC5        0.0000 
      8 CA        -23.6920    4.4580   -8.0150 C.3       9 GLL5        0.0000 
      9 CA        -22.5970    7.5020  -10.4310 C.3       6 GLP5        0.0000 
     10 CA        -20.7400    3.1115   -8.0645 C.3       3 GLC5        0.0000 
     11 CA        -22.4010    4.2890   -7.2310 C.3       9 GLL5        0.0000 
     12 CA        -19.0790    1.9340   -8.8980 C.3       6 GLP5        0.0000 
     13 CA        -20.0750    4.4750   -8.9255 C.3       3 GLC5        0.0000 
     14 CA        -21.2210    5.0080   -7.4710 C.3       9 GLL5        0.0000 
     15 CA        -18.9290    3.9420  -10.3800 C.3       6 GLP5        0.0000 
     16 CA        -21.9090    6.2550   -8.9510 C.3       3 GLC5        0.0000 
     17 CA        -21.9340    1.0570   -6.3330 C.3       3 GLC5        0.0000 
     18 CA        -21.4380    2.9810   -5.4480 C.3       9 GLL5        0.0000 
     19 CA        -22.4300   -0.8670   -7.2180 C.3       6 GLP5        0.0000 
     20 CA        -22.0905    2.4845   -3.5205 C.3       3 GLC5        0.0000 
     21 CA        -22.7430    1.9880   -1.5930 C.3       6 GLP5        0.0000 
     22 CA        -21.0245   10.9365   -7.0820 C.3       3 GLC5        0.0000 
     23 CA        -21.2460    9.1450   -7.4030 C.3       9 GLL5        0.0000 
     24 CA        -20.8030   12.7280   -6.7610 C.3       6 GLP5        0.0000 
     25 N         -21.3910   11.1430   -8.7010 N.am      2 SEC2        0.0000 
     26 N         -20.8620    9.9260   -8.4340 N.am      8 SEL2        0.0000 
     27 N         -21.9200   12.3600   -8.9680 N.am      5 SEP2        0.0000 
     28 CA        -20.2890   11.2115   -7.9650 C.3       3 GLC5        0.0000 
     29 CA        -19.7750    9.6950   -9.1690 C.3       9 GLL5        0.0000 
     30 CA        -13.8670    2.0495   -8.9745 C.3       3 GLC5        0.0000 
     31 CA        -13.5910    3.2400   -7.1660 C.3       9 GLL5        0.0000 
     32 CA        -14.1430    0.8590  -10.7830 C.3       6 GLP5        0.0000 
     33 CA        -14.5160    5.7770   -8.7900 C.3       3 GLC5        0.0000 
     34 CA        -14.2210    5.9730   -6.7800 C.3       9 GLL5        0.0000 
     35 CA        -14.8110    5.5810  -10.8000 C.3       6 GLP5        0.0000 
     36 CA         -9.2940    6.1750   -3.0495 C.3       3 GLC5        0.0000 
     37 CA         -9.6030    5.8210   -4.9560 C.3       9 GLL5        0.0000 
     38 CA         -8.9850    6.5290   -1.1430 C.3       6 GLP5        0.0000 
     39 CA         -9.4805    7.8770   -5.8040 C.3       3 GLC5        0.0000 
     40 CA         -9.3580    9.9330   -6.6520 C.3       6 GLP5        0.0000 
     41 CA         -8.0965    6.6585   -4.8730 C.3       3 GLC5        0.0000 
     42 CA         -6.5900    7.4960   -4.7900 C.3       6 GLP5        0.0000 
     43 CA         -8.1410    4.8970   -2.3870 C.3       3 GLC5        0.0000 
     44 CA         -8.4390    4.0690   -3.5840 C.3       9 GLL5        0.0000 
     45 CA         -7.8430    5.7250   -1.1900 C.3       6 GLP5        0.0000 
     46 CA         -7.5145    5.7825   -4.1870 C.3       3 GLC5        0.0000 
     47 CA        -18.8062    4.9595   -8.7698 C.3       3 GLC5        0.0000 
     48 CA        -18.5140    6.5920   -7.4250 C.3       9 GLL5        0.0000 
     49 CA        -25.4997    4.8665   -7.4117 C.3       3 GLC5        0.0000 
     50 CA        -26.8470    5.8490   -7.0570 C.3       6 GLP5        0.0000 
     51 CA        -19.7889    2.9817   -7.5047 C.3       3 GLC5        0.0000 
     52 CA        -20.1490    4.7200   -6.6520 C.3       9 GLL5        0.0000 
     53 CA        -22.3347    8.1025   -5.8250 C.3       3 GLC5        0.0000 
     54 CA        -20.5170    8.0350   -7.0070 C.3       9 GLL5        0.0000 
     55 CA        -23.7880    7.6150   -4.4450 C.3       6 GLP5        0.0000 
     56 CA        -21.5980    8.0115   -8.9131 C.3       3 GLC5        0.0000 
     57 CA        -20.9962    8.3247   -9.7157 C.3       3 GLC5        0.0000 
     58 CA        -14.5704    4.6961   -8.9721 C.3       3 GLC5        0.0000 
     59 CA        -15.2290    5.0550   -7.0310 C.3       9 GLL5        0.0000 
     60 CA        -23.3119    2.1874   -8.2512 C.3       3 GLC5        0.0000 
     61 CA        -23.3180    0.5340   -9.2480 C.3       6 GLP5        0.0000 
@<TRIPOS>BOND
@<TRIPOS>SUBSTRUCTURE
     1 ALC1        4 GROUP        1 X    ALC  0     ROOT ALC X 1
     2 SEC2       25 GROUP        1 X    SEC  0     **** SEC X 2
     3 GLC5        1 GROUP        1 X    GLC  0     **** GLC X 6
     4 ALP1        6 GROUP        1 Y    ALP  0     ROOT ALP Y 8
     5 SEP2       27 GROUP        1 Y    SEP  0     **** SEP Y 9
     6 GLP5        3 GROUP        1 Y    GLP  0     **** GLP Y 13
     7 ALL1        5 GROUP        1 Z    ALL  0     ROOT ALL Z 15
     8 SEL2       26 GROUP        1 Z    SEL  0     **** SEL Z 16
     9 GLL5        2 GROUP        1 Z    GLL  0     **** GLL Z 20
@<TRIPOS>SET

