#    Name: 2fb8_215_2_ligand
#    Modification time : Tue Mar 25 12:27:05 2014

@<TRIPOS>MOLECULE
2fb8_215_2_ligand
   62    66     1     0     0
SMALL
NO_CHARGES


@<TRIPOS>ATOM
      1 C3        -18.8530    5.3620   -6.8940 C.2       1 215101      0.0000 
      2 C5        -16.6620    5.4450   -7.0940 C.2       1 215101      0.0000 
      3 C6        -15.2290    5.0550   -7.0310 C.ar      1 215101      0.0000 
      4 C21       -14.9080    3.7100   -7.2140 C.ar      1 215101      0.0000 
      5 C23       -10.6730    3.2370   -5.6370 C.3       1 215101      0.0000 
      6 C31       -24.6130    3.3100   -7.5180 C.3       1 215101      0.0000 
      7 C32       -23.9060    2.7290   -6.3290 C.2       1 215101      0.0000 
      8 O34       -23.9080    1.3000   -4.5090 O.3       1 215101      0.0000 
      9 N33       -24.5090    1.8800   -5.6200 N.2       1 215101      0.0000 
     10 C30       -23.6920    4.4580   -8.0150 C.3       1 215101      0.0000 
     11 C29       -22.4010    4.2890   -7.2310 C.ar      1 215101      0.0000 
     12 C9        -21.2210    5.0080   -7.4710 C.ar      1 215101      0.0000 
     13 C28       -22.5170    3.3060   -6.2540 C.ar      1 215101      0.0000 
     14 C10       -21.4380    2.9810   -5.4480 C.ar      1 215101      0.0000 
     15 C11       -20.2590    3.6970   -5.6940 C.ar      1 215101      0.0000 
     16 C8        -20.1490    4.7200   -6.6520 C.ar      1 215101      0.0000 
     17 C2        -18.5140    6.5920   -7.4250 C.2       1 215101      0.0000 
     18 C7        -19.3870    7.7590   -7.7680 C.ar      1 215101      0.0000 
     19 C16       -20.5170    8.0350   -7.0070 C.ar      1 215101      0.0000 
     20 C15       -21.2460    9.1450   -7.4030 C.ar      1 215101      0.0000 
     21 N14       -20.8620    9.9260   -8.4340 N.ar      1 215101      0.0000 
     22 C13       -19.7750    9.6950   -9.1690 C.ar      1 215101      0.0000 
     23 C12       -19.0160    8.6000   -8.8320 C.ar      1 215101      0.0000 
     24 N4        -17.7090    4.6740   -6.7280 N.2       1 215101      0.0000 
     25 N1        -17.1490    6.6260   -7.5190 N.pl3     1 215101      0.0000 
     26 C20       -13.5910    3.2400   -7.1660 C.ar      1 215101      0.0000 
     27 C19       -12.5730    4.1320   -6.9150 C.ar      1 215101      0.0000 
     28 C18       -12.9000    5.4910   -6.7150 C.ar      1 215101      0.0000 
     29 C17       -14.2210    5.9730   -6.7800 C.ar      1 215101      0.0000 
     30 O22       -11.2810    3.6610   -6.8760 O.3       1 215101      0.0000 
     31 C24        -9.1480    3.4050   -5.6720 C.3       1 215101      0.0000 
     32 N25        -8.6950    4.5970   -4.9300 N.4       1 215101      0.0000 
     33 C27        -9.6030    5.8210   -4.9560 C.3       1 215101      0.0000 
     34 C26        -8.4390    4.0690   -3.5840 C.3       1 215101      0.0000 
     35 H         -15.6768    3.0280   -7.3933 H         1 215101      0.0000 
     36 H         -10.8877    2.1777   -5.4282 H         1 215101      0.0000 
     37 H         -11.0539    3.8202   -4.7845 H         1 215101      0.0000 
     38 H         -25.5527    3.7252   -7.2344 H         1 215101      0.0000 
     39 H         -24.7052    2.5863   -8.2949 H         1 215101      0.0000 
     40 H         -24.1459    5.3902   -7.7828 H         1 215101      0.0000 
     41 H         -23.5122    4.3313   -9.0545 H         1 215101      0.0000 
     42 H         -21.1705    5.6932   -8.2023 H         1 215101      0.0000 
     43 H         -21.4893    2.2838   -4.7367 H         1 215101      0.0000 
     44 H         -19.4049    3.4564   -5.1297 H         1 215101      0.0000 
     45 H         -20.7835    7.4706   -6.2284 H         1 215101      0.0000 
     46 H         -22.1245    9.3729   -6.8729 H         1 215101      0.0000 
     47 H         -19.5013   10.2915   -9.9502 H         1 215101      0.0000 
     48 H         -18.1537    8.3788   -9.3623 H         1 215101      0.0000 
     49 H         -16.6350    7.3756   -7.8375 H         1 215101      0.0000 
     50 H         -13.3984    2.2475   -7.3164 H         1 215101      0.0000 
     51 H         -12.1311    6.1628   -6.5112 H         1 215101      0.0000 
     52 H         -14.4170    6.9545   -6.6471 H         1 215101      0.0000 
     53 H          -8.8351    3.4663   -6.7259 H         1 215101      0.0000 
     54 H          -8.6942    2.4945   -5.2508 H         1 215101      0.0000 
     55 H          -7.7042    4.8841   -5.3491 H         1 215101      0.0000 
     56 H          -9.2176    6.5805   -4.4319 H         1 215101      0.0000 
     57 H          -9.7519    6.1533   -5.8874 H         1 215101      0.0000 
     58 H         -10.5032    5.6239   -4.5677 H         1 215101      0.0000 
     59 H          -7.7444    3.3497   -3.5931 H         1 215101      0.0000 
     60 H          -8.1153    4.7811   -2.9611 H         1 215101      0.0000 
     61 H          -9.2631    3.6755   -3.1765 H         1 215101      0.0000 
     62 H         -24.1825    0.3389   -4.5386 H         1 215101      0.0000 
@<TRIPOS>BOND
     1   16    1 1    
     2   17    1 2    
     3   24    1 1    
     4    3    2 1    
     5   24    2 2    
     6   25    2 1    
     7    4    3 ar   
     8   29    3 ar   
     9   26    4 ar   
    10   35    4 1    
    11   30    5 1    
    12   31    5 1    
    13   36    5 1    
    14   37    5 1    
    15    7    6 1    
    16   10    6 1    
    17   38    6 1    
    18   39    6 1    
    19    9    7 2    
    20   13    7 1    
    21    9    8 1    
    22   62    8 1    
    23   11   10 1    
    24   40   10 1    
    25   41   10 1    
    26   12   11 ar   
    27   13   11 ar   
    28   16   12 ar   
    29   42   12 1    
    30   14   13 ar   
    31   15   14 ar   
    32   43   14 1    
    33   16   15 ar   
    34   44   15 1    
    35   18   17 1    
    36   25   17 1    
    37   19   18 ar   
    38   23   18 ar   
    39   20   19 ar   
    40   45   19 1    
    41   21   20 ar   
    42   46   20 1    
    43   22   21 ar   
    44   23   22 ar   
    45   47   22 1    
    46   48   23 1    
    47   49   25 1    
    48   27   26 ar   
    49   50   26 1    
    50   28   27 ar   
    51   30   27 1    
    52   29   28 ar   
    53   51   28 1    
    54   52   29 1    
    55   32   31 1    
    56   53   31 1    
    57   54   31 1    
    58   33   32 1    
    59   34   32 1    
    60   55   32 1    
    61   56   33 1    
    62   57   33 1    
    63   58   33 1    
    64   59   34 1    
    65   60   34 1    
    66   61   34 1    
@<TRIPOS>SUBSTRUCTURE
     1 215101      1 GROUP   
@<TRIPOS>SET

