#    Name: 3rfa_SAM_2_INTS_M
#    Modification time : Tue Mar 25 11:24:10 2014

@<TRIPOS>MOLECULE
3rfa_SAM_2_INTS_M
   64     0    12     0     0
SMALL
NO_CHARGES


@<TRIPOS>ATOM
      1 OD1       -14.6850   -6.8830  -44.6810 O.co2     3 ASC3        0.0000 
      2 OD1       -13.2950   -7.1260  -45.2540 O.co2    11 ASL3        0.0000 
      3 OD1       -16.0750   -6.6400  -44.1080 O.co2     7 ASP3        0.0000 
      4 O         -12.2465   -6.2455  -44.5090 O.2       1 ALC1        0.0000 
      5 O         -13.2950   -7.1260  -45.2540 O.2       9 ALL1        0.0000 
      6 O         -11.1980   -5.3650  -43.7640 O.2       5 ALP1        0.0000 
      7 O         -14.6850   -6.8830  -44.6810 O.2       1 ALC1        0.0000 
      8 O         -16.0750   -6.6400  -44.1080 O.2       5 ALP1        0.0000 
      9 CA        -13.6220   -5.8445  -44.3245 C.3       4 GLC5        0.0000 
     10 CA        -13.7040   -6.3530  -46.4660 C.3      12 GLL5        0.0000 
     11 CA        -13.5400   -5.3360  -42.1830 C.3       8 GLP5        0.0000 
     12 CA        -15.6350   -5.7770  -46.7285 C.3       4 GLC5        0.0000 
     13 CA        -17.5660   -5.2010  -46.9910 C.3       8 GLP5        0.0000 
     14 N         -14.7245   -5.9175  -49.4420 N.am      2 SEC2        0.0000 
     15 N         -14.7360   -6.8190  -48.5910 N.am     10 SEL2        0.0000 
     16 N         -14.7130   -5.0160  -50.2930 N.am      6 SEP2        0.0000 
     17 N         -15.1560   -7.5990  -49.4675 N.am      2 SEC2        0.0000 
     18 N         -15.5760   -8.3790  -50.3440 N.am      6 SEP2        0.0000 
     19 N         -14.8590   -8.4355  -48.9065 N.am      2 SEC2        0.0000 
     20 N         -14.1420   -8.4920  -47.4690 N.am     10 SEL2        0.0000 
     21 CA        -13.5370   -4.5685  -48.5665 C.3       4 GLC5        0.0000 
     22 CA        -12.5420   -5.5060  -46.9960 C.3      12 GLL5        0.0000 
     23 CA        -14.5320   -3.6310  -50.1370 C.3       8 GLP5        0.0000 
     24 CA         -8.9790  -10.1175  -46.8380 C.3       4 GLC5        0.0000 
     25 CA         -9.2920   -8.1470  -47.7680 C.3      12 GLL5        0.0000 
     26 CA         -8.6660  -12.0880  -45.9080 C.3       8 GLP5        0.0000 
     27 CA         -7.7375   -8.4025  -47.2395 C.3       4 GLC5        0.0000 
     28 CA         -6.1830   -8.6580  -46.7110 C.3       8 GLP5        0.0000 
     29 CA        -10.5560   -5.2420  -50.2540 C.3       4 GLC5        0.0000 
     30 CA        -11.0540   -6.9570  -49.6240 C.3      12 GLL5        0.0000 
     31 CA        -10.0580   -3.5270  -50.8840 C.3       8 GLP5        0.0000 
     32 CA        -11.4160   -6.5525  -51.9900 C.3       4 GLC5        0.0000 
     33 CA        -11.3080   -7.9660  -50.7350 C.3      12 GLL5        0.0000 
     34 CA        -11.5240   -5.1390  -53.2450 C.3       8 GLP5        0.0000 
     35 CA        -14.5300   -9.1120  -50.2450 C.3       4 GLC5        0.0000 
     36 CA        -12.4820   -8.8920  -50.4470 C.3      12 GLL5        0.0000 
     37 CA        -16.5780   -9.3320  -50.0430 C.3       8 GLP5        0.0000 
     38 O         -14.5045   -8.5710  -50.9105 O.2       1 ALC1        0.0000 
     39 O         -13.4330   -8.7630  -51.4770 O.2       9 ALL1        0.0000 
     40 O         -15.5760   -8.3790  -50.3440 O.2       5 ALP1        0.0000 
     41 CA         -5.6275  -13.5585  -53.4305 C.3       4 GLC5        0.0000 
     42 CA         -7.1600  -13.4640  -52.0390 C.3      12 GLL5        0.0000 
     43 CA         -4.0950  -13.6530  -54.8220 C.3       8 GLP5        0.0000 
     44 O          -5.3020  -15.0650  -52.1695 O.2       1 ALC1        0.0000 
     45 O          -6.2660  -14.2480  -51.4410 O.2       9 ALL1        0.0000 
     46 O          -4.3380  -15.8820  -52.8980 O.2       5 ALP1        0.0000 
     47 N          -6.6290  -14.3250  -54.3850 N.am      2 SEC2        0.0000 
     48 N          -7.2930  -13.4810  -53.4150 N.am     10 SEL2        0.0000 
     49 N          -5.9650  -15.1690  -55.3550 N.am      6 SEP2        0.0000 
     50 CA         -9.7215  -13.7570  -54.4080 C.3       4 GLC5        0.0000 
     51 CA         -8.2160  -12.6620  -54.0420 C.3      12 GLL5        0.0000 
     52 CA        -11.2270  -14.8520  -54.7740 C.3       8 GLP5        0.0000 
     53 CA         -9.0110  -11.8130  -55.6705 C.3       4 GLC5        0.0000 
     54 CA         -9.8060  -10.9640  -57.2990 C.3       8 GLP5        0.0000 
     55 CA         -8.1315  -14.2835  -55.1890 C.3       4 GLC5        0.0000 
     56 CA         -8.0470  -15.9050  -56.3360 C.3       8 GLP5        0.0000 
     57 CA         -6.1555  -13.1575  -54.4320 C.3       4 GLC5        0.0000 
     58 CA        -13.4855   -4.5962  -45.4715 C.3       4 GLC5        0.0000 
     59 CA        -13.8480   -3.2630  -44.2120 C.3       8 GLP5        0.0000 
     60 CA        -10.8528   -4.5765  -48.1808 C.3       4 GLC5        0.0000 
     61 CA         -9.8500   -3.3130  -49.3820 C.3       8 GLP5        0.0000 
     62 CA        -11.6348  -12.1102  -50.4170 C.3       4 GLC5        0.0000 
     63 CA        -11.8920  -10.2920  -50.4560 C.3      12 GLL5        0.0000 
     64 CA        -12.0230  -14.0260  -49.9930 C.3       8 GLP5        0.0000 
@<TRIPOS>BOND
@<TRIPOS>SUBSTRUCTURE
     1 ALC1        4 GROUP        1 X    ALC  0     ROOT ALC X 1
     2 SEC2       14 GROUP        1 X    SEC  0     **** SEC X 2
     3 ASC3        1 GROUP        1 X    ASC  0     **** ASC X 3
     4 GLC5        9 GROUP        1 X    GLC  0     **** GLC X 6
     5 ALP1        6 GROUP        1 Y    ALP  0     ROOT ALP Y 8
     6 SEP2       16 GROUP        1 Y    SEP  0     **** SEP Y 9
     7 ASP3        3 GROUP        1 Y    ASP  0     **** ASP Y 10
     8 GLP5       11 GROUP        1 Y    GLP  0     **** GLP Y 13
     9 ALL1        5 GROUP        1 Z    ALL  0     ROOT ALL Z 15
    10 SEL2       15 GROUP        1 Z    SEL  0     **** SEL Z 16
    11 ASL3        2 GROUP        1 Z    ASL  0     **** ASL Z 17
    12 GLL5       10 GROUP        1 Z    GLL  0     **** GLL Z 20
@<TRIPOS>SET

