#    Name: 3rfa_SAM_2_ligand
#    Modification time : Tue Mar 25 11:24:10 2014

@<TRIPOS>MOLECULE
3rfa_SAM_2_ligand
   50    52     1     0     0
SMALL
NO_CHARGES


@<TRIPOS>ATOM
      1 N         -13.2950   -7.1260  -45.2540 N.4       1 SAM406      0.0000 
      2 CA        -13.7040   -6.3530  -46.4660 C.3       1 SAM406      0.0000 
      3 C         -14.2300   -7.2720  -47.5660 C.2       1 SAM406      0.0000 
      4 O         -14.7360   -6.8190  -48.5910 O.co2     1 SAM406      0.0000 
      5 OXT       -14.1420   -8.4920  -47.4690 O.co2     1 SAM406      0.0000 
      6 CB        -12.5420   -5.5060  -46.9960 C.3       1 SAM406      0.0000 
      7 CG        -11.1690   -6.1740  -46.9630 C.3       1 SAM406      0.0000 
      8 SD        -11.0250   -7.6780  -47.9590 S.3       1 SAM406      0.0000 
      9 CE         -9.2920   -8.1470  -47.7680 C.3       1 SAM406      0.0000 
     10 C5'       -11.0540   -6.9570  -49.6240 C.3       1 SAM406      0.0000 
     11 C4'       -11.3080   -7.9660  -50.7350 C.3       1 SAM406      0.0000 
     12 O4'       -10.1760   -8.7930  -50.8910 O.3       1 SAM406      0.0000 
     13 C3'       -12.4820   -8.8920  -50.4470 C.3       1 SAM406      0.0000 
     14 O3'       -13.4330   -8.7630  -51.4770 O.3       1 SAM406      0.0000 
     15 C2'       -11.8920  -10.2920  -50.4560 C.3       1 SAM406      0.0000 
     16 O2'       -12.7100  -11.1820  -51.1670 O.3       1 SAM406      0.0000 
     17 C1'       -10.6010  -10.0970  -51.2260 C.3       1 SAM406      0.0000 
     18 N9         -9.5450  -11.0970  -50.9570 N.pl3     1 SAM406      0.0000 
     19 C8         -9.0220  -11.4670  -49.7450 C.2       1 SAM406      0.0000 
     20 N7         -8.0620  -12.3960  -49.9550 N.2       1 SAM406      0.0000 
     21 C5         -7.9700  -12.6230  -51.2830 C.ar      1 SAM406      0.0000 
     22 C6         -7.1600  -13.4640  -52.0390 C.ar      1 SAM406      0.0000 
     23 N6         -6.2660  -14.2480  -51.4410 N.pl3     1 SAM406      0.0000 
     24 N1         -7.2930  -13.4810  -53.4150 N.ar      1 SAM406      0.0000 
     25 C2         -8.2160  -12.6620  -54.0420 C.ar      1 SAM406      0.0000 
     26 N3         -9.0130  -11.8280  -53.2830 N.ar      1 SAM406      0.0000 
     27 C4         -8.8950  -11.8120  -51.9260 C.ar      1 SAM406      0.0000 
     28 H         -14.5114   -5.6658  -46.1926 H         1 SAM406      0.0000 
     29 H         -12.4955   -4.5641  -46.4117 H         1 SAM406      0.0000 
     30 H         -12.7693   -5.2074  -48.0400 H         1 SAM406      0.0000 
     31 H         -10.8866   -6.5226  -45.9765 H         1 SAM406      0.0000 
     32 H         -10.3807   -5.5515  -47.3698 H         1 SAM406      0.0000 
     33 H         -10.0846   -6.4845  -49.6840 H         1 SAM406      0.0000 
     34 H         -11.8288   -6.2099  -49.5347 H         1 SAM406      0.0000 
     35 H         -11.5190   -7.4325  -51.6509 H         1 SAM406      0.0000 
     36 H         -12.8538   -8.6797  -49.4856 H         1 SAM406      0.0000 
     37 H         -11.6614  -10.5767  -49.4779 H         1 SAM406      0.0000 
     38 H         -10.8649  -10.1194  -52.2941 H         1 SAM406      0.0000 
     39 H          -9.2992  -11.1175  -48.8926 H         1 SAM406      0.0000 
     40 H          -6.2038  -14.1654  -50.4464 H         1 SAM406      0.0000 
     41 H          -5.7371  -14.8490  -52.0402 H         1 SAM406      0.0000 
     42 H          -8.3065  -12.6756  -55.0658 H         1 SAM406      0.0000 
     43 H         -14.0523   -7.2352  -44.6101 H         1 SAM406      0.0000 
     44 H         -12.9755   -8.0439  -45.4892 H         1 SAM406      0.0000 
     45 H         -12.5523   -6.6751  -44.7591 H         1 SAM406      0.0000 
     46 H          -8.6753   -7.4331  -48.0996 H         1 SAM406      0.0000 
     47 H          -9.0564   -8.3165  -46.8110 H         1 SAM406      0.0000 
     48 H          -9.0748   -8.9809  -48.2755 H         1 SAM406      0.0000 
     49 H         -14.1473   -8.1751  -51.0974 H         1 SAM406      0.0000 
     50 H         -13.2002  -10.6122  -51.8265 H         1 SAM406      0.0000 
@<TRIPOS>BOND
     1    2    1 1    
     2   43    1 1    
     3   44    1 1    
     4   45    1 1    
     5    3    2 1    
     6    6    2 1    
     7   28    2 1    
     8    4    3 ar   
     9    5    3 ar   
    10    7    6 1    
    11   29    6 1    
    12   30    6 1    
    13    8    7 1    
    14   31    7 1    
    15   32    7 1    
    16    9    8 1    
    17   10    8 1    
    18   46    9 1    
    19   47    9 1    
    20   48    9 1    
    21   11   10 1    
    22   33   10 1    
    23   34   10 1    
    24   12   11 1    
    25   13   11 1    
    26   35   11 1    
    27   17   12 1    
    28   14   13 1    
    29   15   13 1    
    30   36   13 1    
    31   49   14 1    
    32   16   15 1    
    33   17   15 1    
    34   37   15 1    
    35   50   16 1    
    36   18   17 1    
    37   38   17 1    
    38   19   18 1    
    39   27   18 1    
    40   20   19 2    
    41   39   19 1    
    42   21   20 1    
    43   22   21 ar   
    44   27   21 ar   
    45   23   22 1    
    46   24   22 ar   
    47   40   23 1    
    48   41   23 1    
    49   25   24 ar   
    50   26   25 ar   
    51   42   25 1    
    52   27   26 ar   
@<TRIPOS>SUBSTRUCTURE
     1 SAM406      1 GROUP   
@<TRIPOS>SET

