#    Name: 4GAA_1_CAVITY_N1_6.mol2
#    Modification time : Mon Mar 10 23:05:38 2014

@<TRIPOS>MOLECULE
4GAA_1_CAVITY_N1_6.mol2
  148     0     7     0     0
SMALL
NO_CHARGES


@<TRIPOS>ATOM
      1 CZ         -5.6977   27.8022   24.4796 C.ar      5 PHE5        0.0000 
      2 CZ         -5.1833   26.4030   24.6456 C.ar      5 PHE5        0.0000 
      3 OG         -7.0645   27.3496   24.9002 O.2       1 SER1        0.0000 
      4 N          -6.5501   25.9504   25.0661 N.2       2 ALA2        0.0000 
      5 NZ         -8.4314   26.8970   25.3207 N.2       4 LYS4        0.0000 
      6 NZ         -7.9170   25.4978   25.4867 N.2       4 LYS4        0.0000 
      7 O          -6.5501   30.3643   35.1665 O.2       2 ALA2        0.0000 
      8 NZ         -6.0357   28.9651   35.3324 N.2       4 LYS4        0.0000 
      9 NZ         -5.5213   27.5659   35.4984 N.2       4 LYS4        0.0000 
     10 NZ         -5.5255   30.5215   33.3157 N.2       4 LYS4        0.0000 
     11 DU         -5.0111   29.1223   33.4816 H         7 CUB7        0.0000 
     12 DU         -4.4967   27.7230   33.6476 H         7 CUB7        0.0000 
     13 DU         -3.9823   26.3238   33.8135 H         7 CUB7        0.0000 
     14 CA         -3.4679   24.9246   33.9795 C.3       6 GLY6        0.0000 
     15 NZ         -6.8924   30.0689   33.7362 N.2       4 LYS4        0.0000 
     16 NZ         -6.3780   28.6696   33.9022 N.2       4 LYS4        0.0000 
     17 NZ         -5.8636   27.2704   34.0681 N.2       4 LYS4        0.0000 
     18 NZ         -5.3492   25.8712   34.2341 N.2       4 LYS4        0.0000 
     19 CZ         -7.9212   28.4534   23.3040 C.ar      5 PHE5        0.0000 
     20 N          -7.4068   27.0542   23.4699 N.2       2 ALA2        0.0000 
     21 N          -6.8924   25.6549   23.6359 N.2       2 ALA2        0.0000 
     22 N          -8.7736   26.6016   23.8905 N.2       2 ALA2        0.0000 
     23 CZ         -1.2549   29.4555   24.6482 C.ar      5 PHE5        0.0000 
     24 CZ         -0.7405   28.0563   24.8141 C.ar      5 PHE5        0.0000 
     25 CZ         -2.6218   29.0029   25.0687 C.ar      5 PHE5        0.0000 
     26 CZ         -2.1074   27.6037   25.2347 C.ar      5 PHE5        0.0000 
     27 CZ         -3.4742   27.1511   25.6552 C.ar      5 PHE5        0.0000 
     28 OG         -5.3555   28.0977   25.9099 O.2       1 SER1        0.0000 
     29 CZ         -4.8411   26.6984   26.0758 C.ar      5 PHE5        0.0000 
     30 N          -4.3267   25.2992   26.2417 N.2       2 ALA2        0.0000 
     31 OG         -6.2079   26.2458   26.4964 O.2       1 SER1        0.0000 
     32 CZ         -4.5009   30.6787   31.4649 C.ar      5 PHE5        0.0000 
     33 DU         -3.9865   29.2794   31.6308 H         7 CUB7        0.0000 
     34 DU         -3.4721   27.8802   31.7968 H         7 CUB7        0.0000 
     35 O          -2.9577   26.4810   31.9627 O.2       2 ALA2        0.0000 
     36 O          -2.4433   25.0817   32.1287 O.2       2 ALA2        0.0000 
     37 CA         -1.9289   23.6825   32.2946 C.3       6 GLY6        0.0000 
     38 CZ         -5.8678   30.2261   31.8854 C.ar      5 PHE5        0.0000 
     39 CZ         -5.3534   28.8268   32.0514 C.ar      5 PHE5        0.0000 
     40 DU         -4.8390   27.4276   32.2173 H         7 CUB7        0.0000 
     41 DU         -4.3246   26.0284   32.3833 H         7 CUB7        0.0000 
     42 CA         -3.8102   24.6291   32.5492 C.3       6 GLY6        0.0000 
     43 CZ         -7.2346   29.7734   32.3060 C.ar      5 PHE5        0.0000 
     44 CZ         -6.7202   28.3742   32.4719 C.ar      5 PHE5        0.0000 
     45 O          -6.2058   26.9750   32.6379 O.2       2 ALA2        0.0000 
     46 CA         -5.6914   25.5757   32.8038 C.3       6 GLY6        0.0000 
     47 CA         -5.1770   24.1765   32.9698 C.3       6 GLY6        0.0000 
     48 DU         -1.0786   29.2191   35.6669 H         7 CUB7        0.0000 
     49 DU         -0.5642   27.8199   35.8329 H         7 CUB7        0.0000 
     50 CA         -0.0498   26.4207   35.9988 C.3       6 GLY6        0.0000 
     51 OD1        -2.4454   28.7665   36.0875 O.3       3 ASP3        0.0000 
     52 OD1        -1.9310   27.3673   36.2534 O.3       3 ASP3        0.0000 
     53 CZ         -6.0399   27.5068   23.0494 C.ar      5 PHE5        0.0000 
     54 OD1        -2.7918   31.4267   32.4745 O.3       3 ASP3        0.0000 
     55 OD1        -2.2774   30.0275   32.6405 O.3       3 ASP3        0.0000 
     56 OD1        -1.2486   27.2290   32.9724 O.3       3 ASP3        0.0000 
     57 O          -0.7342   25.8298   33.1383 O.2       2 ALA2        0.0000 
     58 CA         -0.2198   24.4306   33.3043 C.3       6 GLY6        0.0000 
     59 NZ         -4.6731   32.3733   32.7292 N.2       4 LYS4        0.0000 
     60 NZ         -4.1587   30.9741   32.8951 N.2       4 LYS4        0.0000 
     61 DU         -3.6443   29.5749   33.0611 H         7 CUB7        0.0000 
     62 OD1        -3.1299   28.1756   33.2270 O.3       3 ASP3        0.0000 
     63 DU         -2.6155   26.7764   33.3929 H         7 CUB7        0.0000 
     64 DU         -2.1011   25.3772   33.5589 H         7 CUB7        0.0000 
     65 CA         -1.5867   23.9779   33.7248 C.3       6 GLY6        0.0000 
     66 OG         -5.8657   26.5413   27.9266 O.2       1 SER1        0.0000 
     67 N          -5.3513   25.1420   28.0926 N.2       2 ALA2        0.0000 
     68 CZ         -6.3822   27.2113   21.6191 C.ar      5 PHE5        0.0000 
     69 N          -7.7490   26.7587   22.0397 N.2       2 ALA2        0.0000 
     70 CA         -1.0849   31.4456   27.3427 C.3       6 GLY6        0.0000 
     71 CZ         -2.9661   32.3922   27.5973 C.ar      5 PHE5        0.0000 
     72 CZ         -2.4517   30.9930   27.7633 C.ar      5 PHE5        0.0000 
     73 CA         -1.9373   29.5938   27.9292 C.3       6 GLY6        0.0000 
     74 CA         -1.4229   28.1946   28.0952 C.3       6 GLY6        0.0000 
     75 CA         -1.7672   31.5839   30.6237 C.3       6 GLY6        0.0000 
     76 OD1        -3.1341   31.1313   31.0443 O.3       3 ASP3        0.0000 
     77 OD1        -2.6197   29.7321   31.2103 O.3       3 ASP3        0.0000 
     78 OD1        -2.1053   28.3328   31.3762 O.3       3 ASP3        0.0000 
     79 O          -0.5621   24.1351   31.8740 O.2       2 ALA2        0.0000 
     80 CA         -0.7426   31.7411   28.7729 C.3       6 GLY6        0.0000 
     81 OG         -2.6239   32.6877   29.0276 O.2       1 SER1        0.0000 
     82 CA         -2.1095   31.2885   29.1935 C.3       6 GLY6        0.0000 
     83 CA         -1.5951   29.8892   29.3594 C.3       6 GLY6        0.0000 
     84 OG         -3.9907   32.2351   29.4481 O.2       1 SER1        0.0000 
     85 DU         -3.4763   30.8358   29.6141 H         7 CUB7        0.0000 
     86 OD1        -2.9619   29.4366   29.7800 O.3       3 ASP3        0.0000 
     87 O          -2.4475   28.0374   29.9460 O.2       2 ALA2        0.0000 
     88 CZ         -4.8432   30.3832   30.0346 C.ar      5 PHE5        0.0000 
     89 CZ         -4.3288   28.9840   30.2006 C.ar      5 PHE5        0.0000 
     90 DU         -3.8144   27.5848   30.3665 H         7 CUB7        0.0000 
     91 O          -3.3000   26.1855   30.5325 O.2       2 ALA2        0.0000 
     92 CA         -2.7855   24.7863   30.6984 C.3       6 GLY6        0.0000 
     93 CZ         -5.6956   28.5314   30.6211 C.ar      5 PHE5        0.0000 
     94 DU         -5.1812   27.1321   30.7871 H         7 CUB7        0.0000 
     95 DU         -4.6668   25.7329   30.9530 H         7 CUB7        0.0000 
     96 CA         -4.1524   24.3337   31.1190 C.3       6 GLY6        0.0000 
     97 CZ         -7.0624   28.0788   31.0417 C.ar      5 PHE5        0.0000 
     98 N          -6.5480   26.6795   31.2076 N.2       2 ALA2        0.0000 
     99 CA         -6.0336   25.2803   31.3736 C.3       6 GLY6        0.0000 
    100 CA         -5.5192   23.8811   31.5395 C.3       6 GLY6        0.0000 
    101 CZ         -4.3329   31.9396   28.0179 C.ar      5 PHE5        0.0000 
    102 CZ         -3.8185   30.5404   28.1838 C.ar      5 PHE5        0.0000 
    103 DU         -3.3041   29.1412   28.3498 H         7 CUB7        0.0000 
    104 O          -2.7897   27.7419   28.5157 O.2       2 ALA2        0.0000 
    105 O          -2.2753   26.3427   28.6817 O.2       2 ALA2        0.0000 
    106 CZ         -5.1854   30.0878   28.6044 C.ar      5 PHE5        0.0000 
    107 CZ         -4.6710   28.6886   28.7703 C.ar      5 PHE5        0.0000 
    108 DU         -4.1566   27.2893   28.9363 H         7 CUB7        0.0000 
    109 O          -3.6422   25.8901   29.1022 O.2       2 ALA2        0.0000 
    110 O          -3.1278   24.4909   29.2682 O.2       2 ALA2        0.0000 
    111 CZ         -5.5234   26.8367   29.3568 C.ar      5 PHE5        0.0000 
    112 NZ         -5.0090   25.4375   29.5228 N.2       4 LYS4        0.0000 
    113 NZ         -4.4946   24.0382   29.6887 N.2       4 LYS4        0.0000 
    114 CA         -6.3759   24.9849   29.9434 C.3       6 GLY6        0.0000 
    115 CZ         -1.4271   31.1502   25.9125 C.ar      5 PHE5        0.0000 
    116 CA         -0.9127   29.7510   26.0784 C.3       6 GLY6        0.0000 
    117 CA         -0.3983   28.3517   26.2443 C.3       6 GLY6        0.0000 
    118 CZ         -2.2795   29.2983   26.4990 C.ar      5 PHE5        0.0000 
    119 CA         -1.7651   27.8991   26.6649 C.3       6 GLY6        0.0000 
    120 O          -1.2507   26.4999   26.8309 O.2       2 ALA2        0.0000 
    121 CZ         -3.6464   28.8457   26.9195 C.ar      5 PHE5        0.0000 
    122 DU         -3.1320   27.4465   27.0855 H         7 CUB7        0.0000 
    123 O          -2.6176   26.0473   27.2514 O.2       2 ALA2        0.0000 
    124 OG         -5.0132   28.3931   27.3401 O.2       1 SER1        0.0000 
    125 OG         -4.4988   26.9939   27.5060 O.2       1 SER1        0.0000 
    126 O          -3.9844   25.5946   27.6720 O.2       2 ALA2        0.0000 
    127 OD1        -1.9352   30.3229   34.0707 O.3       3 ASP3        0.0000 
    128 OD1        -1.4208   28.9237   34.2367 O.3       3 ASP3        0.0000 
    129 OD1        -0.9064   27.5245   34.4026 O.3       3 ASP3        0.0000 
    130 NZ         -0.3920   26.1252   34.5686 N.2       4 LYS4        0.0000 
    131 CA          0.1224   24.7260   34.7345 C.3       6 GLY6        0.0000 
    132 NZ         -3.8164   31.2696   34.3253 N.2       4 LYS4        0.0000 
    133 DU         -3.3020   29.8703   34.4913 H         7 CUB7        0.0000 
    134 DU         -2.7876   28.4711   34.6572 H         7 CUB7        0.0000 
    135 DU         -2.2732   27.0719   34.8232 H         7 CUB7        0.0000 
    136 OG         -1.7588   25.6726   34.9891 O.2       1 SER1        0.0000 
    137 N          -1.2444   24.2734   35.1551 N.2       2 ALA2        0.0000 
    138 O          -5.6935   29.2605   36.7627 O.2       2 ALA2        0.0000 
    139 OD1        -5.1791   27.8613   36.9286 O.3       3 ASP3        0.0000 
    140 OD1        -1.4250   31.8793   32.0540 O.3       3 ASP3        0.0000 
    141 NZ         -5.1833   30.8169   34.7459 N.2       4 LYS4        0.0000 
    142 DU         -4.6689   29.4177   34.9119 H         7 CUB7        0.0000 
    143 DU         -4.1545   28.0185   35.0778 H         7 CUB7        0.0000 
    144 OG         -3.6401   26.6192   35.2438 O.2       1 SER1        0.0000 
    145 OG         -1.4166   25.9681   36.4194 O.2       1 SER1        0.0000 
    146 OD1        -4.3266   29.7131   36.3421 O.3       3 ASP3        0.0000 
    147 OD1        -3.8122   28.3139   36.5080 O.3       3 ASP3        0.0000 
    148 OD1        -3.2978   26.9147   36.6740 O.3       3 ASP3        0.0000 
@<TRIPOS>BOND
@<TRIPOS>SUBSTRUCTURE
     1 SER1        3 GROUP   
     2 ALA2        4 GROUP   
     3 ASP3       51 GROUP   
     4 LYS4        5 GROUP   
     5 PHE5        1 GROUP   
     6 GLY6       14 GROUP   
     7 CUB7       11 GROUP   
@<TRIPOS>SET

