#    Name: 4gaa_BES_1_INTS_M
#    Modification time : Mon Mar 24 21:36:00 2014

@<TRIPOS>MOLECULE
4gaa_BES_1_INTS_M
   59     0    15     0     0
SMALL
NO_CHARGES


@<TRIPOS>ATOM
      1 OD1        -9.4020   23.8010   24.9755 O.co2     3 ASC3        0.0000 
      2 OD1        -8.5990   24.8010   24.4750 O.co2    13 ASL3        0.0000 
      3 OD1       -10.2050   22.8010   25.4760 O.co2     8 ASP3        0.0000 
      4 OD1       -10.3945   24.2120   24.7355 O.co2     3 ASC3        0.0000 
      5 OD1       -12.1900   23.6230   24.9960 O.co2     8 ASP3        0.0000 
      6 O          -9.2585   24.8355   23.3650 O.2       1 ALC1        0.0000 
      7 O          -8.5990   24.8010   24.4750 O.2      11 ALL1        0.0000 
      8 O          -9.9180   24.8700   22.2550 O.2       6 ALP1        0.0000 
      9 O          -9.4020   23.8010   24.9755 O.2       1 ALC1        0.0000 
     10 O         -10.2050   22.8010   25.4760 O.2       6 ALP1        0.0000 
     11 CA         -4.8915   26.5125   23.8230 C.3       5 GLC5        0.0000 
     12 CA         -6.6700   26.3000   24.5980 C.3      15 GLL5        0.0000 
     13 CA         -3.1130   26.7250   23.0480 C.3      10 GLP5        0.0000 
     14 CA         -7.4025   24.1310   22.2115 C.3       5 GLC5        0.0000 
     15 CA         -6.5410   26.1820   22.0860 C.3      15 GLL5        0.0000 
     16 CA         -8.2640   22.0800   22.3370 C.3      10 GLP5        0.0000 
     17 CA         -8.8705   28.4375   18.9790 C.3       5 GLC5        0.0000 
     18 CA         -7.5010   27.9280   20.6840 C.3      15 GLL5        0.0000 
     19 CA        -10.2400   28.9470   17.2740 C.3      10 GLP5        0.0000 
     20 Zn         -9.1570   25.0795   27.8315 Zn        4 ZIC7        0.0000 
     21 Zn         -8.5080   24.1900   27.1540 Zn       14 ZIL7        0.0000 
     22 Zn         -9.8060   25.9690   28.5090 Zn        9 ZIP7        0.0000 
     23 N          -8.6600   23.0065   27.7270 N.am      2 SEC2        0.0000 
     24 N          -8.5080   24.1900   27.1540 N.am     12 SEL2        0.0000 
     25 N          -8.8120   21.8230   28.3000 N.am      7 SEP2        0.0000 
     26 O          -9.3565   23.4955   26.3150 O.2       1 ALC1        0.0000 
     27 O          -8.5080   24.1900   27.1540 O.2      11 ALL1        0.0000 
     28 Zn         -8.6575   26.4105   28.3175 Zn        4 ZIC7        0.0000 
     29 Zn         -7.5090   26.8520   28.1260 Zn       14 ZIL7        0.0000 
     30 O          -5.5375   24.1540   26.9600 O.2       1 ALC1        0.0000 
     31 O          -5.6490   25.5870   27.9190 O.2      11 ALL1        0.0000 
     32 O          -5.4260   22.7210   26.0010 O.2       6 ALP1        0.0000 
     33 CA         -4.1765   23.5760   30.7700 C.3       5 GLC5        0.0000 
     34 CA         -4.9130   25.3500   30.1240 C.3      15 GLL5        0.0000 
     35 CA         -3.4400   21.8020   31.4160 C.3      10 GLP5        0.0000 
     36 CA         -7.4265   25.7435   32.0280 C.3       5 GLC5        0.0000 
     37 CA         -6.0930   26.9000   31.7740 C.3      15 GLL5        0.0000 
     38 CA         -8.7600   24.5870   32.2820 C.3      10 GLP5        0.0000 
     39 CA         -6.9360   28.3560   30.4505 C.3       5 GLC5        0.0000 
     40 CA         -7.7790   29.8120   29.1270 C.3      10 GLP5        0.0000 
     41 CA         -4.5005   23.5055   33.1480 C.3       5 GLC5        0.0000 
     42 CA         -4.3730   25.2890   32.5950 C.3      15 GLL5        0.0000 
     43 CA         -4.6280   21.7220   33.7010 C.3      10 GLP5        0.0000 
     44 CA         -6.3890   24.4690   32.9945 C.3       5 GLC5        0.0000 
     45 CA         -8.4050   23.6490   33.3940 C.3      10 GLP5        0.0000 
     46 N          -2.1195   24.6550   26.9365 N.am      2 SEC2        0.0000 
     47 N          -3.1010   25.4630   27.3820 N.am     12 SEL2        0.0000 
     48 N          -1.1380   23.8470   26.4910 N.am      7 SEP2        0.0000 
     49 N          -3.1105   23.8465   27.4270 N.am      2 SEC2        0.0000 
     50 N          -3.1200   22.2300   27.4720 N.am      7 SEP2        0.0000 
     51 N          -1.1615   26.5150   29.4480 N.am      2 SEC2        0.0000 
     52 N          -2.4860   26.9550   28.8720 N.am     12 SEL2        0.0000 
     53 N           0.1630   26.0750   30.0240 N.am      7 SEP2        0.0000 
     54 CA         -8.0090   25.5675   20.4438 C.3       5 GLC5        0.0000 
     55 CA         -9.3470   24.6870   19.4370 C.3      10 GLP5        0.0000 
     56 CA         -8.9962   27.0203   20.6463 C.3       5 GLC5        0.0000 
     57 CA        -10.2650   25.7740   20.0390 C.3      10 GLP5        0.0000 
     58 CA         -6.7315   25.0943   30.8585 C.3       5 GLC5        0.0000 
     59 CA         -8.6020   24.4360   30.9450 C.3      10 GLP5        0.0000 
@<TRIPOS>BOND
@<TRIPOS>SUBSTRUCTURE
     1 ALC1        6 GROUP        1 X    ALC  0     ROOT ALC X 1
     2 SEC2       23 GROUP        1 X    SEC  0     **** SEC X 2
     3 ASC3        1 GROUP        1 X    ASC  0     **** ASC X 3
     4 ZIC7       20 GROUP        1 X    ZIC  0     **** ZIC X 5
     5 GLC5       11 GROUP        1 X    GLC  0     **** GLC X 6
     6 ALP1        8 GROUP        1 Y    ALP  0     ROOT ALP Y 8
     7 SEP2       25 GROUP        1 Y    SEP  0     **** SEP Y 9
     8 ASP3        3 GROUP        1 Y    ASP  0     **** ASP Y 10
     9 ZIP7       22 GROUP        1 Y    ZIP  0     **** ZIP Y 12
    10 GLP5       13 GROUP        1 Y    GLP  0     **** GLP Y 13
    11 ALL1        7 GROUP        1 Z    ALL  0     ROOT ALL Z 15
    12 SEL2       24 GROUP        1 Z    SEL  0     **** SEL Z 16
    13 ASL3        2 GROUP        1 Z    ASL  0     **** ASL Z 17
    14 ZIL7       21 GROUP        1 Z    ZIL  0     **** ZIL Z 19
    15 GLL5       12 GROUP        1 Z    GLL  0     **** GLL Z 20
@<TRIPOS>SET

