#    Name: 4gaa_BES_1_ligand
#    Modification time : Mon Mar 24 21:36:00 2014

@<TRIPOS>MOLECULE
4gaa_BES_1_ligand
   46    46     1     0     0
SMALL
NO_CHARGES


@<TRIPOS>ATOM
      1 N2         -8.5990   24.8010   24.4750 N.4       1 BES702      0.0000 
      2 C1         -7.9160   25.7590   25.3170 C.3       1 BES702      0.0000 
      3 C6         -6.6700   26.3000   24.5980 C.3       1 BES702      0.0000 
      4 C7         -6.9670   26.8760   23.2270 C.ar      1 BES702      0.0000 
      5 C8         -7.6680   28.0850   23.0900 C.ar      1 BES702      0.0000 
      6 C12        -6.5410   26.1820   22.0860 C.ar      1 BES702      0.0000 
      7 C9         -7.9540   28.6050   21.8230 C.ar      1 BES702      0.0000 
      8 C11        -6.8010   26.7140   20.8150 C.ar      1 BES702      0.0000 
      9 C10        -7.5010   27.9280   20.6840 C.ar      1 BES702      0.0000 
     10 C2         -7.4980   25.0410   26.5880 C.3       1 BES702      0.0000 
     11 O2         -8.5080   24.1900   27.1540 O.3       1 BES702      0.0000 
     12 C3         -6.8880   25.9320   27.6190 C.2       1 BES702      0.0000 
     13 O3         -7.5090   26.8520   28.1260 O.2       1 BES702      0.0000 
     14 N1         -5.6490   25.5870   27.9190 N.am      1 BES702      0.0000 
     15 C4         -4.7710   26.2300   28.8800 C.3       1 BES702      0.0000 
     16 C13        -4.9130   25.3500   30.1240 C.3       1 BES702      0.0000 
     17 C14        -4.8090   26.1550   31.4200 C.3       1 BES702      0.0000 
     18 C15        -6.0930   26.9000   31.7740 C.3       1 BES702      0.0000 
     19 C16        -4.3730   25.2890   32.5950 C.3       1 BES702      0.0000 
     20 C5         -3.3590   26.2140   28.3520 C.2       1 BES702      0.0000 
     21 O1         -3.1010   25.4630   27.3820 O.co2     1 BES702      0.0000 
     22 O4         -2.4860   26.9550   28.8720 O.co2     1 BES702      0.0000 
     23 H          -8.5506   26.5752   25.5732 H         1 BES702      0.0000 
     24 H          -5.9390   25.4833   24.5006 H         1 BES702      0.0000 
     25 H          -6.2105   27.0759   25.2285 H         1 BES702      0.0000 
     26 H          -7.9737   28.5923   23.9320 H         1 BES702      0.0000 
     27 H          -6.0443   25.2943   22.1797 H         1 BES702      0.0000 
     28 H          -8.4880   29.4701   21.7291 H         1 BES702      0.0000 
     29 H          -6.4809   26.2185   19.9763 H         1 BES702      0.0000 
     30 H          -7.6780   28.3147   19.7515 H         1 BES702      0.0000 
     31 H          -6.6360   24.3439   26.2589 H         1 BES702      0.0000 
     32 H          -5.1949   24.7411   27.4222 H         1 BES702      0.0000 
     33 H          -5.0938   27.1998   29.1022 H         1 BES702      0.0000 
     34 H          -4.1292   24.5858   30.1128 H         1 BES702      0.0000 
     35 H          -5.8825   24.8423   30.0942 H         1 BES702      0.0000 
     36 H          -4.0184   26.9199   31.2757 H         1 BES702      0.0000 
     37 H          -9.2813   25.2402   23.8905 H         1 BES702      0.0000 
     38 H          -7.9643   24.3175   23.8722 H         1 BES702      0.0000 
     39 H          -9.0773   24.1076   25.0138 H         1 BES702      0.0000 
     40 H          -6.0002   27.4161   32.6255 H         1 BES702      0.0000 
     41 H          -6.3518   27.5530   31.0622 H         1 BES702      0.0000 
     42 H          -6.8644   26.2748   31.8927 H         1 BES702      0.0000 
     43 H          -3.4779   24.8720   32.4370 H         1 BES702      0.0000 
     44 H          -4.3048   25.8179   33.4410 H         1 BES702      0.0000 
     45 H          -5.0174   24.5438   32.7664 H         1 BES702      0.0000 
     46 H          -9.0090   23.8258   26.3690 H         1 BES702      0.0000 
@<TRIPOS>BOND
     1    2    1 1    
     2   37    1 1    
     3   38    1 1    
     4   39    1 1    
     5    3    2 1    
     6   10    2 1    
     7   23    2 1    
     8    4    3 1    
     9   24    3 1    
    10   25    3 1    
    11    5    4 ar   
    12    6    4 ar   
    13    7    5 ar   
    14   26    5 1    
    15    8    6 ar   
    16   27    6 1    
    17    9    7 ar   
    18   28    7 1    
    19    9    8 ar   
    20   29    8 1    
    21   30    9 1    
    22   11   10 1    
    23   12   10 1    
    24   31   10 1    
    25   46   11 1    
    26   13   12 2    
    27   14   12 am   
    28   15   14 1    
    29   32   14 1    
    30   16   15 1    
    31   20   15 1    
    32   33   15 1    
    33   17   16 1    
    34   34   16 1    
    35   35   16 1    
    36   18   17 1    
    37   19   17 1    
    38   36   17 1    
    39   40   18 1    
    40   41   18 1    
    41   42   18 1    
    42   43   19 1    
    43   44   19 1    
    44   45   19 1    
    45   21   20 ar   
    46   22   20 ar   
@<TRIPOS>SUBSTRUCTURE
     1 BES702      1 GROUP   
@<TRIPOS>SET

