#    Name: 1g27_BB1_1_INTS_M
#    Modification time : Tue Mar 25 02:22:30 2014

@<TRIPOS>MOLECULE
1g27_BB1_1_INTS_M
   57     0     9     0     0
SMALL
NO_CHARGES


@<TRIPOS>ATOM
      1 CA         41.2390    4.1310   13.6800 C.3       3 GLC5        0.0000 
      2 CA         42.9860    4.0800   14.1010 C.3       9 GLL5        0.0000 
      3 CA         39.4920    4.1820   13.2590 C.3       6 GLP5        0.0000 
      4 N          44.3990    4.3245   10.7605 N.am      2 SEC2        0.0000 
      5 N          44.0530    5.2760   11.7210 N.am      8 SEL2        0.0000 
      6 N          44.7450    3.3730    9.8000 N.am      5 SEP2        0.0000 
      7 O          44.2280    7.5750   14.5050 O.2       1 ALC1        0.0000 
      8 O          44.2840    7.2150   12.8890 O.2       7 ALL1        0.0000 
      9 O          44.1720    7.9350   16.1210 O.2       4 ALP1        0.0000 
     10 CA         45.6870    4.2820   16.3820 C.3       3 GLC5        0.0000 
     11 CA         45.5030    4.5930   14.4520 C.3       9 GLL5        0.0000 
     12 CA         45.8710    3.9710   18.3120 C.3       6 GLP5        0.0000 
     13 CA         49.0830    7.9560   16.4235 C.3       3 GLC5        0.0000 
     14 CA         48.9550    6.2160   15.1830 C.3       9 GLL5        0.0000 
     15 CA         49.2110    9.6960   17.6640 C.3       6 GLP5        0.0000 
     16 CA         50.7565    6.6315   15.9815 C.3       3 GLC5        0.0000 
     17 CA         52.5580    7.0470   16.7800 C.3       6 GLP5        0.0000 
     18 CA         48.7080    5.0560   16.8140 C.3       3 GLC5        0.0000 
     19 CA         48.4610    3.8960   18.4450 C.3       6 GLP5        0.0000 
     20 N          41.1380    3.2045   16.9620 N.am      2 SEC2        0.0000 
     21 N          42.1440    4.2460   16.4290 N.am      8 SEL2        0.0000 
     22 N          40.1320    2.1630   17.4950 N.am      5 SEP2        0.0000 
     23 N          41.0425    5.0485   16.1060 N.am      2 SEC2        0.0000 
     24 N          39.9410    5.8510   15.7830 N.am      5 SEP2        0.0000 
     25 O          43.5560    4.6285   17.3565 O.2       1 ALC1        0.0000 
     26 O          42.1440    4.2460   16.4290 O.2       7 ALL1        0.0000 
     27 O          44.9680    5.0110   18.2840 O.2       4 ALP1        0.0000 
     28 CA         49.7445   10.0170   12.8505 C.3       3 GLC5        0.0000 
     29 CA         47.8470    9.9050   11.8650 C.3       9 GLL5        0.0000 
     30 CA         51.6420   10.1290   13.8360 C.3       6 GLP5        0.0000 
     31 CA         47.6790    6.8680   10.4895 C.3       3 GLC5        0.0000 
     32 CA         46.9300    8.4250   10.0290 C.3       9 GLL5        0.0000 
     33 CA         48.4280    5.3110   10.9500 C.3       6 GLP5        0.0000 
     34 N          45.3895    9.8755   14.5510 N.am      2 SEC2        0.0000 
     35 N          45.6300    9.4560   13.1870 N.am      8 SEL2        0.0000 
     36 N          45.1490   10.2950   15.9150 N.am      5 SEP2        0.0000 
     37 CA         43.2435   10.0585   14.2170 C.3       3 GLC5        0.0000 
     38 CA         42.7770    9.8300   12.4930 C.3       9 GLL5        0.0000 
     39 CA         43.7100   10.2870   15.9410 C.3       6 GLP5        0.0000 
     40 CA         43.6420   11.6150   13.1100 C.3       3 GLC5        0.0000 
     41 CA         44.5070   13.4000   13.7270 C.3       6 GLP5        0.0000 
     42 CA         42.2375    5.9360   10.2810 C.3       3 GLC5        0.0000 
     43 CA         42.0820    7.9600   10.9920 C.3       9 GLL5        0.0000 
     44 CA         42.3930    3.9120    9.5700 C.3       6 GLP5        0.0000 
     45 CA         40.5335    6.5940   11.6470 C.3       3 GLC5        0.0000 
     46 CA         38.9850    5.2280   12.3020 C.3       6 GLP5        0.0000 
     47 CA         42.5555    5.9463   15.4870 C.3       3 GLC5        0.0000 
     48 CA         41.5720    7.2900   16.8850 C.3       6 GLP5        0.0000 
     49 CA         46.6328    4.7790   12.6610 C.3       3 GLC5        0.0000 
     50 CA         47.2530    4.3720   10.7930 C.3       6 GLP5        0.0000 
     51 CA         47.1770    5.0170   16.5030 C.3       3 GLC5        0.0000 
     52 CA         46.5220    5.7790   14.6060 C.3       9 GLL5        0.0000 
     53 CA         47.1060    4.5170   18.4420 C.3       6 GLP5        0.0000 
     54 CA         48.4462    5.5232   12.9013 C.3       3 GLC5        0.0000 
     55 CA         47.9740    5.2550   14.5220 C.3       9 GLL5        0.0000 
     56 CA         49.7332    4.3818   15.0968 C.3       3 GLC5        0.0000 
     57 CA         51.0020    3.0280   15.3410 C.3       6 GLP5        0.0000 
@<TRIPOS>BOND
@<TRIPOS>SUBSTRUCTURE
     1 ALC1        7 GROUP        1 X    ALC  0     ROOT ALC X 1
     2 SEC2        4 GROUP        1 X    SEC  0     **** SEC X 2
     3 GLC5        1 GROUP        1 X    GLC  0     **** GLC X 6
     4 ALP1        9 GROUP        1 Y    ALP  0     ROOT ALP Y 8
     5 SEP2        6 GROUP        1 Y    SEP  0     **** SEP Y 9
     6 GLP5        3 GROUP        1 Y    GLP  0     **** GLP Y 13
     7 ALL1        8 GROUP        1 Z    ALL  0     ROOT ALL Z 15
     8 SEL2        5 GROUP        1 Z    SEL  0     **** SEL Z 16
     9 GLL5        2 GROUP        1 Z    GLL  0     **** GLL Z 20
@<TRIPOS>SET

