#    Name: 1g27_BB1_1_ligand
#    Modification time : Tue Mar 25 02:22:30 2014

@<TRIPOS>MOLECULE
1g27_BB1_1_ligand
   54    53     1     0     0
SMALL
NO_CHARGES


@<TRIPOS>ATOM
      1 C2         42.9860    4.0800   14.1010 C.3       1 BB11001     0.0000 
      2 C3         44.0920    5.1250   14.0770 C.3       1 BB11001     0.0000 
      3 C4         44.0940    5.8880   12.7890 C.2       1 BB11001     0.0000 
      4 O3         44.0530    5.2760   11.7210 O.2       1 BB11001     0.0000 
      5 N2         44.2840    7.2150   12.8890 N.am      1 BB11001     0.0000 
      6 C5         44.4560    8.0710   11.7520 C.3       1 BB11001     0.0000 
      7 C7         45.5030    4.5930   14.4520 C.3       1 BB11001     0.0000 
      8 C8         46.5220    5.7790   14.6060 C.3       1 BB11001     0.0000 
      9 C9         47.9740    5.2550   14.5220 C.3       1 BB11001     0.0000 
     10 C10        48.9550    6.2160   15.1830 C.3       1 BB11001     0.0000 
     11 N1         42.7730    3.5910   15.4500 N.am      1 BB11001     0.0000 
     12 C1         43.4050    2.5010   15.8730 C.2       1 BB11001     0.0000 
     13 O1         43.3330    2.1390   17.0500 O.2       1 BB11001     0.0000 
     14 O2         42.1440    4.2460   16.4290 O.3       1 BB11001     0.0000 
     15 C6         45.6780    8.9080   12.0840 C.2       1 BB11001     0.0000 
     16 N3         46.7860    9.0540   11.3330 N.am      1 BB11001     0.0000 
     17 C16        47.8470    9.9050   11.8650 C.3       1 BB11001     0.0000 
     18 C15        46.9300    8.4250   10.0290 C.3       1 BB11001     0.0000 
     19 O4         45.6300    9.4560   13.1870 O.2       1 BB11001     0.0000 
     20 C11        43.2340    8.8990   11.3480 C.3       1 BB11001     0.0000 
     21 C12        43.5900    9.7580   10.1250 C.3       1 BB11001     0.0000 
     22 C13        42.7770    9.8300   12.4930 C.3       1 BB11001     0.0000 
     23 C14        42.0820    7.9600   10.9920 C.3       1 BB11001     0.0000 
     24 H          43.2723    3.2628   13.4264 H         1 BB11001     0.0000 
     25 H          42.0730    4.5384   13.6994 H         1 BB11001     0.0000 
     26 H          43.8293    5.8770   14.8862 H         1 BB11001     0.0000 
     27 H          44.3137    7.6832   13.8307 H         1 BB11001     0.0000 
     28 H          44.7509    7.4457   10.8811 H         1 BB11001     0.0000 
     29 H          45.8558    3.9334   13.6719 H         1 BB11001     0.0000 
     30 H          45.4470    4.0613   15.3913 H         1 BB11001     0.0000 
     31 H          46.3616    6.2475   15.5659 H         1 BB11001     0.0000 
     32 H          46.3469    6.4881   13.8103 H         1 BB11001     0.0000 
     33 H          48.2393    5.1271   13.4722 H         1 BB11001     0.0000 
     34 H          48.0245    4.2845   15.0162 H         1 BB11001     0.0000 
     35 H          43.9758    1.9566   15.1460 H         1 BB11001     0.0000 
     36 H          49.8955    5.8799   15.1322 H         1 BB11001     0.0000 
     37 H          48.9419    7.1169   14.7491 H         1 BB11001     0.0000 
     38 H          48.7448    6.3538   16.1509 H         1 BB11001     0.0000 
     39 H          48.1932    9.5643   12.7391 H         1 BB11001     0.0000 
     40 H          48.6272    9.9592   11.2418 H         1 BB11001     0.0000 
     41 H          47.5300   10.8407   12.0199 H         1 BB11001     0.0000 
     42 H          47.8138    8.6350    9.6109 H         1 BB11001     0.0000 
     43 H          46.8628    7.4290   10.0876 H         1 BB11001     0.0000 
     44 H          46.2237    8.7293    9.3898 H         1 BB11001     0.0000 
     45 H          44.3486   10.3807   10.3167 H         1 BB11001     0.0000 
     46 H          43.8619    9.1967    9.3433 H         1 BB11001     0.0000 
     47 H          42.8177   10.3196    9.8281 H         1 BB11001     0.0000 
     48 H          43.4943   10.4754   12.7556 H         1 BB11001     0.0000 
     49 H          41.9764   10.3707   12.2349 H         1 BB11001     0.0000 
     50 H          42.5307    9.3153   13.3143 H         1 BB11001     0.0000 
     51 H          42.3187    7.3527   10.2336 H         1 BB11001     0.0000 
     52 H          41.8247    7.3785   11.7638 H         1 BB11001     0.0000 
     53 H          41.2627    8.4642   10.7190 H         1 BB11001     0.0000 
     54 H          42.8432    4.4019   17.1267 H         1 BB11001     0.0000 
@<TRIPOS>BOND
     1    2    1 1    
     2   11    1 1    
     3   24    1 1    
     4   25    1 1    
     5    3    2 1    
     6    7    2 1    
     7   26    2 1    
     8    4    3 2    
     9    5    3 am   
    10    6    5 1    
    11   27    5 1    
    12   15    6 1    
    13   20    6 1    
    14   28    6 1    
    15    8    7 1    
    16   29    7 1    
    17   30    7 1    
    18    9    8 1    
    19   31    8 1    
    20   32    8 1    
    21   10    9 1    
    22   33    9 1    
    23   34    9 1    
    24   36   10 1    
    25   37   10 1    
    26   38   10 1    
    27   12   11 am   
    28   14   11 1    
    29   13   12 2    
    30   35   12 1    
    31   54   14 1    
    32   16   15 am   
    33   19   15 2    
    34   17   16 1    
    35   18   16 1    
    36   39   17 1    
    37   40   17 1    
    38   41   17 1    
    39   42   18 1    
    40   43   18 1    
    41   44   18 1    
    42   21   20 1    
    43   22   20 1    
    44   23   20 1    
    45   45   21 1    
    46   46   21 1    
    47   47   21 1    
    48   48   22 1    
    49   49   22 1    
    50   50   22 1    
    51   51   23 1    
    52   52   23 1    
    53   53   23 1    
@<TRIPOS>SUBSTRUCTURE
     1 BB11001     1 GROUP   
@<TRIPOS>SET

