#    Name: 1bmf_ADP_4_INTS_M
#    Modification time : Mon Mar 24 19:38:32 2014

@<TRIPOS>MOLECULE
1bmf_ADP_4_INTS_M
   75     0    12     0     0
SMALL
NO_CHARGES


@<TRIPOS>ATOM
      1 NZ        104.9610   49.6520   68.5470 N.4       2 LYC4        0.0000 
      2 NZ        103.9860   48.7300   68.7970 N.4      10 LYL4        0.0000 
      3 NZ        105.9360   50.5740   68.2970 N.4       6 LYP4        0.0000 
      4 N         103.0710   49.4380   69.9865 N.am      1 SEC2        0.0000 
      5 N         103.9860   48.7300   68.7970 N.am      9 SEL2        0.0000 
      6 N         102.1560   50.1460   71.1760 N.am      5 SEP2        0.0000 
      7 N         102.5615   48.6225   68.9960 N.am      1 SEC2        0.0000 
      8 N         101.1370   48.5150   69.1950 N.am      5 SEP2        0.0000 
      9 N         103.2855   48.3230   67.8435 N.am      1 SEC2        0.0000 
     10 N         102.5850   47.9160   66.8900 N.am      5 SEP2        0.0000 
     11 N         104.9610   49.6520   68.5470 N.am      1 SEC2        0.0000 
     12 N         105.9360   50.5740   68.2970 N.am      5 SEP2        0.0000 
     13 NZ        105.7170   48.6795   68.5750 N.4       2 LYC4        0.0000 
     14 NZ        105.4980   46.7850   68.8530 N.4      10 LYL4        0.0000 
     15 Zn        106.4810   46.2045   68.8055 Zn        3 ZIC7        0.0000 
     16 Zn        105.4980   46.7850   68.8530 Zn       11 ZIL7        0.0000 
     17 Zn        107.4640   45.6240   68.7580 Zn        7 ZIP7        0.0000 
     18 N         104.8295   46.1310   67.6010 N.am      1 SEC2        0.0000 
     19 N         105.4980   46.7850   68.8530 N.am      9 SEL2        0.0000 
     20 N         104.1610   45.4770   66.3490 N.am      5 SEP2        0.0000 
     21 NZ        105.7300   49.4905   69.5110 N.4       2 LYC4        0.0000 
     22 NZ        105.5240   48.4070   70.7250 N.4      10 LYL4        0.0000 
     23 N         105.6305   47.4710   71.8880 N.am      1 SEC2        0.0000 
     24 N         105.5240   48.4070   70.7250 N.am      9 SEL2        0.0000 
     25 N         105.7370   46.5350   73.0510 N.am      5 SEP2        0.0000 
     26 N         105.1495   49.2695   71.6615 N.am      1 SEC2        0.0000 
     27 N         104.7750   50.1320   72.5980 N.am      5 SEP2        0.0000 
     28 N         105.7300   49.4905   69.5110 N.am      1 SEC2        0.0000 
     29 N         102.4490   44.1740   68.0430 N.am      1 SEC2        0.0000 
     30 N         102.6610   45.0380   69.2630 N.am      9 SEL2        0.0000 
     31 N         102.2370   43.3100   66.8230 N.am      5 SEP2        0.0000 
     32 N         104.7490   45.5395   72.2520 N.am      1 SEC2        0.0000 
     33 N         103.7610   44.5440   71.4530 N.am      9 SEL2        0.0000 
     34 N         102.3920   47.7350   69.8900 N.am      1 SEC2        0.0000 
     35 N         103.6470   46.9550   70.5850 N.am      9 SEL2        0.0000 
     36 CA        103.3920   45.1375   73.7170 C.3       4 GLC5        0.0000 
     37 CA        101.8030   45.9780   72.8930 C.3      12 GLL5        0.0000 
     38 CA        104.9810   44.2970   74.5410 C.3       8 GLP5        0.0000 
     39 CA        102.7180   47.6715   72.9415 C.3       4 GLC5        0.0000 
     40 CA        103.6330   49.3650   72.9900 C.3       8 GLP5        0.0000 
     41 CA        101.0940   46.1805   75.4965 C.3       4 GLC5        0.0000 
     42 CA        100.6580   45.2910   73.5710 C.3      12 GLL5        0.0000 
     43 CA        101.5300   47.0700   77.4220 C.3       8 GLP5        0.0000 
     44 CA        102.3400   44.4800   74.5580 C.3       4 GLC5        0.0000 
     45 CA        104.0220   43.6690   75.5450 C.3       8 GLP5        0.0000 
     46 CA        101.5105   42.7215   74.6240 C.3       4 GLC5        0.0000 
     47 CA        100.3390   43.8330   73.1980 C.3      12 GLL5        0.0000 
     48 CA        102.6820   41.6100   76.0500 C.3       8 GLP5        0.0000 
     49 CA        100.3260   43.1045   71.1775 C.3       4 GLC5        0.0000 
     50 CA        100.3130   42.3760   69.1570 C.3       8 GLP5        0.0000 
     51 CA        100.0840   41.8650   73.2045 C.3       4 GLC5        0.0000 
     52 CA         99.8290   39.8970   73.2110 C.3       8 GLP5        0.0000 
     53 CA         98.0225   42.1775   73.6180 C.3       4 GLC5        0.0000 
     54 CA         98.8770   43.7570   73.6830 C.3      12 GLL5        0.0000 
     55 CA         97.1680   40.5980   73.5530 C.3       8 GLP5        0.0000 
     56 CA         97.2070   46.5895   72.3615 C.3       4 GLC5        0.0000 
     57 CA         98.3440   45.0830   73.1560 C.3      12 GLL5        0.0000 
     58 CA         96.0700   48.0960   71.5670 C.3       8 GLP5        0.0000 
     59 CA         95.6330   42.2500   69.4625 C.3       4 GLC5        0.0000 
     60 CA         95.6390   44.3020   69.1650 C.3      12 GLL5        0.0000 
     61 CA         95.6270   40.1980   69.7600 C.3       8 GLP5        0.0000 
     62 CA         93.9425   45.1455   70.3340 C.3       4 GLC5        0.0000 
     63 CA         94.6280   43.6680   71.1780 C.3      12 GLL5        0.0000 
     64 CA         93.2570   46.6230   69.4900 C.3       8 GLP5        0.0000 
     65 CA         95.1275   41.9330   70.4690 C.3       4 GLC5        0.0000 
     66 CA         95.1700   42.2965   72.4635 C.3       4 GLC5        0.0000 
     67 CA         95.7120   40.9250   73.7490 C.3       8 GLP5        0.0000 
     68 CA         93.2280   42.7160   71.3865 C.3       4 GLC5        0.0000 
     69 CA         91.8280   41.7640   71.5950 C.3       8 GLP5        0.0000 
     70 CA         96.1820   42.7360   72.5280 C.3       4 GLC5        0.0000 
     71 CA         96.6520   44.5470   71.3070 C.3      12 GLL5        0.0000 
     72 CA         97.4223   43.3100   68.4423 C.3       4 GLC5        0.0000 
     73 CA         96.7380   44.7080   69.9460 C.3      12 GLL5        0.0000 
     74 CA         98.6560   42.1150   67.3290 C.3       8 GLP5        0.0000 
     75 CA         94.8386   45.5745   69.9606 C.3       4 GLC5        0.0000 
@<TRIPOS>BOND
@<TRIPOS>SUBSTRUCTURE
     1 SEC2        4 GROUP        1 X    SEC  0     ROOT SEC X 2
     2 LYC4        1 GROUP        1 X    LYC  0     **** LYC X 4
     3 ZIC7       15 GROUP        1 X    ZIC  0     **** ZIC X 5
     4 GLC5       36 GROUP        1 X    GLC  0     **** GLC X 6
     5 SEP2        6 GROUP        1 Y    SEP  0     ROOT SEP Y 9
     6 LYP4        3 GROUP        1 Y    LYP  0     **** LYP Y 11
     7 ZIP7       17 GROUP        1 Y    ZIP  0     **** ZIP Y 12
     8 GLP5       38 GROUP        1 Y    GLP  0     **** GLP Y 13
     9 SEL2        5 GROUP        1 Z    SEL  0     ROOT SEL Z 16
    10 LYL4        2 GROUP        1 Z    LYL  0     **** LYL Z 18
    11 ZIL7       16 GROUP        1 Z    ZIL  0     **** ZIL Z 19
    12 GLL5       37 GROUP        1 Z    GLL  0     **** GLL Z 20
@<TRIPOS>SET

