#    Name: 1bmf_ADP_4_ligand
#    Modification time : Mon Mar 24 19:38:32 2014

@<TRIPOS>MOLECULE
1bmf_ADP_4_ligand
   39    41     1     0     0
SMALL
NO_CHARGES


@<TRIPOS>ATOM
      1 PB        104.6910   47.7460   69.6620 P.3       1 ADP600      0.0000 
      2 O1B       103.9860   48.7300   68.7970 O.co2     1 ADP600      0.0000 
      3 O2B       105.4980   46.7850   68.8530 O.co2     1 ADP600      0.0000 
      4 O3B       105.5240   48.4070   70.7250 O.co2     1 ADP600      0.0000 
      5 PA        102.9760   45.4870   70.6330 P.3       1 ADP600      0.0000 
      6 O1A       102.6610   45.0380   69.2630 O.co2     1 ADP600      0.0000 
      7 O2A       103.7610   44.5440   71.4530 O.co2     1 ADP600      0.0000 
      8 O3A       103.6470   46.9550   70.5850 O.3       1 ADP600      0.0000 
      9 O5'       101.6080   45.8210   71.4440 O.3       1 ADP600      0.0000 
     10 C5'       101.8030   45.9780   72.8930 C.3       1 ADP600      0.0000 
     11 C4'       100.6580   45.2910   73.5710 C.3       1 ADP600      0.0000 
     12 O4'        99.4700   45.9690   73.0900 O.3       1 ADP600      0.0000 
     13 C3'       100.3390   43.8330   73.1980 C.3       1 ADP600      0.0000 
     14 O3'       101.0470   42.9270   74.0250 O.3       1 ADP600      0.0000 
     15 C2'        98.8770   43.7570   73.6830 C.3       1 ADP600      0.0000 
     16 O2'        98.8500   43.6700   75.1110 O.3       1 ADP600      0.0000 
     17 C1'        98.3440   45.0830   73.1560 C.3       1 ADP600      0.0000 
     18 N9         97.8490   45.0350   71.7780 N.pl3     1 ADP600      0.0000 
     19 C8         98.5760   45.4720   70.7010 C.2       1 ADP600      0.0000 
     20 N7         97.9250   45.2890   69.5640 N.2       1 ADP600      0.0000 
     21 C5         96.7380   44.7080   69.9460 C.ar      1 ADP600      0.0000 
     22 C6         95.6390   44.3020   69.1650 C.ar      1 ADP600      0.0000 
     23 N6         95.6870   44.4780   67.8530 N.pl3     1 ADP600      0.0000 
     24 N1         94.5860   43.7760   69.8190 N.ar      1 ADP600      0.0000 
     25 C2         94.6280   43.6680   71.1780 C.ar      1 ADP600      0.0000 
     26 N3         95.5950   44.0140   71.9840 N.ar      1 ADP600      0.0000 
     27 C4         96.6520   44.5470   71.3070 C.ar      1 ADP600      0.0000 
     28 H         101.8057   47.0271   73.1646 H         1 ADP600      0.0000 
     29 H         102.7339   45.5181   73.2032 H         1 ADP600      0.0000 
     30 H         100.7008   45.3867   74.6233 H         1 ADP600      0.0000 
     31 H         100.3724   43.6921   72.2035 H         1 ADP600      0.0000 
     32 H          98.4125   42.9715   73.1752 H         1 ADP600      0.0000 
     33 H          97.6142   45.4693   73.8166 H         1 ADP600      0.0000 
     34 H          99.4753   45.8716   70.7905 H         1 ADP600      0.0000 
     35 H          94.8998   44.1433   67.3351 H         1 ADP600      0.0000 
     36 H          96.5061   44.9296   67.4993 H         1 ADP600      0.0000 
     37 H          93.7226   43.2318   71.6318 H         1 ADP600      0.0000 
     38 H         100.4220   42.7216   74.7781 H         1 ADP600      0.0000 
     39 H          99.0815   44.5888   75.4306 H         1 ADP600      0.0000 
@<TRIPOS>BOND
     1    2    1 ar   
     2    3    1 ar   
     3    4    1 ar   
     4    8    1 1    
     5    6    5 ar   
     6    7    5 ar   
     7    8    5 1    
     8    9    5 1    
     9   10    9 1    
    10   11   10 1    
    11   28   10 1    
    12   29   10 1    
    13   12   11 1    
    14   13   11 1    
    15   30   11 1    
    16   17   12 1    
    17   14   13 1    
    18   15   13 1    
    19   31   13 1    
    20   38   14 1    
    21   16   15 1    
    22   17   15 1    
    23   32   15 1    
    24   39   16 1    
    25   18   17 1    
    26   33   17 1    
    27   19   18 1    
    28   27   18 1    
    29   20   19 2    
    30   34   19 1    
    31   21   20 1    
    32   22   21 ar   
    33   27   21 ar   
    34   23   22 1    
    35   24   22 ar   
    36   35   23 1    
    37   36   23 1    
    38   25   24 ar   
    39   26   25 ar   
    40   37   25 1    
    41   27   26 ar   
@<TRIPOS>SUBSTRUCTURE
     1 ADP600      1 GROUP   
@<TRIPOS>SET

