#    Name: 2xyt_TC9_1_INTS_M
#    Modification time : Tue Mar 25 07:11:15 2014

@<TRIPOS>MOLECULE
2xyt_TC9_1_INTS_M
   64     0     3     0     0
SMALL
NO_CHARGES


@<TRIPOS>ATOM
      1 CA         35.5230  117.8775   49.3435 C.3       1 GLC5        0.0000 
      2 CA         36.8440  118.3230   50.8540 C.3       3 GLL5        0.0000 
      3 CA         34.2020  117.4320   47.8330 C.3       2 GLP5        0.0000 
      4 CA         36.9685  117.1500   48.3085 C.3       1 GLC5        0.0000 
      5 CA         37.9710  118.1530   49.8780 C.3       3 GLL5        0.0000 
      6 CA         35.9660  116.1470   46.7390 C.3       2 GLP5        0.0000 
      7 CA         38.0605  115.7915   53.8620 C.3       1 GLC5        0.0000 
      8 CA         37.3610  116.2610   52.0100 C.3       3 GLL5        0.0000 
      9 CA         38.7600  115.3220   55.7140 C.3       2 GLP5        0.0000 
     10 CA         40.5075  108.4750   51.6455 C.3       1 GLC5        0.0000 
     11 CA         38.8970  108.6740   52.8710 C.3       3 GLL5        0.0000 
     12 CA         42.1180  108.2760   50.4200 C.3       2 GLP5        0.0000 
     13 CA         34.1205  108.3705   50.3620 C.3       1 GLC5        0.0000 
     14 CA         35.0870  108.7990   52.2200 C.3       3 GLL5        0.0000 
     15 CA         33.1540  107.9420   48.5040 C.3       2 GLP5        0.0000 
     16 CA         35.2500  111.5260   54.1825 C.3       1 GLC5        0.0000 
     17 CA         36.3970  111.8960   52.4590 C.3       3 GLL5        0.0000 
     18 CA         34.1030  111.1560   55.9060 C.3       2 GLP5        0.0000 
     19 CA         35.4960  115.9045   49.5245 C.3       1 GLC5        0.0000 
     20 CA         36.1050  115.5870   51.4220 C.3       3 GLL5        0.0000 
     21 CA         34.8870  116.2220   47.6270 C.3       2 GLP5        0.0000 
     22 CA         43.0325  114.5190   47.0210 C.3       1 GLC5        0.0000 
     23 CA         42.5670  116.3090   48.0430 C.3       3 GLL5        0.0000 
     24 CA         43.4980  112.7290   45.9990 C.3       2 GLP5        0.0000 
     25 CA         41.2045  114.9790   47.2375 C.3       1 GLC5        0.0000 
     26 CA         39.8420  113.6490   46.4320 C.3       2 GLP5        0.0000 
     27 CA         41.5705  117.4595   46.4160 C.3       1 GLC5        0.0000 
     28 CA         40.5740  118.6100   44.7890 C.3       2 GLP5        0.0000 
     29 CA         31.2225  105.3885   54.8095 C.3       1 GLC5        0.0000 
     30 CA         32.8740  106.3610   53.7670 C.3       3 GLL5        0.0000 
     31 CA         29.5710  104.4160   55.8520 C.3       2 GLP5        0.0000 
     32 CA         30.8475  106.9445   53.2495 C.3       1 GLC5        0.0000 
     33 CA         28.8210  107.5280   52.7320 C.3       2 GLP5        0.0000 
     34 CA         33.0715  108.1535   54.7130 C.3       1 GLC5        0.0000 
     35 CA         33.2690  109.9460   55.6590 C.3       2 GLP5        0.0000 
     36 CA         34.6505  117.4465   52.8715 C.3       1 GLC5        0.0000 
     37 CA         36.4320  118.5700   53.1010 C.3       3 GLL5        0.0000 
     38 CA         32.8690  116.3230   52.6420 C.3       2 GLP5        0.0000 
     39 CA         36.8140  119.6205   54.5865 C.3       1 GLC5        0.0000 
     40 CA         37.1960  120.6710   56.0720 C.3       2 GLP5        0.0000 
     41 CA         41.5145  108.1435   52.2095 C.3       1 GLC5        0.0000 
     42 CA         40.9110  108.0110   53.9990 C.3       3 GLL5        0.0000 
     43 CA         41.5975  108.2225   55.8240 C.3       1 GLC5        0.0000 
     44 CA         42.2840  108.4340   57.6490 C.3       2 GLP5        0.0000 
     45 CA         41.1195  107.5380   51.2585 C.3       1 GLC5        0.0000 
     46 CA         40.1210  106.8000   52.0970 C.3       3 GLL5        0.0000 
     47 CA         34.9745  115.5530   52.5240 C.3       1 GLC5        0.0000 
     48 CA         33.2160  115.1820   53.3320 C.3       2 GLP5        0.0000 
     49 CA         41.6120  111.1927   51.0975 C.3       1 GLC5        0.0000 
     50 CA         41.1230  112.7220   51.8480 C.3       3 GLL5        0.0000 
     51 CA         41.5550  109.5960   49.9130 C.3       2 GLP5        0.0000 
     52 CA         40.8447  110.4982   51.3050 C.3       1 GLC5        0.0000 
     53 CA         40.1700  111.0120   53.2770 C.3       3 GLL5        0.0000 
     54 CA         40.9421  112.0452   55.4778 C.3       1 GLC5        0.0000 
     55 CA         40.9180  112.7640   57.3130 C.3       2 GLP5        0.0000 
     56 CA         34.1707  109.0569   54.2894 C.3       1 GLC5        0.0000 
     57 CA         35.5020  107.2100   54.0320 C.3       3 GLL5        0.0000 
     58 CA         34.9085  112.1043   50.6520 C.3       1 GLC5        0.0000 
     59 CA         36.7370  111.3110   51.2260 C.3       3 GLL5        0.0000 
     60 CA         33.0110  112.4870   50.6510 C.3       2 GLP5        0.0000 
     61 CA         34.7553  113.1432   50.7063 C.3       1 GLC5        0.0000 
     62 CA         36.6670  113.5090   50.1600 C.3       3 GLL5        0.0000 
     63 CA         34.6548  112.5355   51.5728 C.3       1 GLC5        0.0000 
     64 CA         36.2000  113.2720   52.5300 C.3       3 GLL5        0.0000 
@<TRIPOS>BOND
@<TRIPOS>SUBSTRUCTURE
     1 GLC5        1 GROUP        1 X    GLC  0     ROOT GLC X 6
     2 GLP5        3 GROUP        1 Y    GLP  0     ROOT GLP Y 13
     3 GLL5        2 GROUP        1 Z    GLL  0     ROOT GLL Z 20
@<TRIPOS>SET

