#    Name: 2xyt_TC9_1_ligand
#    Modification time : Tue Mar 25 07:11:15 2014

@<TRIPOS>MOLECULE
2xyt_TC9_1_ligand
   87    93     1     0     0
SMALL
NO_CHARGES


@<TRIPOS>ATOM
      1 N1         37.1400  117.7530   52.1260 N.4       1 TC91206     0.0000 
      2 C2         36.8440  118.3230   50.8540 C.3       1 TC91206     0.0000 
      3 C3         37.9710  118.1530   49.8780 C.3       1 TC91206     0.0000 
      4 C4         38.8200  116.9350   50.1080 C.ar      1 TC91206     0.0000 
      5 C5         38.5420  116.0150   51.1590 C.ar      1 TC91206     0.0000 
      6 C6         37.3610  116.2610   52.0100 C.3       1 TC91206     0.0000 
      7 C7         39.9180  116.6730   49.2490 C.ar      1 TC91206     0.0000 
      8 C8         40.7210  115.5200   49.4640 C.ar      1 TC91206     0.0000 
      9 C9         40.4180  114.6170   50.5280 C.ar      1 TC91206     0.0000 
     10 C10        39.3190  114.8520   51.3870 C.ar      1 TC91206     0.0000 
     11 O11        41.2160  113.4540   50.6380 O.3       1 TC91206     0.0000 
     12 C12        41.1230  112.7220   51.8480 C.ar      1 TC91206     0.0000 
     13 C13        42.2150  112.8570   52.7160 C.ar      1 TC91206     0.0000 
     14 C14        42.2790  112.1030   53.8660 C.ar      1 TC91206     0.0000 
     15 C15        41.2460  111.1790   54.1500 C.ar      1 TC91206     0.0000 
     16 C16        40.1700  111.0120   53.2770 C.ar      1 TC91206     0.0000 
     17 C17        40.0990  111.7890   52.1170 C.ar      1 TC91206     0.0000 
     18 C18        39.0430  110.0090   53.6880 C.3       1 TC91206     0.0000 
     19 C19        38.8970  108.6740   52.8710 C.3       1 TC91206     0.0000 
     20 N20        39.6970  107.5350   53.3030 N.4       1 TC91206     0.0000 
     21 C21        39.1200  106.4860   54.1120 C.3       1 TC91206     0.0000 
     22 C22        37.8260  106.7800   54.7930 C.3       1 TC91206     0.0000 
     23 C23        36.8790  107.4720   53.8900 C.ar      1 TC91206     0.0000 
     24 C24        37.3660  108.3910   52.9160 C.ar      1 TC91206     0.0000 
     25 C25        35.5020  107.2100   54.0320 C.ar      1 TC91206     0.0000 
     26 C26        34.6140  107.8630   53.2070 C.ar      1 TC91206     0.0000 
     27 C27        35.0870  108.7990   52.2200 C.ar      1 TC91206     0.0000 
     28 C28        36.4760  109.0740   52.0890 C.ar      1 TC91206     0.0000 
     29 O29        36.9550  109.9360   51.0690 O.3       1 TC91206     0.0000 
     30 C30        36.7370  111.3110   51.2260 C.ar      1 TC91206     0.0000 
     31 C31        36.8750  112.1320   50.0800 C.ar      1 TC91206     0.0000 
     32 C32        36.6670  113.5090   50.1600 C.ar      1 TC91206     0.0000 
     33 C33        36.3320  114.0900   51.3630 C.ar      1 TC91206     0.0000 
     34 C34        36.2000  113.2720   52.5300 C.ar      1 TC91206     0.0000 
     35 C35        36.3970  111.8960   52.4590 C.ar      1 TC91206     0.0000 
     36 C36        36.1050  115.5870   51.4220 C.3       1 TC91206     0.0000 
     37 O37        41.8020  115.2530   48.5980 O.3       1 TC91206     0.0000 
     38 C38        42.5670  116.3090   48.0430 C.3       1 TC91206     0.0000 
     39 O39        43.1970  113.7730   52.3910 O.3       1 TC91206     0.0000 
     40 O40        33.2670  107.6020   53.3540 O.3       1 TC91206     0.0000 
     41 C41        32.8740  106.3610   53.7670 C.3       1 TC91206     0.0000 
     42 O42        34.1830  109.4830   51.4410 O.3       1 TC91206     0.0000 
     43 C43        36.4320  118.5700   53.1010 C.3       1 TC91206     0.0000 
     44 C44        40.9110  108.0110   53.9990 C.3       1 TC91206     0.0000 
     45 C45        40.1210  106.8000   52.0970 C.3       1 TC91206     0.0000 
     46 H          38.3036  118.1709   52.2396 H         1 TC91206     0.0000 
     47 H          36.6264  119.4076   50.9432 H         1 TC91206     0.0000 
     48 H          35.9344  117.8649   50.4129 H         1 TC91206     0.0000 
     49 H          38.6179  119.0557   49.9101 H         1 TC91206     0.0000 
     50 H          37.5562  118.1151   48.8480 H         1 TC91206     0.0000 
     51 H          37.5275  115.8605   52.9979 H         1 TC91206     0.0000 
     52 H          40.1307  117.3061   48.4828 H         1 TC91206     0.0000 
     53 H          39.0963  114.2180   52.1322 H         1 TC91206     0.0000 
     54 H          43.0593  112.1972   54.5204 H         1 TC91206     0.0000 
     55 H          41.2964  110.6244   55.0174 H         1 TC91206     0.0000 
     56 H          39.3195  111.6873   51.4696 H         1 TC91206     0.0000 
     57 H          38.0670  110.5448   53.6471 H         1 TC91206     0.0000 
     58 H          39.1879  109.7413   54.7597 H         1 TC91206     0.0000 
     59 H          39.1031  108.9459   51.8228 H         1 TC91206     0.0000 
     60 H          39.8618  106.1596   54.9001 H         1 TC91206     0.0000 
     61 H          38.9806  105.5545   53.4869 H         1 TC91206     0.0000 
     62 H          38.0159  107.4034   55.6810 H         1 TC91206     0.0000 
     63 H          37.3798  105.8377   55.1482 H         1 TC91206     0.0000 
     64 H          35.1837  106.5465   54.7372 H         1 TC91206     0.0000 
     65 H          37.1318  111.6989   49.1831 H         1 TC91206     0.0000 
     66 H          36.7662  114.0867   49.3118 H         1 TC91206     0.0000 
     67 H          35.9571  113.7211   53.4203 H         1 TC91206     0.0000 
     68 H          36.2972  111.3114   53.2900 H         1 TC91206     0.0000 
     69 H          35.9333  115.9737   50.4276 H         1 TC91206     0.0000 
     70 H          35.2594  115.8073   52.0579 H         1 TC91206     0.0000 
     71 H          42.9985  116.8673   48.7516 H         1 TC91206     0.0000 
     72 H          43.2986  115.9674   47.4531 H         1 TC91206     0.0000 
     73 H          42.0054  116.9226   47.4879 H         1 TC91206     0.0000 
     74 H          33.1777  105.6464   53.1369 H         1 TC91206     0.0000 
     75 H          33.2449  106.1346   54.6677 H         1 TC91206     0.0000 
     76 H          31.8788  106.2896   53.8334 H         1 TC91206     0.0000 
     77 H          36.5822  118.2469   54.0354 H         1 TC91206     0.0000 
     78 H          36.7275  119.5248   53.0700 H         1 TC91206     0.0000 
     79 H          35.4445  118.5636   52.9438 H         1 TC91206     0.0000 
     80 H          41.4838  107.2517   54.3079 H         1 TC91206     0.0000 
     81 H          41.4779  108.5839   53.4071 H         1 TC91206     0.0000 
     82 H          40.6864  108.5562   54.8067 H         1 TC91206     0.0000 
     83 H          40.6696  107.3720   51.4872 H         1 TC91206     0.0000 
     84 H          40.6752  105.9996   52.3255 H         1 TC91206     0.0000 
     85 H          39.3385  106.4731   51.5670 H         1 TC91206     0.0000 
     86 H          43.5159  114.1325   53.2680 H         1 TC91206     0.0000 
     87 H          33.2895  109.1140   51.6971 H         1 TC91206     0.0000 
@<TRIPOS>BOND
     1    2    1 1    
     2    6    1 1    
     3   43    1 1    
     4   46    1 1    
     5    3    2 1    
     6   47    2 1    
     7   48    2 1    
     8    4    3 1    
     9   49    3 1    
    10   50    3 1    
    11    5    4 ar   
    12    7    4 ar   
    13    6    5 1    
    14   10    5 ar   
    15   36    6 1    
    16   51    6 1    
    17    8    7 ar   
    18   52    7 1    
    19    9    8 ar   
    20   37    8 1    
    21   10    9 ar   
    22   11    9 1    
    23   53   10 1    
    24   12   11 1    
    25   13   12 ar   
    26   17   12 ar   
    27   14   13 ar   
    28   39   13 1    
    29   15   14 ar   
    30   54   14 1    
    31   16   15 ar   
    32   55   15 1    
    33   17   16 ar   
    34   18   16 1    
    35   56   17 1    
    36   19   18 1    
    37   57   18 1    
    38   58   18 1    
    39   20   19 1    
    40   24   19 1    
    41   59   19 1    
    42   21   20 1    
    43   44   20 1    
    44   45   20 1    
    45   22   21 1    
    46   60   21 1    
    47   61   21 1    
    48   23   22 1    
    49   62   22 1    
    50   63   22 1    
    51   24   23 ar   
    52   25   23 ar   
    53   28   24 ar   
    54   26   25 ar   
    55   64   25 1    
    56   27   26 ar   
    57   40   26 1    
    58   28   27 ar   
    59   42   27 1    
    60   29   28 1    
    61   30   29 1    
    62   31   30 ar   
    63   35   30 ar   
    64   32   31 ar   
    65   65   31 1    
    66   33   32 ar   
    67   66   32 1    
    68   34   33 ar   
    69   36   33 1    
    70   35   34 ar   
    71   67   34 1    
    72   68   35 1    
    73   69   36 1    
    74   70   36 1    
    75   38   37 1    
    76   71   38 1    
    77   72   38 1    
    78   73   38 1    
    79   86   39 1    
    80   41   40 1    
    81   74   41 1    
    82   75   41 1    
    83   76   41 1    
    84   87   42 1    
    85   77   43 1    
    86   78   43 1    
    87   79   43 1    
    88   80   44 1    
    89   81   44 1    
    90   82   44 1    
    91   83   45 1    
    92   84   45 1    
    93   85   45 1    
@<TRIPOS>SUBSTRUCTURE
     1 TC91206     1 GROUP   
@<TRIPOS>SET

