#    Name: 1bnm_AL8_1_INTS_M
#    Modification time : Mon Mar 24 19:39:34 2014

@<TRIPOS>MOLECULE
1bnm_AL8_1_INTS_M
   44     0    12     0     0
SMALL
NO_CHARGES


@<TRIPOS>ATOM
      1 CA         -0.5765    5.4205   14.9450 C.3       4 GLC5        0.0000 
      2 CA         -2.4630    4.8670   13.9500 C.3      12 GLL5        0.0000 
      3 CA          1.3100    5.9740   15.9400 C.3       8 GLP5        0.0000 
      4 CA         -1.7055    1.6405   14.3295 C.3       4 GLC5        0.0000 
      5 CA         -2.8930    3.4230   13.6810 C.3      12 GLL5        0.0000 
      6 CA         -0.5180   -0.1420   14.9780 C.3       8 GLP5        0.0000 
      7 CA         -0.0020    1.6535   11.8650 C.3       4 GLC5        0.0000 
      8 CA         -1.7410    2.8760   12.0540 C.3      12 GLL5        0.0000 
      9 CA          1.7370    0.4310   11.6760 C.3       8 GLP5        0.0000 
     10 CA         -1.1295    1.3670   13.5160 C.3       4 GLC5        0.0000 
     11 CA         -2.2860    6.4190   16.1450 C.3       4 GLC5        0.0000 
     12 CA         -2.3290    7.6200   14.5370 C.3      12 GLL5        0.0000 
     13 CA         -2.2430    5.2180   17.7530 C.3       8 GLP5        0.0000 
     14 CA         -0.5095    6.7970   15.2385 C.3       4 GLC5        0.0000 
     15 CA         -1.6385   11.6580   16.5680 C.3       4 GLC5        0.0000 
     16 CA         -0.6130   10.6880   15.2670 C.3      12 GLL5        0.0000 
     17 CA         -2.6640   12.6280   17.8690 C.3       8 GLP5        0.0000 
     18 CA         -0.4665   10.0445   17.3545 C.3       4 GLC5        0.0000 
     19 CA         -0.3200    9.4010   19.4420 C.3       8 GLP5        0.0000 
     20 O          -4.7205   -1.4545   16.9400 O.2       1 ALC1        0.0000 
     21 O          -5.5380   -0.6170   16.2430 O.2       9 ALL1        0.0000 
     22 O          -3.9030   -2.2920   17.6370 O.2       5 ALP1        0.0000 
     23 Zn         -6.2095   -1.1740   15.8595 Zn        3 ZIC7        0.0000 
     24 Zn         -5.5380   -0.6170   16.2430 Zn       11 ZIL7        0.0000 
     25 Zn         -6.8810   -1.7310   15.4760 Zn        7 ZIP7        0.0000 
     26 N          -4.1235    0.3630   18.6570 N.am      2 SEC2        0.0000 
     27 N          -5.3910    0.7990   18.1650 N.am     10 SEL2        0.0000 
     28 N          -2.8560   -0.0730   19.1490 N.am      6 SEP2        0.0000 
     29 CA         -8.0810    3.3670   15.5000 C.3       4 GLC5        0.0000 
     30 CA         -6.2800    3.4070   15.8760 C.3      12 GLL5        0.0000 
     31 CA         -9.8820    3.3270   15.1240 C.3       8 GLP5        0.0000 
     32 CA         -3.3590    2.4830   17.1015 C.3       4 GLC5        0.0000 
     33 CA         -4.2700    1.8750   15.1870 C.3      12 GLL5        0.0000 
     34 CA         -2.4480    3.0910   19.0160 C.3       8 GLP5        0.0000 
     35 CA         -2.9180    0.3135   14.9815 C.3       4 GLC5        0.0000 
     36 CA         -1.5660   -1.2480   14.7760 C.3       8 GLP5        0.0000 
     37 N          -6.9925    5.0570   12.6445 N.am      2 SEC2        0.0000 
     38 N          -6.1270    6.0410   13.5250 N.am     10 SEL2        0.0000 
     39 N          -7.8580    4.0730   11.7640 N.am      6 SEP2        0.0000 
     40 CA         -4.9230    4.0006   17.1240 C.3       4 GLC5        0.0000 
     41 CA         -5.0780    4.0110   14.8260 C.3      12 GLL5        0.0000 
     42 CA         -4.3870    4.6580   18.8850 C.3       8 GLP5        0.0000 
     43 CA         -2.8117    4.4095   15.9686 C.3       4 GLC5        0.0000 
     44 CA         -4.0830    3.0570   14.5530 C.3      12 GLL5        0.0000 
@<TRIPOS>BOND
@<TRIPOS>SUBSTRUCTURE
     1 ALC1       20 GROUP        1 X    ALC  0     ROOT ALC X 1
     2 SEC2       26 GROUP        1 X    SEC  0     **** SEC X 2
     3 ZIC7       23 GROUP        1 X    ZIC  0     **** ZIC X 5
     4 GLC5        1 GROUP        1 X    GLC  0     **** GLC X 6
     5 ALP1       22 GROUP        1 Y    ALP  0     ROOT ALP Y 8
     6 SEP2       28 GROUP        1 Y    SEP  0     **** SEP Y 9
     7 ZIP7       25 GROUP        1 Y    ZIP  0     **** ZIP Y 12
     8 GLP5        3 GROUP        1 Y    GLP  0     **** GLP Y 13
     9 ALL1       21 GROUP        1 Z    ALL  0     ROOT ALL Z 15
    10 SEL2       27 GROUP        1 Z    SEL  0     **** SEL Z 16
    11 ZIL7       24 GROUP        1 Z    ZIL  0     **** ZIL Z 19
    12 GLL5        2 GROUP        1 Z    GLL  0     **** GLL Z 20
@<TRIPOS>SET

