#    Name: 1bnm_AL8_1_ligand
#    Modification time : Mon Mar 24 19:39:34 2014

@<TRIPOS>MOLECULE
1bnm_AL8_1_ligand
   40    42     1     0     0
SMALL
NO_CHARGES


@<TRIPOS>ATOM
      1 C3         -5.4000    1.9440   15.9240 C.2       1 AL8555      0.0000 
      2 C9         -2.4630    4.8670   13.9500 C.3       1 AL8555      0.0000 
      3 C10        -2.8930    3.4230   13.6810 C.3       1 AL8555      0.0000 
      4 C16        -1.7410    2.8760   12.0540 C.3       1 AL8555      0.0000 
      5 C19        -2.7850    9.0350   12.1510 C.ar      1 AL8555      0.0000 
      6 C20        -2.0570    9.6170   13.1770 C.ar      1 AL8555      0.0000 
      7 C21        -1.8380    8.8910   14.3630 C.ar      1 AL8555      0.0000 
      8 C22        -2.3290    7.6200   14.5370 C.ar      1 AL8555      0.0000 
      9 C24        -0.6130   10.6880   15.2670 C.3       1 AL8555      0.0000 
     10 N21        -5.5380   -0.6170   16.2430 N.pl3     1 AL8555      0.0000 
     11 S1         -5.9500    0.6570   16.8730 S.o2      1 AL8555      0.0000 
     12 O1A        -5.3910    0.7990   18.1650 O.2       1 AL8555      0.0000 
     13 O2A        -7.3510    0.9550   16.9350 O.2       1 AL8555      0.0000 
     14 S2         -6.2800    3.4070   15.8760 S.3       1 AL8555      0.0000 
     15 C6         -5.0780    4.0110   14.8260 C.2       1 AL8555      0.0000 
     16 C5         -4.0830    3.0570   14.5530 C.2       1 AL8555      0.0000 
     17 C4         -4.2700    1.8750   15.1870 C.2       1 AL8555      0.0000 
     18 N8         -3.5320    5.8130   13.6450 N.pl3     1 AL8555      0.0000 
     19 S7         -4.9100    5.6420   14.3140 S.o2      1 AL8555      0.0000 
     20 O3B        -6.1270    6.0410   13.5250 O.2       1 AL8555      0.0000 
     21 O4B        -4.9680    6.5100   15.5190 O.2       1 AL8555      0.0000 
     22 N15        -3.1500    3.2010   12.2660 N.4       1 AL8555      0.0000 
     23 C17        -3.0530    7.0560   13.5040 C.ar      1 AL8555      0.0000 
     24 C18        -3.2870    7.7480   12.3110 C.ar      1 AL8555      0.0000 
     25 O23        -1.1630    9.3500   15.3770 O.3       1 AL8555      0.0000 
     26 H          -1.5709    5.0752   13.3413 H         1 AL8555      0.0000 
     27 H          -2.1639    4.9417   15.0058 H         1 AL8555      0.0000 
     28 H          -2.0482    2.7814   14.0025 H         1 AL8555      0.0000 
     29 H          -2.9534    9.5483   11.2790 H         1 AL8555      0.0000 
     30 H          -1.6797   10.5611   13.0831 H         1 AL8555      0.0000 
     31 H          -2.1662    7.1049   15.4011 H         1 AL8555      0.0000 
     32 H          -4.6586   -0.9900   16.5388 H         1 AL8555      0.0000 
     33 H          -3.6862    1.1051   15.1213 H         1 AL8555      0.0000 
     34 H          -3.8264    7.3053   11.5605 H         1 AL8555      0.0000 
     35 H          -1.1367    3.5679   12.4491 H         1 AL8555      0.0000 
     36 H          -1.4952    2.0004   12.4698 H         1 AL8555      0.0000 
     37 H          -1.5169    2.8119   11.0815 H         1 AL8555      0.0000 
     38 H          -0.1140   10.9534   16.0920 H         1 AL8555      0.0000 
     39 H           0.0250   10.7654   14.5009 H         1 AL8555      0.0000 
     40 H          -1.3276   11.3727   15.1236 H         1 AL8555      0.0000 
@<TRIPOS>BOND
     1   11    1 1    
     2   14    1 1    
     3   17    1 2    
     4    3    2 1    
     5   18    2 1    
     6   26    2 1    
     7   27    2 1    
     8   16    3 1    
     9   22    3 1    
    10   28    3 1    
    11   22    4 1    
    12   35    4 1    
    13   36    4 1    
    14   37    4 1    
    15    6    5 ar   
    16   24    5 ar   
    17   29    5 1    
    18    7    6 ar   
    19   30    6 1    
    20    8    7 ar   
    21   25    7 1    
    22   23    8 ar   
    23   31    8 1    
    24   25    9 1    
    25   38    9 1    
    26   39    9 1    
    27   40    9 1    
    28   11   10 1    
    29   32   10 1    
    30   12   11 2    
    31   13   11 2    
    32   15   14 1    
    33   16   15 2    
    34   19   15 1    
    35   17   16 1    
    36   33   17 1    
    37   19   18 1    
    38   23   18 1    
    39   20   19 2    
    40   21   19 2    
    41   24   23 ar   
    42   34   24 1    
@<TRIPOS>SUBSTRUCTURE
     1 AL8555      1 GROUP   
@<TRIPOS>SET

