#    Name: 2vwv_7X3_1_INTS_M
#    Modification time : Tue Mar 25 03:12:07 2014

@<TRIPOS>MOLECULE
2vwv_7X3_1_INTS_M
   76     0     9     0     0
SMALL
NO_CHARGES


@<TRIPOS>ATOM
      1 CA          2.9085    7.5105   11.3680 C.3       3 GLC5        0.0000 
      2 CA          4.6200    7.5380   10.2290 C.3       9 GLL5        0.0000 
      3 CA          1.1970    7.4830   12.5070 C.3       6 GLP5        0.0000 
      4 CA          4.8295    7.2985   12.3160 C.3       3 GLC5        0.0000 
      5 CA          5.0390    7.0590   14.4030 C.3       6 GLP5        0.0000 
      6 CA         11.2905    4.5270   13.8110 C.3       3 GLC5        0.0000 
      7 CA         10.9570    4.4250   12.0500 C.3       9 GLL5        0.0000 
      8 CA         11.6240    4.6290   15.5720 C.3       6 GLP5        0.0000 
      9 CA         11.7055    3.7270   10.5680 C.3       3 GLC5        0.0000 
     10 CA         12.4540    3.0290    9.0860 C.3       6 GLP5        0.0000 
     11 N          11.4795    2.2640   13.5785 N.am      2 SEC2        0.0000 
     12 N          11.6580    3.3300   12.4550 N.am      8 SEL2        0.0000 
     13 N          11.3010    1.1980   14.7020 N.am      5 SEP2        0.0000 
     14 CA         12.2915    4.0140   14.0925 C.3       3 GLC5        0.0000 
     15 CA         12.9590    3.3990   12.6130 C.3       9 GLL5        0.0000 
     16 CA         13.6045    1.7265   11.6855 C.3       3 GLC5        0.0000 
     17 CA         14.2500    0.0540   10.7580 C.3       6 GLP5        0.0000 
     18 CA         12.3610    1.6210   13.6505 C.3       3 GLC5        0.0000 
     19 CA         11.7630   -0.1570   14.6880 C.3       6 GLP5        0.0000 
     20 CA         14.7205    3.6430   13.8210 C.3       3 GLC5        0.0000 
     21 CA         16.4820    3.8870   15.0290 C.3       6 GLP5        0.0000 
     22 CA         14.6655    3.1440   11.4990 C.3       3 GLC5        0.0000 
     23 CA         16.3720    2.8890   10.3850 C.3       6 GLP5        0.0000 
     24 CA         12.7065    3.2140   10.8495 C.3       3 GLC5        0.0000 
     25 N          15.1330    4.6035   12.5425 N.am      2 SEC2        0.0000 
     26 N          13.5870    4.5480   12.3580 N.am      8 SEL2        0.0000 
     27 N          16.6790    4.6590   12.7270 N.am      5 SEP2        0.0000 
     28 CA         12.2655    5.1305   13.7570 C.3       3 GLC5        0.0000 
     29 CA         12.9070    5.6320   11.9420 C.3       9 GLL5        0.0000 
     30 CA         14.7520    5.0160   11.1195 C.3       3 GLC5        0.0000 
     31 CA         16.5970    4.4000   10.2970 C.3       6 GLP5        0.0000 
     32 CA         12.6805    4.3305   10.5140 C.3       3 GLC5        0.0000 
     33 O          15.0500    6.9860   11.3960 O.2       1 ALC1        0.0000 
     34 O          13.6330    6.7920   11.6920 O.2       7 ALL1        0.0000 
     35 O          16.4670    7.1800   11.1000 O.2       4 ALP1        0.0000 
     36 CA         10.5950    8.2090    6.4070 C.3       3 GLC5        0.0000 
     37 CA          9.9090    8.1080    8.3260 C.3       9 GLL5        0.0000 
     38 CA         11.2810    8.3100    4.4880 C.3       6 GLP5        0.0000 
     39 CA         11.2610    6.6630    8.1110 C.3       3 GLC5        0.0000 
     40 CA         12.6130    5.2180    7.8960 C.3       6 GLP5        0.0000 
     41 CA         10.6205   11.9090   12.6445 C.3       3 GLC5        0.0000 
     42 CA         10.7570   12.0560   10.4620 C.3       9 GLL5        0.0000 
     43 CA         10.4840   11.7620   14.8270 C.3       6 GLP5        0.0000 
     44 CA         15.5565   10.2455   13.4705 C.3       3 GLC5        0.0000 
     45 CA         15.0100   11.5310   12.0760 C.3       9 GLL5        0.0000 
     46 CA         16.1030    8.9600   14.8650 C.3       6 GLP5        0.0000 
     47 CA         10.0985    7.9865   13.0950 C.3       3 GLC5        0.0000 
     48 CA          8.9680    6.6560   11.7840 C.3       9 GLL5        0.0000 
     49 CA         11.2290    9.3170   14.4060 C.3       6 GLP5        0.0000 
     50 CA          9.1830    9.7690   13.2340 C.3       3 GLC5        0.0000 
     51 CA          8.2690    9.2510   11.6370 C.3       9 GLL5        0.0000 
     52 CA         10.0970   10.2870   14.8310 C.3       6 GLP5        0.0000 
     53 CA          7.1850   10.5315   12.4040 C.3       3 GLC5        0.0000 
     54 CA          6.1010   11.8120   13.1710 C.3       6 GLP5        0.0000 
     55 CA          7.8810    8.0945   13.3180 C.3       3 GLC5        0.0000 
     56 CA          7.4930    6.9380   14.9990 C.3       6 GLP5        0.0000 
     57 CA          5.8392    6.7918   12.6182 C.3       3 GLC5        0.0000 
     58 CA          6.7650    7.2030   10.9290 C.3       9 GLL5        0.0000 
     59 CA          6.0635    4.0445   11.8195 C.3       3 GLC5        0.0000 
     60 CA          6.5140    5.8460   10.7380 C.3       9 GLL5        0.0000 
     61 CA          5.1320    2.7160   12.7350 C.3       6 GLP5        0.0000 
     62 CA          7.7893    6.0183   13.1633 C.3       3 GLC5        0.0000 
     63 CA          7.4760    4.9000   11.0700 C.3       9 GLL5        0.0000 
     64 CA         11.8655    8.6297   12.5585 C.3       3 GLC5        0.0000 
     65 CA         11.9330    7.9350   10.2940 C.3       9 GLL5        0.0000 
     66 CA         13.5350    8.3227    9.2695 C.3       3 GLC5        0.0000 
     67 CA         13.0710    7.9500   11.1280 C.3       9 GLL5        0.0000 
     68 CA         14.5680    8.7030    7.8280 C.3       6 GLP5        0.0000 
     69 CA         12.5575    6.5802    9.3035 C.3       3 GLC5        0.0000 
     70 CA         13.2012    9.2300    8.8808 C.3       3 GLC5        0.0000 
     71 CA         11.4880    9.1630    9.7780 C.3       9 GLL5        0.0000 
     72 CA         12.3790    9.5322   12.7760 C.3       3 GLC5        0.0000 
     73 CA         13.3130   10.3510   10.8950 C.3       9 GLL5        0.0000 
     74 CA         14.0485    9.2253    9.4870 C.3       3 GLC5        0.0000 
     75 CA         13.7450    9.1440   11.3970 C.3       9 GLL5        0.0000 
     76 CA          7.9855    7.0267   13.3083 C.3       3 GLC5        0.0000 
@<TRIPOS>BOND
@<TRIPOS>SUBSTRUCTURE
     1 ALC1       33 GROUP        1 X    ALC  0     ROOT ALC X 1
     2 SEC2       11 GROUP        1 X    SEC  0     **** SEC X 2
     3 GLC5        1 GROUP        1 X    GLC  0     **** GLC X 6
     4 ALP1       35 GROUP        1 Y    ALP  0     ROOT ALP Y 8
     5 SEP2       13 GROUP        1 Y    SEP  0     **** SEP Y 9
     6 GLP5        3 GROUP        1 Y    GLP  0     **** GLP Y 13
     7 ALL1       34 GROUP        1 Z    ALL  0     ROOT ALL Z 15
     8 SEL2       12 GROUP        1 Z    SEL  0     **** SEL Z 16
     9 GLL5        2 GROUP        1 Z    GLL  0     **** GLL Z 20
@<TRIPOS>SET

