#    Name: 2vwv_7X3_1_ligand
#    Modification time : Tue Mar 25 03:12:07 2014

@<TRIPOS>MOLECULE
2vwv_7X3_1_ligand
   49    51     1     0     0
SMALL
NO_CHARGES


@<TRIPOS>ATOM
      1 C1          4.6200    7.5380   10.2290 C.3       1 7X31888     0.0000 
      2 O2          5.8290    8.1920   10.6290 O.3       1 7X31888     0.0000 
      3 C3          6.7650    7.2030   10.9290 C.ar      1 7X31888     0.0000 
      4 C4          6.5140    5.8460   10.7380 C.ar      1 7X31888     0.0000 
      5 C5          7.4760    4.9000   11.0700 C.ar      1 7X31888     0.0000 
      6 C6          8.6950    5.2970   11.5850 C.ar      1 7X31888     0.0000 
      7 N7          9.5950    4.2720   11.9100 N.pl3     1 7X31888     0.0000 
      8 C8         10.9570    4.4250   12.0500 C.ar      1 7X31888     0.0000 
      9 N9         11.6580    3.3300   12.4550 N.ar      1 7X31888     0.0000 
     10 C10        12.9590    3.3990   12.6130 C.ar      1 7X31888     0.0000 
     11 N11        13.5870    4.5480   12.3580 N.ar      1 7X31888     0.0000 
     12 C12        12.9070    5.6320   11.9420 C.ar      1 7X31888     0.0000 
     13 N13        13.6330    6.7920   11.6920 N.pl3     1 7X31888     0.0000 
     14 C14        13.0710    7.9500   11.1280 C.ar      1 7X31888     0.0000 
     15 C15        11.9330    7.9350   10.2940 C.ar      1 7X31888     0.0000 
     16 C16        11.4880    9.1630    9.7780 C.ar      1 7X31888     0.0000 
     17 O17        10.3910    9.3030    8.9750 O.3       1 7X31888     0.0000 
     18 C18         9.9090    8.1080    8.3260 C.3       1 7X31888     0.0000 
     19 C19        12.1810   10.3510   10.0890 C.ar      1 7X31888     0.0000 
     20 O20        11.8010   11.5740    9.5990 O.3       1 7X31888     0.0000 
     21 C21        10.7570   12.0560   10.4620 C.3       1 7X31888     0.0000 
     22 C22        13.3130   10.3510   10.8950 C.ar      1 7X31888     0.0000 
     23 O23        13.9200   11.5750   11.1290 O.3       1 7X31888     0.0000 
     24 C24        15.0100   11.5310   12.0760 C.3       1 7X31888     0.0000 
     25 C25        13.7450    9.1440   11.3970 C.ar      1 7X31888     0.0000 
     26 N26        11.5710    5.5910   11.7770 N.ar      1 7X31888     0.0000 
     27 C27         8.9680    6.6560   11.7840 C.ar      1 7X31888     0.0000 
     28 C28         7.9880    7.5750   11.4510 C.ar      1 7X31888     0.0000 
     29 CL1         8.2690    9.2510   11.6370 Cl        1 7X31888     0.0000 
     30 H           5.6091    5.5437   10.3481 H         1 7X31888     0.0000 
     31 H           7.2758    3.8974   10.9300 H         1 7X31888     0.0000 
     32 H           9.1831    3.3005   12.0587 H         1 7X31888     0.0000 
     33 H          13.5065    2.5680   12.9349 H         1 7X31888     0.0000 
     34 H          14.6542    6.8091   11.9352 H         1 7X31888     0.0000 
     35 H          11.4597    7.0742   10.0786 H         1 7X31888     0.0000 
     36 H          14.5979    9.1108   11.9954 H         1 7X31888     0.0000 
     37 H           9.8623    6.9514   12.1625 H         1 7X31888     0.0000 
     38 H           4.7581    6.9628    9.4227 H         1 7X31888     0.0000 
     39 H           4.2603    6.9480   10.9518 H         1 7X31888     0.0000 
     40 H           3.9006    8.1942   10.0012 H         1 7X31888     0.0000 
     41 H          10.6037    7.7018    7.7324 H         1 7X31888     0.0000 
     42 H           9.6431    7.4073    8.9881 H         1 7X31888     0.0000 
     43 H           9.1080    8.2921    7.7564 H         1 7X31888     0.0000 
     44 H          11.0700   12.1495   11.4071 H         1 7X31888     0.0000 
     45 H          10.4218   12.9531   10.1742 H         1 7X31888     0.0000 
     46 H           9.9702   11.4390   10.4735 H         1 7X31888     0.0000 
     47 H          15.7440   10.9248   11.7696 H         1 7X31888     0.0000 
     48 H          15.4156   12.4340   12.2177 H         1 7X31888     0.0000 
     49 H          14.7112   11.2002   12.9711 H         1 7X31888     0.0000 
@<TRIPOS>BOND
     1    2    1 1    
     2   38    1 1    
     3   39    1 1    
     4   40    1 1    
     5    3    2 1    
     6    4    3 ar   
     7   28    3 ar   
     8    5    4 ar   
     9   30    4 1    
    10    6    5 ar   
    11   31    5 1    
    12    7    6 1    
    13   27    6 ar   
    14    8    7 1    
    15   32    7 1    
    16    9    8 ar   
    17   26    8 ar   
    18   10    9 ar   
    19   11   10 ar   
    20   33   10 1    
    21   12   11 ar   
    22   13   12 1    
    23   26   12 ar   
    24   14   13 1    
    25   34   13 1    
    26   15   14 ar   
    27   25   14 ar   
    28   16   15 ar   
    29   35   15 1    
    30   17   16 1    
    31   19   16 ar   
    32   18   17 1    
    33   41   18 1    
    34   42   18 1    
    35   43   18 1    
    36   20   19 1    
    37   22   19 ar   
    38   21   20 1    
    39   44   21 1    
    40   45   21 1    
    41   46   21 1    
    42   23   22 1    
    43   25   22 ar   
    44   24   23 1    
    45   47   24 1    
    46   48   24 1    
    47   49   24 1    
    48   36   25 1    
    49   28   27 ar   
    50   37   27 1    
    51   29   28 1    
@<TRIPOS>SUBSTRUCTURE
     1 7X31888     1 GROUP   
@<TRIPOS>SET

