#    Name: 2bjf_DXC_1_INTS_M
#    Modification time : Mon Mar 24 21:05:36 2014

@<TRIPOS>MOLECULE
2bjf_DXC_1_INTS_M
   50     0     6     0     0
SMALL
NO_CHARGES


@<TRIPOS>ATOM
      1 CA         41.0730    0.6630   20.9850 C.3       2 GLC5        0.0000 
      2 CA         39.7770    1.3110   22.5590 C.3       6 GLL5        0.0000 
      3 CA         42.3690    0.0150   19.4110 C.3       4 GLP5        0.0000 
      4 CA         35.5575   -0.7075   21.3525 C.3       2 GLC5        0.0000 
      5 CA         36.1460   -0.0050   23.2870 C.3       6 GLL5        0.0000 
      6 CA         34.9690   -1.4100   19.4180 C.3       4 GLP5        0.0000 
      7 CA         37.3700    0.9100   19.5195 C.3       2 GLC5        0.0000 
      8 CA         38.4130   -0.1240   21.1010 C.3       6 GLL5        0.0000 
      9 CA         36.3270    1.9440   17.9380 C.3       4 GLP5        0.0000 
     10 CA         39.8020   -0.1345   19.8920 C.3       2 GLC5        0.0000 
     11 CA         41.1910   -0.1450   18.6830 C.3       4 GLP5        0.0000 
     12 CA         36.6910   -0.7670   20.2595 C.3       2 GLC5        0.0000 
     13 O          40.8135   -0.5100   27.0865 O.2       1 ALC1        0.0000 
     14 O          41.0060    0.8750   26.0990 O.2       5 ALL1        0.0000 
     15 O          40.6210   -1.8950   28.0740 O.2       3 ALP1        0.0000 
     16 CA         34.2805    3.4965   20.9215 C.3       2 GLC5        0.0000 
     17 CA         33.9030    1.7140   21.9790 C.3       6 GLL5        0.0000 
     18 CA         34.6580    5.2790   19.8640 C.3       4 GLP5        0.0000 
     19 CA         34.4360    0.1520   20.6985 C.3       2 GLC5        0.0000 
     20 CA         33.8330    3.4635   27.6500 C.3       2 GLC5        0.0000 
     21 CA         32.5710    4.5530   26.3970 C.3       6 GLL5        0.0000 
     22 CA         35.0950    2.3740   28.9030 C.3       4 GLP5        0.0000 
     23 CA         31.6845    5.9855   23.5015 C.3       2 GLC5        0.0000 
     24 CA         33.1140    4.8350   23.3740 C.3       6 GLL5        0.0000 
     25 CA         30.2550    7.1360   23.6290 C.3       4 GLP5        0.0000 
     26 CA         32.8695    5.6905   21.7580 C.3       2 GLC5        0.0000 
     27 CA         32.6250    6.5460   20.1420 C.3       4 GLP5        0.0000 
     28 CA         41.6812   -0.9097   25.2160 C.3       2 GLC5        0.0000 
     29 CA         39.5460   -0.5510   24.8050 C.3       6 GLL5        0.0000 
     30 CA         43.2500   -1.7810   25.6480 C.3       4 GLP5        0.0000 
     31 CA         39.2155   -2.8885   22.6707 C.3       2 GLC5        0.0000 
     32 CA         38.9980   -0.9130   23.4130 C.3       6 GLL5        0.0000 
     33 CA         40.0110   -4.3640   21.8510 C.3       4 GLP5        0.0000 
     34 CA         36.1680   -3.3625   23.5683 C.3       2 GLC5        0.0000 
     35 CA         37.8420   -1.9130   23.5680 C.3       6 GLL5        0.0000 
     36 CA         35.1490   -5.1290   23.3320 C.3       4 GLP5        0.0000 
     37 CA         36.5992    4.3540   21.7615 C.3       2 GLC5        0.0000 
     38 CA         35.7450    2.9860   23.0980 C.3       6 GLL5        0.0000 
     39 CA         36.8690    6.0810   20.7720 C.3       4 GLP5        0.0000 
     40 CA         32.5195   -0.1880   26.1090 C.3       2 GLC5        0.0000 
     41 CA         32.8170    1.1670   24.7920 C.3       6 GLL5        0.0000 
     42 CA         31.7290   -0.9730   27.5660 C.3       4 GLP5        0.0000 
     43 CA         34.6065    0.9334   26.3923 C.3       2 GLC5        0.0000 
     44 CA         35.5900    1.0850   28.2510 C.3       4 GLP5        0.0000 
     45 CA         31.6698    2.8245   27.0700 C.3       2 GLC5        0.0000 
     46 CA         31.6940    4.0130   25.2630 C.3       6 GLL5        0.0000 
     47 CA         31.2070    1.3660   28.3100 C.3       4 GLP5        0.0000 
     48 CA         31.2948    5.6570   24.5751 C.3       2 GLC5        0.0000 
     49 CA         31.1610    4.3170   22.7684 C.3       2 GLC5        0.0000 
     50 CA         29.7160    4.3150   21.5270 C.3       4 GLP5        0.0000 
@<TRIPOS>BOND
@<TRIPOS>SUBSTRUCTURE
     1 ALC1       13 GROUP        1 X    ALC  0     ROOT ALC X 1
     2 GLC5        1 GROUP        1 X    GLC  0     **** GLC X 6
     3 ALP1       15 GROUP        1 Y    ALP  0     ROOT ALP Y 8
     4 GLP5        3 GROUP        1 Y    GLP  0     **** GLP Y 13
     5 ALL1       14 GROUP        1 Z    ALL  0     ROOT ALL Z 15
     6 GLL5        2 GROUP        1 Z    GLL  0     **** GLL Z 20
@<TRIPOS>SET

