#    Name: 2bjf_DXC_1_ligand
#    Modification time : Mon Mar 24 21:05:36 2014

@<TRIPOS>MOLECULE
2bjf_DXC_1_ligand
   67    70     1     0     0
SMALL
NO_CHARGES


@<TRIPOS>ATOM
      1 C1         40.6790    0.4740   24.7630 C.3       1 DXC330      0.0000 
      2 C2         39.5460   -0.5510   24.8050 C.3       1 DXC330      0.0000 
      3 C3         38.9980   -0.9130   23.4130 C.3       1 DXC330      0.0000 
      4 C4         38.6230    0.3070   22.5520 C.3       1 DXC330      0.0000 
      5 C5         39.7770    1.3110   22.5590 C.3       1 DXC330      0.0000 
      6 C6         40.2620    1.7000   23.9570 C.3       1 DXC330      0.0000 
      7 C7         37.8420   -1.9130   23.5680 C.3       1 DXC330      0.0000 
      8 C8         36.5320   -1.2790   24.0410 C.3       1 DXC330      0.0000 
      9 C9         36.1460   -0.0050   23.2870 C.3       1 DXC330      0.0000 
     10 C10        37.3350    0.9640   23.1140 C.3       1 DXC330      0.0000 
     11 C11        35.0550    0.7660   24.0380 C.3       1 DXC330      0.0000 
     12 C12        34.5630    2.0330   23.3340 C.3       1 DXC330      0.0000 
     13 C13        35.7450    2.9860   23.0980 C.3       1 DXC330      0.0000 
     14 C14        36.9140    2.2680   22.4040 C.3       1 DXC330      0.0000 
     15 C15        33.8030    0.0270   24.5120 C.3       1 DXC330      0.0000 
     16 C16        32.8170    1.1670   24.7920 C.3       1 DXC330      0.0000 
     17 C17        33.5110    2.4730   24.3650 C.3       1 DXC330      0.0000 
     18 C18        38.4130   -0.1240   21.1010 C.3       1 DXC330      0.0000 
     19 C19        32.5020    3.5930   24.0280 C.3       1 DXC330      0.0000 
     20 O1         36.1940    3.5800   24.3260 O.3       1 DXC330      0.0000 
     21 O2         41.0060    0.8750   26.0990 O.3       1 DXC330      0.0000 
     22 C20        33.9030    1.7140   21.9790 C.3       1 DXC330      0.0000 
     23 C21        31.6940    4.0130   25.2630 C.3       1 DXC330      0.0000 
     24 C22        32.5710    4.5530   26.3970 C.3       1 DXC330      0.0000 
     25 C23        31.8090    5.4570   27.3400 C.2       1 DXC330      0.0000 
     26 O3         30.6460    5.8130   27.0540 O.co2     1 DXC330      0.0000 
     27 O4         32.3880    5.8200   28.3860 O.co2     1 DXC330      0.0000 
     28 C24        33.1140    4.8350   23.3740 C.3       1 DXC330      0.0000 
     29 H          41.5273    0.0206   24.2770 H         1 DXC330      0.0000 
     30 H          38.7235   -0.1544   25.4157 H         1 DXC330      0.0000 
     31 H          39.9069   -1.4675   25.2913 H         1 DXC330      0.0000 
     32 H          39.8132   -1.4574   22.8842 H         1 DXC330      0.0000 
     33 H          39.4603    2.2227   22.0249 H         1 DXC330      0.0000 
     34 H          40.6233    0.8861   21.9933 H         1 DXC330      0.0000 
     35 H          41.1127    2.3772   23.8644 H         1 DXC330      0.0000 
     36 H          39.4591    2.2206   24.4817 H         1 DXC330      0.0000 
     37 H          38.1421   -2.6930   24.2848 H         1 DXC330      0.0000 
     38 H          37.6711   -2.4095   22.6003 H         1 DXC330      0.0000 
     39 H          36.6159   -1.0463   25.1155 H         1 DXC330      0.0000 
     40 H          35.7197   -2.0169   23.9344 H         1 DXC330      0.0000 
     41 H          35.7697   -0.2553   22.3122 H         1 DXC330      0.0000 
     42 H          37.6042    1.2877   24.1833 H         1 DXC330      0.0000 
     43 H          35.5368    1.1666   25.0023 H         1 DXC330      0.0000 
     44 H          35.3987    3.7688   22.4085 H         1 DXC330      0.0000 
     45 H          36.6268    2.0318   21.3726 H         1 DXC330      0.0000 
     46 H          37.7765    2.9438   22.3658 H         1 DXC330      0.0000 
     47 H          34.0101   -0.4937   25.4074 H         1 DXC330      0.0000 
     48 H          33.4305   -0.5843   23.7353 H         1 DXC330      0.0000 
     49 H          32.5994    1.2059   25.8394 H         1 DXC330      0.0000 
     50 H          31.9305    1.0280   24.2082 H         1 DXC330      0.0000 
     51 H          34.0860    2.7871   25.2814 H         1 DXC330      0.0000 
     52 H          31.7682    3.1712   23.3070 H         1 DXC330      0.0000 
     53 H          31.1280    3.1477   25.6294 H         1 DXC330      0.0000 
     54 H          30.9719    4.7852   24.9704 H         1 DXC330      0.0000 
     55 H          33.4123    5.1055   25.9594 H         1 DXC330      0.0000 
     56 H          32.9850    3.7047   26.9570 H         1 DXC330      0.0000 
     57 H          39.2380   -0.5342   20.7123 H         1 DXC330      0.0000 
     58 H          37.6816   -0.8007   21.0167 H         1 DXC330      0.0000 
     59 H          38.1663    0.6486   20.5161 H         1 DXC330      0.0000 
     60 H          34.5378    1.2587   21.3547 H         1 DXC330      0.0000 
     61 H          33.1121    1.1112   22.0839 H         1 DXC330      0.0000 
     62 H          33.5818    2.5415   21.5184 H         1 DXC330      0.0000 
     63 H          33.7976    5.2661   23.9629 H         1 DXC330      0.0000 
     64 H          33.5680    4.6146   22.5107 H         1 DXC330      0.0000 
     65 H          32.4217    5.5279   23.1726 H         1 DXC330      0.0000 
     66 H          36.1986    2.8314   24.9890 H         1 DXC330      0.0000 
     67 H          40.8937    0.0492   26.6517 H         1 DXC330      0.0000 
@<TRIPOS>BOND
     1    2    1 1    
     2    6    1 1    
     3   21    1 1    
     4   29    1 1    
     5    3    2 1    
     6   30    2 1    
     7   31    2 1    
     8    4    3 1    
     9    7    3 1    
    10   32    3 1    
    11    5    4 1    
    12   10    4 1    
    13   18    4 1    
    14    6    5 1    
    15   33    5 1    
    16   34    5 1    
    17   35    6 1    
    18   36    6 1    
    19    8    7 1    
    20   37    7 1    
    21   38    7 1    
    22    9    8 1    
    23   39    8 1    
    24   40    8 1    
    25   10    9 1    
    26   11    9 1    
    27   41    9 1    
    28   14   10 1    
    29   42   10 1    
    30   12   11 1    
    31   15   11 1    
    32   43   11 1    
    33   13   12 1    
    34   17   12 1    
    35   22   12 1    
    36   14   13 1    
    37   20   13 1    
    38   44   13 1    
    39   45   14 1    
    40   46   14 1    
    41   16   15 1    
    42   47   15 1    
    43   48   15 1    
    44   17   16 1    
    45   49   16 1    
    46   50   16 1    
    47   19   17 1    
    48   51   17 1    
    49   57   18 1    
    50   58   18 1    
    51   59   18 1    
    52   23   19 1    
    53   28   19 1    
    54   52   19 1    
    55   66   20 1    
    56   67   21 1    
    57   60   22 1    
    58   61   22 1    
    59   62   22 1    
    60   24   23 1    
    61   53   23 1    
    62   54   23 1    
    63   25   24 1    
    64   55   24 1    
    65   56   24 1    
    66   26   25 ar   
    67   27   25 ar   
    68   63   28 1    
    69   64   28 1    
    70   65   28 1    
@<TRIPOS>SUBSTRUCTURE
     1 DXC330      1 GROUP   
@<TRIPOS>SET

