#    Name: 1dgg_NDP_2_INTS_M
#    Modification time : Mon Mar 24 21:54:04 2014

@<TRIPOS>MOLECULE
1dgg_NDP_2_INTS_M
   73     0    12     0     0
SMALL
NO_CHARGES


@<TRIPOS>ATOM
      1 N          14.9420  -12.8700   66.8425 N.am      2 SEC2        0.0000 
      2 N          14.1810  -13.4070   67.9220 N.am     10 SEL2        0.0000 
      3 N          15.7030  -12.3330   65.7630 N.am      6 SEP2        0.0000 
      4 N          14.9405  -11.6735   67.1650 N.am      2 SEC2        0.0000 
      5 N          14.1780  -11.0140   68.5670 N.am     10 SEL2        0.0000 
      6 CA         13.0365   -8.7860   70.9730 C.3       4 GLC5        0.0000 
      7 CA         14.0730   -9.9680   69.5320 C.3      12 GLL5        0.0000 
      8 CA         12.0000   -7.6040   72.4140 C.3       8 GLP5        0.0000 
      9 N          18.0385   -5.6855   69.5470 N.am      2 SEC2        0.0000 
     10 N          17.9270   -7.1850   68.9700 N.am     10 SEL2        0.0000 
     11 N          18.1500   -4.1860   70.1240 N.am      6 SEP2        0.0000 
     12 CA         13.2575   -5.8195   71.9995 C.3       4 GLC5        0.0000 
     13 CA         14.5150   -4.0350   71.5850 C.3      12 GLL5        0.0000 
     14 CA         12.8765   -1.0750   72.7130 C.3       4 GLC5        0.0000 
     15 CA         14.0740   -2.7260   71.8030 C.3      12 GLL5        0.0000 
     16 CA         11.6790    0.5760   73.6230 C.3       8 GLP5        0.0000 
     17 O          13.3600   -0.8305   72.8560 O.2       1 ALC1        0.0000 
     18 O          13.9890   -2.2150   73.0370 O.2       9 ALL1        0.0000 
     19 O          12.7310    0.5540   72.6750 O.2       5 ALP1        0.0000 
     20 CA         12.5440   -1.0390   68.6465 C.3       4 GLC5        0.0000 
     21 CA         13.9960   -2.4830   69.4540 C.3      12 GLL5        0.0000 
     22 CA         11.0920    0.4050   67.8390 C.3       8 GLP5        0.0000 
     23 CA         15.8125   -2.0600   70.3340 C.3       4 GLC5        0.0000 
     24 CA         17.6290   -1.6370   71.2140 C.3       8 GLP5        0.0000 
     25 N          12.7675  -13.1630   64.4900 N.am      2 SEC2        0.0000 
     26 N          12.4460  -12.1950   65.5720 N.am     10 SEL2        0.0000 
     27 N          13.0890  -14.1310   63.4080 N.am      6 SEP2        0.0000 
     28 CA          8.2640   -8.1440   69.2655 C.3       4 GLC5        0.0000 
     29 CA          9.4250   -9.2600   67.7010 C.3      12 GLL5        0.0000 
     30 CA          7.1030   -7.0280   70.8300 C.3       8 GLP5        0.0000 
     31 CA          8.4475   -6.4550   68.2950 C.3       4 GLC5        0.0000 
     32 CA          9.6040   -7.1310   66.6230 C.3      12 GLL5        0.0000 
     33 CA          7.2910   -5.7790   69.9670 C.3       8 GLP5        0.0000 
     34 N           8.1115   -5.3680   66.4495 N.am      2 SEC2        0.0000 
     35 N           8.7690   -6.1800   67.2820 N.am     10 SEL2        0.0000 
     36 N           7.4540   -4.5560   65.6170 N.am      6 SEP2        0.0000 
     37 CA         10.2530   -6.2105   69.0115 C.3       4 GLC5        0.0000 
     38 CA         10.8860   -7.3530   67.4380 C.3      12 GLL5        0.0000 
     39 CA          9.6200   -5.0680   70.5850 C.3       8 GLP5        0.0000 
     40 CA         10.5630   -8.0980   69.3035 C.3       4 GLC5        0.0000 
     41 CA         10.2400   -8.8430   71.1690 C.3       8 GLP5        0.0000 
     42 CA         11.1515   -8.3815   64.2580 C.3       4 GLC5        0.0000 
     43 CA         12.5340   -8.2060   65.7210 C.3      12 GLL5        0.0000 
     44 CA          9.7690   -8.5570   62.7950 C.3       8 GLP5        0.0000 
     45 CA         12.2340   -7.2365   63.6265 C.3       4 GLC5        0.0000 
     46 CA         13.7290   -8.1350   64.9970 C.3      12 GLL5        0.0000 
     47 CA         10.7390   -6.3380   62.2560 C.3       8 GLP5        0.0000 
     48 O          12.9170  -11.0675   62.4875 O.2       1 ALC1        0.0000 
     49 O          13.3240  -10.2420   63.8330 O.2       9 ALL1        0.0000 
     50 O          12.5100  -11.8930   61.1420 O.2       5 ALP1        0.0000 
     51 NZ         21.0260   -8.4945   67.4690 N.4       3 LYC4        0.0000 
     52 NZ         20.2510   -6.9660   68.4860 N.4      11 LYL4        0.0000 
     53 NZ         21.8010  -10.0230   66.4520 N.4       7 LYP4        0.0000 
     54 N          20.5610   -5.8705   67.8670 N.am      2 SEC2        0.0000 
     55 N          20.2510   -6.9660   68.4860 N.am     10 SEL2        0.0000 
     56 N          20.8710   -4.7750   67.2480 N.am      6 SEP2        0.0000 
     57 NZ         20.5670   -9.6230   67.6560 N.4       3 LYC4        0.0000 
     58 NZ         19.3330   -9.2230   68.8600 N.4      11 LYL4        0.0000 
     59 NZ         19.0295   -6.3445   71.5005 N.4       3 LYC4        0.0000 
     60 NZ         19.5350   -7.6440   70.7740 N.4      11 LYL4        0.0000 
     61 NZ         18.2130   -4.0190   71.4420 N.4       7 LYP4        0.0000 
     62 N          19.0295   -6.3445   71.5005 N.am      2 SEC2        0.0000 
     63 N          19.5350   -7.6440   70.7740 N.am     10 SEL2        0.0000 
     64 N          18.5240   -5.0450   72.2270 N.am      6 SEP2        0.0000 
     65 CA         16.0676   -2.7974   71.1085 C.3       4 GLC5        0.0000 
     66 CA          9.8513   -9.4337   69.4027 C.3       4 GLC5        0.0000 
     67 CA          9.5192   -8.1885   64.6690 C.3       4 GLC5        0.0000 
     68 CA          8.9350   -8.5090   66.4630 C.3      12 GLL5        0.0000 
     69 CA         10.5030   -5.5105   66.9053 C.3       4 GLC5        0.0000 
     70 CA         10.7610   -3.7790   66.7800 C.3       8 GLP5        0.0000 
     71 CA         13.7776   -5.1645   64.7420 C.3       4 GLC5        0.0000 
     72 CA         14.3100   -6.1150   66.2540 C.3      12 GLL5        0.0000 
     73 CA         13.7770   -3.9410   63.1260 C.3       8 GLP5        0.0000 
@<TRIPOS>BOND
@<TRIPOS>SUBSTRUCTURE
     1 ALC1       17 GROUP        1 X    ALC  0     ROOT ALC X 1
     2 SEC2        1 GROUP        1 X    SEC  0     **** SEC X 2
     3 LYC4       51 GROUP        1 X    LYC  0     **** LYC X 4
     4 GLC5        6 GROUP        1 X    GLC  0     **** GLC X 6
     5 ALP1       19 GROUP        1 Y    ALP  0     ROOT ALP Y 8
     6 SEP2        3 GROUP        1 Y    SEP  0     **** SEP Y 9
     7 LYP4       53 GROUP        1 Y    LYP  0     **** LYP Y 11
     8 GLP5        8 GROUP        1 Y    GLP  0     **** GLP Y 13
     9 ALL1       18 GROUP        1 Z    ALL  0     ROOT ALL Z 15
    10 SEL2        2 GROUP        1 Z    SEL  0     **** SEL Z 16
    11 LYL4       52 GROUP        1 Z    LYL  0     **** LYL Z 18
    12 GLL5        7 GROUP        1 Z    GLL  0     **** GLL Z 20
@<TRIPOS>SET

