#    Name: 1dgg_NDP_2_ligand
#    Modification time : Mon Mar 24 21:54:04 2014

@<TRIPOS>MOLECULE
1dgg_NDP_2_ligand
   74    78     1     0     0
SMALL
NO_CHARGES


@<TRIPOS>ATOM
      1 PA         13.4260  -12.4180   68.7410 P.3       1 NDP3001     0.0000 
      2 O1A        13.2060  -12.6500   70.1940 O.co2     1 NDP3001     0.0000 
      3 O2A        14.1810  -13.4070   67.9220 O.co2     1 NDP3001     0.0000 
      4 O5B        14.1780  -11.0140   68.5670 O.3       1 NDP3001     0.0000 
      5 C5B        14.0730   -9.9680   69.5320 C.3       1 NDP3001     0.0000 
      6 C4B        14.7940   -8.8340   68.8430 C.3       1 NDP3001     0.0000 
      7 O4B        14.3950   -7.5690   69.3690 O.3       1 NDP3001     0.0000 
      8 C3B        16.2920   -8.9730   68.9760 C.3       1 NDP3001     0.0000 
      9 O3B        16.8810   -9.2290   67.6930 O.3       1 NDP3001     0.0000 
     10 C2B        16.7370   -7.6600   69.6150 C.3       1 NDP3001     0.0000 
     11 O2B        17.9270   -7.1850   68.9700 O.3       1 NDP3001     0.0000 
     12 C1B        15.5450   -6.7180   69.4220 C.3       1 NDP3001     0.0000 
     13 N9A        15.2280   -5.7540   70.5140 N.pl3     1 NDP3001     0.0000 
     14 C8A        15.2920   -5.9680   71.8450 C.2       1 NDP3001     0.0000 
     15 N7A        14.8520   -4.9030   72.5340 N.2       1 NDP3001     0.0000 
     16 C5A        14.5150   -4.0350   71.5850 C.ar      1 NDP3001     0.0000 
     17 C6A        14.0740   -2.7260   71.8030 C.ar      1 NDP3001     0.0000 
     18 N6A        13.9890   -2.2150   73.0370 N.pl3     1 NDP3001     0.0000 
     19 N1A        13.8260   -1.9850   70.6850 N.ar      1 NDP3001     0.0000 
     20 C2A        13.9960   -2.4830   69.4540 C.ar      1 NDP3001     0.0000 
     21 N3A        14.4370   -3.7300   69.2550 N.ar      1 NDP3001     0.0000 
     22 C4A        14.7180   -4.5350   70.3120 C.ar      1 NDP3001     0.0000 
     23 O3         12.0040  -12.1610   68.0160 O.3       1 NDP3001     0.0000 
     24 PN         11.3720  -12.4460   66.5610 P.3       1 NDP3001     0.0000 
     25 O1N        10.7220  -13.7760   66.5710 O.co2     1 NDP3001     0.0000 
     26 O2N        12.4460  -12.1950   65.5720 O.co2     1 NDP3001     0.0000 
     27 O5D        10.2610  -11.2710   66.4420 O.3       1 NDP3001     0.0000 
     28 C5D         9.5000  -10.7890   67.5720 C.3       1 NDP3001     0.0000 
     29 C4D         9.4250   -9.2600   67.7010 C.3       1 NDP3001     0.0000 
     30 O4D        10.7080   -8.6720   68.0380 O.3       1 NDP3001     0.0000 
     31 C3D         8.9350   -8.5090   66.4630 C.3       1 NDP3001     0.0000 
     32 O3D         7.4960   -8.4660   66.3310 O.3       1 NDP3001     0.0000 
     33 C2D         9.6040   -7.1310   66.6230 C.3       1 NDP3001     0.0000 
     34 O2D         8.7690   -6.1800   67.2820 O.3       1 NDP3001     0.0000 
     35 C1D        10.8860   -7.3530   67.4380 C.3       1 NDP3001     0.0000 
     36 N1N        12.1850   -7.2290   66.6890 N.pl3     1 NDP3001     0.0000 
     37 C2N        12.5340   -8.2060   65.7210 C.2       1 NDP3001     0.0000 
     38 C3N        13.7290   -8.1350   64.9970 C.2       1 NDP3001     0.0000 
     39 C7N        13.9280   -9.0560   63.7760 C.2       1 NDP3001     0.0000 
     40 O7N        14.5290   -8.6670   62.7750 O.2       1 NDP3001     0.0000 
     41 N7N        13.3240  -10.2420   63.8330 N.am      1 NDP3001     0.0000 
     42 C4N        14.6230   -7.0910   65.2940 C.3       1 NDP3001     0.0000 
     43 C5N        14.3100   -6.1150   66.2540 C.2       1 NDP3001     0.0000 
     44 C6N        13.0900   -6.1730   66.9420 C.2       1 NDP3001     0.0000 
     45 P2B        19.3750   -7.8120   69.3130 P.3       1 NDP3001     0.0000 
     46 O1X        20.2510   -6.9660   68.4860 O.co2     1 NDP3001     0.0000 
     47 O2X        19.3330   -9.2230   68.8600 O.co2     1 NDP3001     0.0000 
     48 O3X        19.5350   -7.6440   70.7740 O.co2     1 NDP3001     0.0000 
     49 H          14.5858  -10.2015   70.4387 H         1 NDP3001     0.0000 
     50 H          13.0604   -9.6775   69.7048 H         1 NDP3001     0.0000 
     51 H          14.5558   -8.8843   67.7732 H         1 NDP3001     0.0000 
     52 H          16.4796   -9.7641   69.6826 H         1 NDP3001     0.0000 
     53 H          16.8639   -7.8322   70.6585 H         1 NDP3001     0.0000 
     54 H          15.6412   -6.2062   68.4859 H         1 NDP3001     0.0000 
     55 H          15.6208   -6.8021   72.2556 H         1 NDP3001     0.0000 
     56 H          13.6467   -1.2777   73.1025 H         1 NDP3001     0.0000 
     57 H          14.2754   -2.8163   73.7829 H         1 NDP3001     0.0000 
     58 H          13.7759   -1.8745   68.6179 H         1 NDP3001     0.0000 
     59 H           9.9191  -11.1814   68.5288 H         1 NDP3001     0.0000 
     60 H           8.4517  -11.1695   67.5356 H         1 NDP3001     0.0000 
     61 H           8.7163   -9.0194   68.5169 H         1 NDP3001     0.0000 
     62 H           9.4175   -8.9822   65.6063 H         1 NDP3001     0.0000 
     63 H           9.9074   -6.7980   65.6408 H         1 NDP3001     0.0000 
     64 H          10.8632   -6.6119   68.2566 H         1 NDP3001     0.0000 
     65 H          11.8798   -8.9908   65.5518 H         1 NDP3001     0.0000 
     66 H          12.8437  -10.4507   64.6849 H         1 NDP3001     0.0000 
     67 H          13.4053  -10.8168   63.0187 H         1 NDP3001     0.0000 
     68 H          14.9065   -6.5561   64.3025 H         1 NDP3001     0.0000 
     69 H          15.6541   -7.5545   65.5612 H         1 NDP3001     0.0000 
     70 H          14.9745   -5.3605   66.4509 H         1 NDP3001     0.0000 
     71 H          12.8498   -5.4537   67.6281 H         1 NDP3001     0.0000 
     72 H          17.8607   -9.3203   67.8717 H         1 NDP3001     0.0000 
     73 H           7.3283   -8.3997   65.3474 H         1 NDP3001     0.0000 
     74 H           7.8481   -6.5667   67.2332 H         1 NDP3001     0.0000 
@<TRIPOS>BOND
     1    2    1 ar   
     2    3    1 ar   
     3    4    1 1    
     4   23    1 1    
     5    5    4 1    
     6    6    5 1    
     7   49    5 1    
     8   50    5 1    
     9    7    6 1    
    10    8    6 1    
    11   51    6 1    
    12   12    7 1    
    13    9    8 1    
    14   10    8 1    
    15   52    8 1    
    16   72    9 1    
    17   11   10 1    
    18   12   10 1    
    19   53   10 1    
    20   45   11 1    
    21   13   12 1    
    22   54   12 1    
    23   14   13 1    
    24   22   13 1    
    25   15   14 2    
    26   55   14 1    
    27   16   15 1    
    28   17   16 ar   
    29   22   16 ar   
    30   18   17 1    
    31   19   17 ar   
    32   56   18 1    
    33   57   18 1    
    34   20   19 ar   
    35   21   20 ar   
    36   58   20 1    
    37   22   21 ar   
    38   24   23 1    
    39   25   24 ar   
    40   26   24 ar   
    41   27   24 1    
    42   28   27 1    
    43   29   28 1    
    44   59   28 1    
    45   60   28 1    
    46   30   29 1    
    47   31   29 1    
    48   61   29 1    
    49   35   30 1    
    50   32   31 1    
    51   33   31 1    
    52   62   31 1    
    53   73   32 1    
    54   34   33 1    
    55   35   33 1    
    56   63   33 1    
    57   74   34 1    
    58   36   35 1    
    59   64   35 1    
    60   37   36 1    
    61   44   36 1    
    62   38   37 2    
    63   65   37 1    
    64   39   38 1    
    65   42   38 1    
    66   40   39 2    
    67   41   39 am   
    68   66   41 1    
    69   67   41 1    
    70   43   42 1    
    71   68   42 1    
    72   69   42 1    
    73   44   43 2    
    74   70   43 1    
    75   71   44 1    
    76   46   45 ar   
    77   47   45 ar   
    78   48   45 ar   
@<TRIPOS>SUBSTRUCTURE
     1 NDP3001     1 GROUP   
@<TRIPOS>SET

