#    Name: 3T3M_2_CAVITY_N1_ALL.mol2
#    Modification time : Tue Mar 11 02:30:19 2014

@<TRIPOS>MOLECULE
3T3M_2_CAVITY_N1_ALL.mol2
   65     0     6     0     0
SMALL
NO_CHARGES


@<TRIPOS>ATOM
      1 CA         83.9016   91.6842   94.2891 C.3       5 GLY6        0.0000 
      2 CZ         82.8357   92.5503   93.6860 C.ar      4 PHE5        0.0000 
      3 CZ         81.7697   93.4163   93.0829 C.ar      4 PHE5        0.0000 
      4 CZ         80.7037   94.2823   92.4798 C.ar      4 PHE5        0.0000 
      5 N          84.3607   89.6139   94.2354 N.2       2 ALA2        0.0000 
      6 N          83.2947   90.4799   93.6324 N.2       2 ALA2        0.0000 
      7 CA         82.2288   91.3459   93.0293 C.3       5 GLY6        0.0000 
      8 DU         81.1628   92.2119   92.4262 H         6 CUB7        0.0000 
      9 NZ         83.7538   88.4095   93.5788 N.2       3 LYS4        0.0000 
     10 DU         82.6878   89.2756   92.9757 H         6 CUB7        0.0000 
     11 DU         81.6218   90.1416   92.3726 H         6 CUB7        0.0000 
     12 DU         80.5559   91.0076   91.7695 H         6 CUB7        0.0000 
     13 N          83.1469   87.2052   92.9221 N.2       2 ALA2        0.0000 
     14 CZ         82.0809   88.0712   92.3190 C.ar      4 PHE5        0.0000 
     15 CZ         81.0149   88.9372   91.7159 C.ar      4 PHE5        0.0000 
     16 N          82.5400   86.0009   92.2654 N.2       2 ALA2        0.0000 
     17 CZ         81.4740   86.8669   91.6623 C.ar      4 PHE5        0.0000 
     18 CZ         78.9770   93.8370   94.8924 C.ar      4 PHE5        0.0000 
     19 CZ         77.9111   94.7030   94.2893 C.ar      4 PHE5        0.0000 
     20 N          81.5681   90.0346   96.0449 N.2       2 ALA2        0.0000 
     21 N          80.5021   90.9006   95.4418 N.2       2 ALA2        0.0000 
     22 CZ         79.4361   91.7666   94.8388 C.ar      4 PHE5        0.0000 
     23 DU         78.3701   92.6326   94.2357 H         6 CUB7        0.0000 
     24 CA         80.9612   88.8302   95.3882 C.3       5 GLY6        0.0000 
     25 CZ         79.8952   89.6962   94.7851 C.ar      4 PHE5        0.0000 
     26 CZ         78.8292   90.5623   94.1821 C.ar      4 PHE5        0.0000 
     27 DU         77.7632   91.4283   93.5790 H         6 CUB7        0.0000 
     28 CZ         78.2223   89.3579   93.5254 C.ar      4 PHE5        0.0000 
     29 CZ         79.8404   94.0596   93.6861 C.ar      4 PHE5        0.0000 
     30 N          83.4974   89.3912   95.4417 N.2       2 ALA2        0.0000 
     31 CA         82.4314   90.2572   94.8386 C.3       5 GLY6        0.0000 
     32 CA         81.3654   91.1233   94.2356 C.3       5 GLY6        0.0000 
     33 CZ         80.2994   91.9893   93.6325 C.ar      4 PHE5        0.0000 
     34 DU         79.2335   92.8553   93.0294 H         6 CUB7        0.0000 
     35 CA         82.8905   88.1869   94.7850 C.3       5 GLY6        0.0000 
     36 DU         81.8245   89.0529   94.1820 H         6 CUB7        0.0000 
     37 DU         80.7585   89.9189   93.5789 H         6 CUB7        0.0000 
     38 DU         79.6925   90.7849   92.9758 H         6 CUB7        0.0000 
     39 N          82.2836   86.9825   94.1283 N.2       2 ALA2        0.0000 
     40 CZ         81.2176   87.8486   93.5253 C.ar      4 PHE5        0.0000 
     41 CZ         80.1516   88.7146   92.9222 C.ar      4 PHE5        0.0000 
     42 N          79.6387   90.6779   96.6481 N.2       2 ALA2        0.0000 
     43 CZ         78.5728   91.5439   96.0450 C.ar      4 PHE5        0.0000 
     44 CA         77.5068   92.4100   95.4420 C.3       5 GLY6        0.0000 
     45 CZ         79.0318   89.4736   95.9914 C.ar      4 PHE5        0.0000 
     46 CZ         77.9659   90.3396   95.3883 C.ar      4 PHE5        0.0000 
     47 CA         76.8999   91.2056   94.7853 C.3       5 GLY6        0.0000 
     48 N          85.4805   88.8549   91.1662 N.2       2 ALA2        0.0000 
     49 OG         87.0055   85.9185   91.7157 O.2       1 SER1        0.0000 
     50 OG         85.9395   86.7845   91.1126 O.2       1 SER1        0.0000 
     51 OG         84.8736   87.6505   90.5095 O.2       1 SER1        0.0000 
     52 N          83.8076   88.5166   89.9065 N.2       2 ALA2        0.0000 
     53 CA         84.7257   84.3758   89.7992 C.3       5 GLY6        0.0000 
     54 N          84.1581   90.7026   92.4261 N.2       2 ALA2        0.0000 
     55 N          83.0921   91.5686   91.8230 N.2       2 ALA2        0.0000 
     56 NZ         85.6831   87.7662   92.9756 N.2       3 LYS4        0.0000 
     57 N          84.6171   88.6322   92.3725 N.2       2 ALA2        0.0000 
     58 N          83.5512   89.4982   91.7694 N.2       2 ALA2        0.0000 
     59 N          82.4852   90.3643   91.1664 N.2       2 ALA2        0.0000 
     60 NZ         85.0762   86.5619   92.3189 N.2       3 LYS4        0.0000 
     61 DU         84.0102   87.4279   91.7158 H         6 CUB7        0.0000 
     62 N          82.9442   88.2939   91.1127 N.2       2 ALA2        0.0000 
     63 O          85.5353   84.4915   92.2653 O.2       2 ALA2        0.0000 
     64 N          84.4693   85.3575   91.6622 N.2       2 ALA2        0.0000 
     65 CA         83.4033   86.2235   91.0591 C.3       5 GLY6        0.0000 
@<TRIPOS>BOND
@<TRIPOS>SUBSTRUCTURE
     1 SER1       49 GROUP   
     2 ALA2        5 GROUP   
     3 LYS4        9 GROUP   
     4 PHE5        2 GROUP   
     5 GLY6        1 GROUP   
     6 CUB7        8 GROUP   
@<TRIPOS>SET

