#    Name: 3t3m_RC2_2_INTS_M
#    Modification time : Mon Mar 24 19:04:48 2014

@<TRIPOS>MOLECULE
3t3m_RC2_2_INTS_M
   37     0     9     0     0
SMALL
NO_CHARGES


@<TRIPOS>ATOM
      1 OD1        73.1315   99.2045   96.7540 O.co2     2 ASC3        0.0000 
      2 OD1        73.8080   98.9700   94.9220 O.co2     8 ASL3        0.0000 
      3 OD1        72.4550   99.4390   98.5860 O.co2     5 ASP3        0.0000 
      4 OD1        72.8175   99.4135   95.7255 O.co2     2 ASC3        0.0000 
      5 OD1        71.8270   99.8570   96.5290 O.co2     5 ASP3        0.0000 
      6 O          72.8175   99.4135   95.7255 O.2       1 ALC1        0.0000 
      7 O          73.8080   98.9700   94.9220 O.2       7 ALL1        0.0000 
      8 O          71.8270   99.8570   96.5290 O.2       4 ALP1        0.0000 
      9 CA         82.8705   94.8715   91.5545 C.3       3 GLC5        0.0000 
     10 CA         81.4560   94.5640   92.5320 C.3       9 GLL5        0.0000 
     11 CA         84.2850   95.1790   90.5770 C.3       6 GLP5        0.0000 
     12 CA         81.7100   95.3205   94.0555 C.3       3 GLC5        0.0000 
     13 CA         81.9640   96.0770   95.5790 C.3       6 GLP5        0.0000 
     14 O          77.4365  100.2035   94.7170 O.2       1 ALC1        0.0000 
     15 O          77.3030   99.1270   93.8860 O.2       7 ALL1        0.0000 
     16 O          77.5700  101.2800   95.5480 O.2       4 ALP1        0.0000 
     17 CA         86.4970   89.2760   93.1525 C.3       3 GLC5        0.0000 
     18 CA         84.5950   88.8390   94.1370 C.3       9 GLL5        0.0000 
     19 CA         88.3990   89.7130   92.1680 C.3       6 GLP5        0.0000 
     20 OD1        84.8740   86.8090   95.0715 O.co2     2 ASC3        0.0000 
     21 OD1        84.0220   87.5220   94.4390 O.co2     8 ASL3        0.0000 
     22 OD1        85.7260   86.0960   95.7040 O.co2     5 ASP3        0.0000 
     23 OD1        85.6875   87.4605   94.7315 O.co2     2 ASC3        0.0000 
     24 OD1        87.3530   87.3990   95.0240 O.co2     5 ASP3        0.0000 
     25 CA         84.4805   91.6310   92.7445 C.3       3 GLC5        0.0000 
     26 CA         83.6190   89.6760   93.2840 C.3       9 GLL5        0.0000 
     27 CA         85.3420   93.5860   92.2050 C.3       6 GLP5        0.0000 
     28 CA         83.5545   90.9700   95.0825 C.3       3 GLC5        0.0000 
     29 CA         83.4900   92.2640   96.8810 C.3       6 GLP5        0.0000 
     30 CA         81.8597   87.7168   96.3868 C.3       3 GLC5        0.0000 
     31 CA         81.7100   88.3580   94.3300 C.3       9 GLL5        0.0000 
     32 CA         81.4850   87.4440   98.0180 C.3       6 GLP5        0.0000 
     33 CA         80.9532   86.8197   94.6962 C.3       3 GLC5        0.0000 
     34 CA         82.7590   87.6210   95.1810 C.3       9 GLL5        0.0000 
     35 CA         79.6720   85.6500   94.6370 C.3       6 GLP5        0.0000 
     36 CA         82.1240   91.5025   95.5007 C.3       3 GLC5        0.0000 
     37 CA         80.1280   90.7260   94.4270 C.3       9 GLL5        0.0000 
@<TRIPOS>BOND
@<TRIPOS>SUBSTRUCTURE
     1 ALC1        6 GROUP        1 X    ALC  0     ROOT ALC X 1
     2 ASC3        1 GROUP        1 X    ASC  0     **** ASC X 3
     3 GLC5        9 GROUP        1 X    GLC  0     **** GLC X 6
     4 ALP1        8 GROUP        1 Y    ALP  0     ROOT ALP Y 8
     5 ASP3        3 GROUP        1 Y    ASP  0     **** ASP Y 10
     6 GLP5       11 GROUP        1 Y    GLP  0     **** GLP Y 13
     7 ALL1        7 GROUP        1 Z    ALL  0     ROOT ALL Z 15
     8 ASL3        2 GROUP        1 Z    ASL  0     **** ASL Z 17
     9 GLL5       10 GROUP        1 Z    GLL  0     **** GLL Z 20
@<TRIPOS>SET

