#    Name: 3t3m_RC2_2_ligand
#    Modification time : Mon Mar 24 19:04:48 2014

@<TRIPOS>MOLECULE
3t3m_RC2_2_ligand
   46    49     1     0     0
SMALL
NO_CHARGES


@<TRIPOS>ATOM
      1 C          76.0810   98.5290   94.1540 C.2       1 RC25000     0.0000 
      2 N          73.8080   98.9700   94.9220 N.4       1 RC25000     0.0000 
      3 O          75.7720   97.3980   93.7990 O.2       1 RC25000     0.0000 
      4 S          81.4560   94.5640   92.5320 S.3       1 RC25000     0.0000 
      5 C01        82.7590   87.6210   95.1810 C.3       1 RC25000     0.0000 
      6 N01        77.3030   99.1270   93.8860 N.am      1 RC25000     0.0000 
      7 O01        78.1990   91.8830   94.9700 O.2       1 RC25000     0.0000 
      8 C02        84.5950   88.8390   94.1370 C.3       1 RC25000     0.0000 
      9 N02        84.0220   87.5220   94.4390 N.4       1 RC25000     0.0000 
     10 C03        81.0290   93.0210   93.2470 C.2       1 RC25000     0.0000 
     11 N03        82.2320   89.6290   93.7960 N.3       1 RC25000     0.0000 
     12 C04        79.3090   91.8800   94.4390 C.2       1 RC25000     0.0000 
     13 N04        79.7840   93.0390   93.8330 N.am      1 RC25000     0.0000 
     14 C05        83.6190   89.6760   93.2840 C.3       1 RC25000     0.0000 
     15 N05        81.7570   91.9360   93.2600 N.2       1 RC25000     0.0000 
     16 C06        80.2270   98.5900   91.6830 C.ar      1 RC25000     0.0000 
     17 N06        79.1640   94.2440   93.7340 N.2       1 RC25000     0.0000 
     18 C07        80.1280   90.7260   94.4270 C.2       1 RC25000     0.0000 
     19 C08        79.8790   95.1060   93.0890 C.2       1 RC25000     0.0000 
     20 C09        81.7100   88.3580   94.3300 C.3       1 RC25000     0.0000 
     21 C10        79.6480   96.5190   92.7780 C.ar      1 RC25000     0.0000 
     22 C11        80.4590   97.2550   91.9170 C.ar      1 RC25000     0.0000 
     23 C12        75.1850   99.4660   94.9270 C.3       1 RC25000     0.0000 
     24 C13        79.1900   99.2320   92.3240 C.ar      1 RC25000     0.0000 
     25 C14        78.3700   98.5330   93.2000 C.ar      1 RC25000     0.0000 
     26 C15        78.6170   97.1910   93.4230 C.ar      1 RC25000     0.0000 
     27 C16        81.3880   90.7560   93.8140 C.2       1 RC25000     0.0000 
     28 H          82.8942   88.1768   96.1093 H         1 RC25000     0.0000 
     29 H          82.3680   86.6316   95.4197 H         1 RC25000     0.0000 
     30 H          77.4486  100.1271   94.2302 H         1 RC25000     0.0000 
     31 H          85.5304   88.7400   93.5790 H         1 RC25000     0.0000 
     32 H          84.8021   89.3955   95.0555 H         1 RC25000     0.0000 
     33 H          83.6610   89.2973   92.2516 H         1 RC25000     0.0000 
     34 H          83.9877   90.7127   93.2666 H         1 RC25000     0.0000 
     35 H          80.8296   99.1128   91.0267 H         1 RC25000     0.0000 
     36 H          79.7920   89.8651   94.8714 H         1 RC25000     0.0000 
     37 H          80.8271   88.5363   94.9581 H         1 RC25000     0.0000 
     38 H          81.4062   87.6910   93.5123 H         1 RC25000     0.0000 
     39 H          81.2537   96.7781   91.4457 H         1 RC25000     0.0000 
     40 H          75.2376  100.4603   94.4697 H         1 RC25000     0.0000 
     41 H          75.5615   99.5464   95.9529 H         1 RC25000     0.0000 
     42 H          79.0181  100.2359   92.1557 H         1 RC25000     0.0000 
     43 H          78.0148   96.6664   94.0930 H         1 RC25000     0.0000 
     44 H          73.4446   98.8923   93.9936 H         1 RC25000     0.0000 
     45 H          73.7378   98.0647   95.3410 H         1 RC25000     0.0000 
     46 H          73.1933   99.5754   95.4276 H         1 RC25000     0.0000 
@<TRIPOS>BOND
     1    3    1 2    
     2    6    1 am   
     3   23    1 1    
     4   23    2 1    
     5   44    2 1    
     6   45    2 1    
     7   46    2 1    
     8   10    4 1    
     9   19    4 1    
    10    9    5 1    
    11   20    5 1    
    12   28    5 1    
    13   29    5 1    
    14   25    6 1    
    15   30    6 1    
    16   12    7 2    
    17    9    8 1    
    18   14    8 1    
    19   31    8 1    
    20   32    8 1    
    21   13   10 1    
    22   15   10 2    
    23   14   11 1    
    24   20   11 1    
    25   27   11 1    
    26   13   12 am   
    27   18   12 1    
    28   17   13 1    
    29   33   14 1    
    30   34   14 1    
    31   27   15 1    
    32   22   16 ar   
    33   24   16 ar   
    34   35   16 1    
    35   19   17 2    
    36   27   18 2    
    37   36   18 1    
    38   21   19 1    
    39   37   20 1    
    40   38   20 1    
    41   22   21 ar   
    42   26   21 ar   
    43   39   22 1    
    44   40   23 1    
    45   41   23 1    
    46   25   24 ar   
    47   42   24 1    
    48   26   25 ar   
    49   43   26 1    
@<TRIPOS>SUBSTRUCTURE
     1 RC25000     1 GROUP   
@<TRIPOS>SET

