#    Name: 4acm_7YG_1_INTS_M
#    Modification time : Tue Mar 25 05:30:01 2014

@<TRIPOS>MOLECULE
4acm_7YG_1_INTS_M
   58     0     9     0     0
SMALL
NO_CHARGES


@<TRIPOS>ATOM
      1 CA          2.7115   24.2730    6.0620 C.3       3 GLC5        0.0000 
      2 CA          4.7010   24.0610    6.5590 C.3       9 GLL5        0.0000 
      3 CA          0.7220   24.4850    5.5650 C.3       6 GLP5        0.0000 
      4 N           8.6045   25.0045    5.7315 N.am      2 SEC2        0.0000 
      5 N           7.1710   25.8760    6.0610 N.am      8 SEL2        0.0000 
      6 N          10.0380   24.1330    5.4020 N.am      5 SEP2        0.0000 
      7 N           7.3655   27.3140    9.4020 N.am      2 SEC2        0.0000 
      8 N           7.3250   26.0170    8.5230 N.am      8 SEL2        0.0000 
      9 N           7.4060   28.6110   10.2810 N.am      5 SEP2        0.0000 
     10 CA          0.3625   31.6870    6.1950 C.3       3 GLC5        0.0000 
     11 CA          2.4550   31.4010    6.8410 C.3       9 GLL5        0.0000 
     12 CA         -1.7300   31.9730    5.5490 C.3       6 GLP5        0.0000 
     13 CA          2.1785   33.1510    5.6535 C.3       3 GLC5        0.0000 
     14 CA          1.9020   34.9010    4.4660 C.3       6 GLP5        0.0000 
     15 CA          3.7310   32.9050    6.7295 C.3       3 GLC5        0.0000 
     16 CA          5.0070   34.4090    6.6180 C.3       6 GLP5        0.0000 
     17 CA          2.3560   32.1635    8.8005 C.3       3 GLC5        0.0000 
     18 CA          2.2570   32.9260   10.7600 C.3       6 GLP5        0.0000 
     19 N           2.6420   33.3990    6.5645 N.am      2 SEC2        0.0000 
     20 N           1.6350   32.4370    7.0490 N.am      8 SEL2        0.0000 
     21 N           3.6490   34.3610    6.0800 N.am      5 SEP2        0.0000 
     22 CA          0.4310   29.7490    6.9015 C.3       3 GLC5        0.0000 
     23 CA          0.4920   31.0440    8.6590 C.3       9 GLL5        0.0000 
     24 CA          0.3700   28.4540    5.1440 C.3       6 GLP5        0.0000 
     25 CA         -0.8020   30.9605   12.4925 C.3       3 GLC5        0.0000 
     26 CA         -1.3440   29.1150   11.3360 C.3       9 GLL5        0.0000 
     27 CA         -0.2600   32.8060   13.6490 C.3       6 GLP5        0.0000 
     28 CA         -3.8195   26.0025   13.2720 C.3       3 GLC5        0.0000 
     29 CA         -2.9820   27.9790   13.1910 C.3       9 GLL5        0.0000 
     30 CA         -4.6570   24.0260   13.3530 C.3       6 GLP5        0.0000 
     31 CA         -3.5045   27.5400   11.2295 C.3       3 GLC5        0.0000 
     32 CA         -4.0270   27.1010    9.2680 C.3       6 GLP5        0.0000 
     33 CA         -4.9475   28.3405   12.6425 C.3       3 GLC5        0.0000 
     34 CA         -6.9130   28.7020   12.0940 C.3       6 GLP5        0.0000 
     35 CA         -4.7975   29.0905   11.7940 C.3       3 GLC5        0.0000 
     36 CA         -2.6820   29.4790   11.4940 C.3       9 GLL5        0.0000 
     37 O          -0.0055   34.4635    7.3705 O.2       1 ALC1        0.0000 
     38 O          -0.1680   33.3350    8.1730 O.2       7 ALL1        0.0000 
     39 O           0.1570   35.5920    6.5680 O.2       4 ALP1        0.0000 
     40 CA          6.7973   28.6148    7.5593 C.3       3 GLC5        0.0000 
     41 CA          5.2350   28.0520    6.3560 C.3       9 GLL5        0.0000 
     42 CA          8.3310   29.6510    8.2560 C.3       6 GLP5        0.0000 
     43 CA          4.8180   27.7280   10.1983 C.3       3 GLC5        0.0000 
     44 CA          4.4170   27.1680    8.4390 C.3       9 GLL5        0.0000 
     45 CA          5.6990   27.7910   11.9380 C.3       6 GLP5        0.0000 
     46 CA          2.0930   28.7688    6.0427 C.3       3 GLC5        0.0000 
     47 CA          3.3650   29.1270    7.4750 C.3       9 GLL5        0.0000 
     48 CA          1.3818   29.6255    6.1655 C.3       3 GLC5        0.0000 
     49 CA          2.3320   30.1930    7.5330 C.3       9 GLL5        0.0000 
     50 CA          3.1632   30.1399    9.5164 C.3       3 GLC5        0.0000 
     51 CA          3.4550   30.8610   11.2780 C.3       6 GLP5        0.0000 
     52 CA         -0.5840   31.8205    6.9248 C.3       3 GLC5        0.0000 
     53 CA          1.4095   32.2970    9.5302 C.3       3 GLC5        0.0000 
     54 CA          0.6320   32.2920    7.9420 C.3       9 GLL5        0.0000 
     55 CA         -0.5485   28.6707   14.4520 C.3       3 GLC5        0.0000 
     56 CA         -0.8480   28.1230   12.1650 C.3       9 GLL5        0.0000 
     57 CA          0.1630   29.5010   16.2620 C.3       6 GLP5        0.0000 
     58 CA         -2.9580   28.0750   10.4451 C.3       3 GLC5        0.0000 
@<TRIPOS>BOND
@<TRIPOS>SUBSTRUCTURE
     1 ALC1       37 GROUP        1 X    ALC  0     ROOT ALC X 1
     2 SEC2        4 GROUP        1 X    SEC  0     **** SEC X 2
     3 GLC5        1 GROUP        1 X    GLC  0     **** GLC X 6
     4 ALP1       39 GROUP        1 Y    ALP  0     ROOT ALP Y 8
     5 SEP2        6 GROUP        1 Y    SEP  0     **** SEP Y 9
     6 GLP5        3 GROUP        1 Y    GLP  0     **** GLP Y 13
     7 ALL1       38 GROUP        1 Z    ALL  0     ROOT ALL Z 15
     8 SEL2        5 GROUP        1 Z    SEL  0     **** SEL Z 16
     9 GLL5        2 GROUP        1 Z    GLL  0     **** GLL Z 20
@<TRIPOS>SET

