#    Name: 4acm_7YG_1_ligand
#    Modification time : Tue Mar 25 05:30:01 2014

@<TRIPOS>MOLECULE
4acm_7YG_1_ligand
   55    57     1     0     0
SMALL
NO_CHARGES


@<TRIPOS>ATOM
      1 C1          5.3390   20.3560    6.9990 C.3       1 7YG1302     0.0000 
      2 N2          4.7030   21.6270    7.3360 N.4       1 7YG1302     0.0000 
      3 C3          3.3190   21.4020    7.7540 C.3       1 7YG1302     0.0000 
      4 C4          4.7730   22.5750    6.2180 C.3       1 7YG1302     0.0000 
      5 C5          4.7010   24.0610    6.5590 C.3       1 7YG1302     0.0000 
      6 N6          5.7890   24.4290    7.4760 N.pl3     1 7YG1302     0.0000 
      7 S7          6.5320   25.8560    7.3410 S.o2      1 7YG1302     0.0000 
      8 O8          7.1710   25.8760    6.0610 O.2       1 7YG1302     0.0000 
      9 O9          7.3250   26.0170    8.5230 O.2       1 7YG1302     0.0000 
     10 C10         5.2920   27.1050    7.3690 C.ar      1 7YG1302     0.0000 
     11 C11         4.4170   27.1680    8.4390 C.ar      1 7YG1302     0.0000 
     12 C12         3.4570   28.1620    8.4780 C.ar      1 7YG1302     0.0000 
     13 C13         3.3650   29.1270    7.4750 C.ar      1 7YG1302     0.0000 
     14 C14         4.2670   29.0400    6.4080 C.ar      1 7YG1302     0.0000 
     15 C15         5.2350   28.0520    6.3560 C.ar      1 7YG1302     0.0000 
     16 C16         2.3320   30.1930    7.5330 C.ar      1 7YG1302     0.0000 
     17 C17         2.4550   31.4010    6.8410 C.ar      1 7YG1302     0.0000 
     18 N18         1.6350   32.4370    7.0490 N.ar      1 7YG1302     0.0000 
     19 C19         0.6320   32.2920    7.9420 C.ar      1 7YG1302     0.0000 
     20 C20         0.4920   31.0440    8.6590 C.ar      1 7YG1302     0.0000 
     21 N21         1.3380   30.0240    8.4230 N.ar      1 7YG1302     0.0000 
     22 C22        -0.5780   30.8060    9.6850 C.2       1 7YG1302     0.0000 
     23 O23        -1.4700   31.6310    9.8490 O.2       1 7YG1302     0.0000 
     24 N24        -0.4680   29.6420   10.3590 N.am      1 7YG1302     0.0000 
     25 C25        -1.3440   29.1150   11.3360 C.ar      1 7YG1302     0.0000 
     26 C26        -0.8480   28.1230   12.1650 C.ar      1 7YG1302     0.0000 
     27 C27        -1.6720   27.5580   13.1190 C.ar      1 7YG1302     0.0000 
     28 C28        -2.9820   27.9790   13.1910 C.ar      1 7YG1302     0.0000 
     29 N29        -3.4950   28.9330   12.4080 N.ar      1 7YG1302     0.0000 
     30 C30        -2.6820   29.4790   11.4940 C.ar      1 7YG1302     0.0000 
     31 N31        -0.1680   33.3350    8.1730 N.pl3     1 7YG1302     0.0000 
     32 H           5.2496   22.0662    8.1935 H         1 7YG1302     0.0000 
     33 H           3.9535   22.3565    5.4809 H         1 7YG1302     0.0000 
     34 H           5.7182   22.4068    5.6341 H         1 7YG1302     0.0000 
     35 H           3.7273   24.2642    7.0137 H         1 7YG1302     0.0000 
     36 H           4.7698   24.6325    5.6290 H         1 7YG1302     0.0000 
     37 H           6.1123   23.8432    8.1987 H         1 7YG1302     0.0000 
     38 H           4.4808   26.4798    9.1998 H         1 7YG1302     0.0000 
     39 H           2.7855   28.1957    9.2710 H         1 7YG1302     0.0000 
     40 H           4.2028   29.7368    5.6401 H         1 7YG1302     0.0000 
     41 H           5.9024   28.0187    5.5795 H         1 7YG1302     0.0000 
     42 H           3.2325   31.4733    6.1327 H         1 7YG1302     0.0000 
     43 H           0.3938   29.0140   10.1403 H         1 7YG1302     0.0000 
     44 H           0.1262   27.8104   12.0701 H         1 7YG1302     0.0000 
     45 H          -1.3161   26.8432   13.7569 H         1 7YG1302     0.0000 
     46 H          -3.6048   27.5089   13.9142 H         1 7YG1302     0.0000 
     47 H          -3.0535   30.2308   10.8440 H         1 7YG1302     0.0000 
     48 H          -0.8620   33.2088    8.8819 H         1 7YG1302     0.0000 
     49 H          -0.0016   34.1489    7.6164 H         1 7YG1302     0.0000 
     50 H           6.2885   20.4807    6.7110 H         1 7YG1302     0.0000 
     51 H           5.3488   19.7278    7.7770 H         1 7YG1302     0.0000 
     52 H           4.8649   19.8900    6.2519 H         1 7YG1302     0.0000 
     53 H           3.2655   20.8105    8.5585 H         1 7YG1302     0.0000 
     54 H           2.8580   22.2579    7.9883 H         1 7YG1302     0.0000 
     55 H           2.7796   20.9662    7.0335 H         1 7YG1302     0.0000 
@<TRIPOS>BOND
     1    2    1 1    
     2   50    1 1    
     3   51    1 1    
     4   52    1 1    
     5    3    2 1    
     6    4    2 1    
     7   32    2 1    
     8   53    3 1    
     9   54    3 1    
    10   55    3 1    
    11    5    4 1    
    12   33    4 1    
    13   34    4 1    
    14    6    5 1    
    15   35    5 1    
    16   36    5 1    
    17    7    6 1    
    18   37    6 1    
    19    8    7 2    
    20    9    7 2    
    21   10    7 1    
    22   11   10 ar   
    23   15   10 ar   
    24   12   11 ar   
    25   38   11 1    
    26   13   12 ar   
    27   39   12 1    
    28   14   13 ar   
    29   16   13 1    
    30   15   14 ar   
    31   40   14 1    
    32   41   15 1    
    33   17   16 ar   
    34   21   16 ar   
    35   18   17 ar   
    36   42   17 1    
    37   19   18 ar   
    38   20   19 ar   
    39   31   19 1    
    40   21   20 ar   
    41   22   20 1    
    42   23   22 2    
    43   24   22 am   
    44   25   24 1    
    45   43   24 1    
    46   26   25 ar   
    47   30   25 ar   
    48   27   26 ar   
    49   44   26 1    
    50   28   27 ar   
    51   45   27 1    
    52   29   28 ar   
    53   46   28 1    
    54   30   29 ar   
    55   47   30 1    
    56   48   31 1    
    57   49   31 1    
@<TRIPOS>SUBSTRUCTURE
     1 7YG1302     1 GROUP   
@<TRIPOS>SET

