#    Name: 3a7d_FBN_1_INTS_M
#    Modification time : Tue Mar 25 11:37:14 2014

@<TRIPOS>MOLECULE
3a7d_FBN_1_INTS_M
   96     0    15     0     0
SMALL
NO_CHARGES


@<TRIPOS>ATOM
      1 CA         28.6985   -2.1710   -8.5570 C.3       5 GLC5        0.0000 
      2 CA         30.7590   -2.4750   -9.0070 C.3      15 GLL5        0.0000 
      3 CA         26.6380   -1.8670   -8.1070 C.3      10 GLP5        0.0000 
      4 CA         32.1395   -1.3165   -9.8060 C.3       5 GLC5        0.0000 
      5 CA         33.5200   -0.1580  -10.6050 C.3      10 GLP5        0.0000 
      6 N          30.9330    0.2590   -8.8515 N.am      2 SEC2        0.0000 
      7 N          30.4510   -1.3210   -8.3640 N.am     12 SEL2        0.0000 
      8 N          31.4150    1.8390   -9.3390 N.am      7 SEP2        0.0000 
      9 CA         30.1295    0.6950   -7.8650 C.3       5 GLC5        0.0000 
     10 CA         31.0740   -0.9870   -7.2180 C.3      15 GLL5        0.0000 
     11 CA         29.1850    2.3770   -8.5120 C.3      10 GLP5        0.0000 
     12 CA         32.3735   -0.0755   -8.3475 C.3       5 GLC5        0.0000 
     13 CA         33.6730    0.8360   -9.4770 C.3      10 GLP5        0.0000 
     14 CA         32.8325   -0.2545   -6.4735 C.3       5 GLC5        0.0000 
     15 CA         34.5910    0.4780   -5.7290 C.3      10 GLP5        0.0000 
     16 N          32.6510   -1.2405   -5.3675 N.am      2 SEC2        0.0000 
     17 N          32.0230   -1.7510   -6.6450 N.am     12 SEL2        0.0000 
     18 N          33.2790   -0.7300   -4.0900 N.am      7 SEP2        0.0000 
     19 CA         33.5135   -1.2225   -6.4545 C.3       5 GLC5        0.0000 
     20 CA         32.4360   -2.9230   -7.1800 C.3      15 GLL5        0.0000 
     21 CA         32.1335   -2.5885   -4.9995 C.3       5 GLC5        0.0000 
     22 CA         31.8310   -2.2540   -2.8190 C.3      10 GLP5        0.0000 
     23 CA         31.4190   -4.1765   -6.1300 C.3       5 GLC5        0.0000 
     24 CA         30.4020   -5.4300   -5.0800 C.3      10 GLP5        0.0000 
     25 N          31.0750   -5.8460   -8.9270 N.am      2 SEC2        0.0000 
     26 N          31.8880   -4.4170   -9.2700 N.am     12 SEL2        0.0000 
     27 N          30.2620   -7.2750   -8.5840 N.am      7 SEP2        0.0000 
     28 O          32.9540   -3.5250   -4.9745 O.2       1 ALC1        0.0000 
     29 O          33.3960   -3.6740   -6.5800 O.2      11 ALL1        0.0000 
     30 O          32.5120   -3.3760   -3.3690 O.2       6 ALP1        0.0000 
     31 O          34.4650   -3.4480   -5.4495 O.2       1 ALC1        0.0000 
     32 O          35.5340   -3.2220   -4.3190 O.2       6 ALP1        0.0000 
     33 CA         27.9635   -2.1905   -9.5610 C.3       5 GLC5        0.0000 
     34 CA         29.2890   -2.5140  -11.0150 C.3      15 GLL5        0.0000 
     35 CA         25.7825   -2.2490  -13.0155 C.3       5 GLC5        0.0000 
     36 CA         27.5340   -2.9320  -12.3970 C.3      15 GLL5        0.0000 
     37 CA         24.0310   -1.5660  -13.6340 C.3      10 GLP5        0.0000 
     38 CA         26.8915   -1.9475  -14.4935 C.3       5 GLC5        0.0000 
     39 CA         28.4860   -2.0520  -13.1700 C.3      15 GLL5        0.0000 
     40 CA         25.2970   -1.8430  -15.8170 C.3      10 GLP5        0.0000 
     41 O          28.7325    0.1175  -12.4605 O.2       1 ALC1        0.0000 
     42 O          27.9060   -0.7560  -13.0870 O.2      11 ALL1        0.0000 
     43 O          29.5590    0.9910  -11.8340 O.2       6 ALP1        0.0000 
     44 CA         27.1220   -4.7885  -14.8115 C.3       5 GLC5        0.0000 
     45 CA         27.0400   -3.9790  -13.3560 C.3      15 GLL5        0.0000 
     46 CA         27.2040   -5.5980  -16.2670 C.3      10 GLP5        0.0000 
     47 CA         26.1685   -2.9110  -14.5865 C.3       5 GLC5        0.0000 
     48 CA         27.9515   -6.1390  -10.2845 C.3       5 GLC5        0.0000 
     49 CA         27.7430   -6.1720  -12.4570 C.3      15 GLL5        0.0000 
     50 CA         28.1600   -6.1060   -8.1120 C.3      10 GLP5        0.0000 
     51 CA         28.5285   -7.1755  -10.0210 C.3       5 GLC5        0.0000 
     52 CA         28.8970   -8.2450  -11.9300 C.3      15 GLL5        0.0000 
     53 CA         29.9785   -8.3415  -10.4435 C.3       5 GLC5        0.0000 
     54 CA         31.0600   -8.4380   -8.9570 C.3      10 GLP5        0.0000 
     55 CA         27.8170   -9.5380  -11.1120 C.3       5 GLC5        0.0000 
     56 CA         26.7370  -10.8310  -10.2940 C.3      10 GLP5        0.0000 
     57 CA         22.0600  -12.4680  -14.7095 C.3       5 GLC5        0.0000 
     58 CA         23.5020  -11.0450  -14.5030 C.3      15 GLL5        0.0000 
     59 CA         20.6180  -13.8910  -14.9160 C.3      10 GLP5        0.0000 
     60 NZ         25.2175   -9.1045  -10.8730 N.4       3 LYC4        0.0000 
     61 NZ         24.4730   -8.5210  -11.9790 N.4      13 LYL4        0.0000 
     62 NZ         25.9620   -9.6880   -9.7670 N.4       8 LYP4        0.0000 
     63 Zn         23.4000   -8.6695  -11.4880 Zn        4 ZIC7        0.0000 
     64 Zn         24.4730   -8.5210  -11.9790 Zn       14 ZIL7        0.0000 
     65 Zn         22.3270   -8.8180  -10.9970 Zn        9 ZIP7        0.0000 
     66 N          25.2175   -9.1045  -10.8730 N.am      2 SEC2        0.0000 
     67 N          24.4730   -8.5210  -11.9790 N.am     12 SEL2        0.0000 
     68 N          25.9620   -9.6880   -9.7670 N.am      7 SEP2        0.0000 
     69 Zn         22.2645   -9.3285  -11.9650 Zn        4 ZIC7        0.0000 
     70 Zn         22.2020   -9.8390  -12.9330 Zn       14 ZIL7        0.0000 
     71 N          22.1175  -11.1040  -12.2915 N.am      2 SEC2        0.0000 
     72 N          22.2020   -9.8390  -12.9330 N.am     12 SEL2        0.0000 
     73 N          22.0330  -12.3690  -11.6500 N.am      7 SEP2        0.0000 
     74 O          21.3845   -9.6410  -13.8815 O.2       1 ALC1        0.0000 
     75 O          22.2020   -9.8390  -12.9330 O.2      11 ALL1        0.0000 
     76 O          20.5670   -9.4430  -14.8300 O.2       6 ALP1        0.0000 
     77 CA         30.1385   -4.0325   -7.9872 C.3       5 GLC5        0.0000 
     78 CA         29.0030   -5.1480   -7.2510 C.3      10 GLP5        0.0000 
     79 CA         33.3208   -2.3735   -9.0500 C.3       5 GLC5        0.0000 
     80 CA         31.7890   -3.3590   -8.4400 C.3      15 GLL5        0.0000 
     81 CA         34.5290   -1.6060  -10.2900 C.3      10 GLP5        0.0000 
     82 CA         28.9028   -0.8877  -14.2950 C.3       5 GLC5        0.0000 
     83 CA         29.7910   -2.1510  -12.4080 C.3      15 GLL5        0.0000 
     84 CA         28.6670    0.3260  -15.8010 C.3      10 GLP5        0.0000 
     85 CA         27.7497   -6.0797  -14.4125 C.3       5 GLC5        0.0000 
     86 CA         26.0520   -8.6455  -15.0830 C.3       5 GLC5        0.0000 
     87 CA         25.9050   -9.7720  -13.6080 C.3      15 GLL5        0.0000 
     88 CA         26.1970   -7.0530  -16.0500 C.3      10 GLP5        0.0000 
     89 CA         26.3220  -10.5345  -12.2050 C.3       5 GLC5        0.0000 
     90 CA         26.2360  -12.1885  -13.8145 C.3       5 GLC5        0.0000 
     91 CA         26.5650  -14.1390  -13.5130 C.3      10 GLP5        0.0000 
     92 CA         23.7882   -9.2130  -15.4271 C.3       5 GLC5        0.0000 
     93 CA         23.4760   -7.4760  -16.3270 C.3      10 GLP5        0.0000 
     94 CA         24.7188  -12.5030  -13.5921 C.3       5 GLC5        0.0000 
     95 CA         23.4000  -10.1190  -13.4780 C.3      15 GLL5        0.0000 
     96 CA         25.3370  -14.0560  -12.6570 C.3      10 GLP5        0.0000 
@<TRIPOS>BOND
@<TRIPOS>SUBSTRUCTURE
     1 ALC1       28 GROUP        1 X    ALC  0     ROOT ALC X 1
     2 SEC2        6 GROUP        1 X    SEC  0     **** SEC X 2
     3 LYC4       60 GROUP        1 X    LYC  0     **** LYC X 4
     4 ZIC7       63 GROUP        1 X    ZIC  0     **** ZIC X 5
     5 GLC5        1 GROUP        1 X    GLC  0     **** GLC X 6
     6 ALP1       30 GROUP        1 Y    ALP  0     ROOT ALP Y 8
     7 SEP2        8 GROUP        1 Y    SEP  0     **** SEP Y 9
     8 LYP4       62 GROUP        1 Y    LYP  0     **** LYP Y 11
     9 ZIP7       65 GROUP        1 Y    ZIP  0     **** ZIP Y 12
    10 GLP5        3 GROUP        1 Y    GLP  0     **** GLP Y 13
    11 ALL1       29 GROUP        1 Z    ALL  0     ROOT ALL Z 15
    12 SEL2        7 GROUP        1 Z    SEL  0     **** SEL Z 16
    13 LYL4       61 GROUP        1 Z    LYL  0     **** LYL Z 18
    14 ZIL7       64 GROUP        1 Z    ZIL  0     **** ZIL Z 19
    15 GLL5        2 GROUP        1 Z    GLL  0     **** GLL Z 20
@<TRIPOS>SET

