#    Name: 3a7d_FBN_1_ligand
#    Modification time : Tue Mar 25 11:37:14 2014

@<TRIPOS>MOLECULE
3a7d_FBN_1_ligand
   57    61     1     0     0
SMALL
NO_CHARGES


@<TRIPOS>ATOM
      1 C1         30.7590   -2.4750   -9.0070 C.ar      1 FBN304      0.0000 
      2 N2         30.4510   -1.3210   -8.3640 N.ar      1 FBN304      0.0000 
      3 C3         31.0740   -0.9870   -7.2180 C.ar      1 FBN304      0.0000 
      4 N4         32.0230   -1.7510   -6.6450 N.ar      1 FBN304      0.0000 
      5 C5         32.4360   -2.9230   -7.1800 C.ar      1 FBN304      0.0000 
      6 C6         31.7890   -3.3590   -8.4400 C.ar      1 FBN304      0.0000 
      7 N8         31.8880   -4.4170   -9.2700 N.2       1 FBN304      0.0000 
      8 C9         31.0040   -4.2220  -10.2890 C.2       1 FBN304      0.0000 
      9 N10        30.3350   -3.0650  -10.1270 N.pl3     1 FBN304      0.0000 
     10 N11        33.3960   -3.6740   -6.5800 N.pl3     1 FBN304      0.0000 
     11 C15        29.2890   -2.5140  -11.0150 C.3       1 FBN304      0.0000 
     12 O16        28.2680   -3.4710  -11.2880 O.3       1 FBN304      0.0000 
     13 C17        27.5340   -2.9320  -12.3970 C.3       1 FBN304      0.0000 
     14 C18        28.4860   -2.0520  -13.1700 C.3       1 FBN304      0.0000 
     15 C19        29.7910   -2.1510  -12.4080 C.3       1 FBN304      0.0000 
     16 O21        27.9060   -0.7560  -13.0870 O.3       1 FBN304      0.0000 
     17 O23        30.4970   -0.9120  -12.4350 O.3       1 FBN304      0.0000 
     18 C27        27.0400   -3.9790  -13.3560 C.3       1 FBN304      0.0000 
     19 N29        27.9150   -5.1090  -13.2140 N.pl3     1 FBN304      0.0000 
     20 C32        27.7430   -6.1720  -12.4570 C.2       1 FBN304      0.0000 
     21 C33        28.8480   -6.9510  -12.6590 C.2       1 FBN304      0.0000 
     22 N34        29.6930   -6.3830  -13.5700 N.2       1 FBN304      0.0000 
     23 N35        29.1100   -5.1550  -13.9530 N.2       1 FBN304      0.0000 
     24 C37        28.8970   -8.2450  -11.9300 C.3       1 FBN304      0.0000 
     25 N38        27.5060   -8.6090  -12.1120 N.am      1 FBN304      0.0000 
     26 C41        27.2470   -9.2110  -13.2560 C.2       1 FBN304      0.0000 
     27 C42        25.9050   -9.7720  -13.6080 C.ar      1 FBN304      0.0000 
     28 O43        28.1580   -9.3730  -14.0570 O.2       1 FBN304      0.0000 
     29 C45        24.6070   -9.4290  -12.9740 C.ar      1 FBN304      0.0000 
     30 C46        23.4000  -10.1190  -13.4780 C.ar      1 FBN304      0.0000 
     31 C47        23.5020  -11.0450  -14.5030 C.ar      1 FBN304      0.0000 
     32 C48        24.7500  -11.3180  -15.0640 C.ar      1 FBN304      0.0000 
     33 C49        25.9090  -10.7040  -14.6240 C.ar      1 FBN304      0.0000 
     34 O52        24.4730   -8.5210  -11.9790 O.co2     1 FBN304      0.0000 
     35 O53        22.2020   -9.8390  -12.9330 O.3       1 FBN304      0.0000 
     36 N54        24.8930  -12.2470  -16.0890 N.pl3     1 FBN304      0.0000 
     37 O55        26.0170  -12.4970  -16.4970 O.2       1 FBN304      0.0000 
     38 O56        23.9170  -12.8110  -16.5510 O.2       1 FBN304      0.0000 
     39 H          30.8028   -0.0740   -6.7417 H         1 FBN304      0.0000 
     40 H          30.8793   -4.8449  -11.0340 H         1 FBN304      0.0000 
     41 H          33.6173   -4.5421   -7.0243 H         1 FBN304      0.0000 
     42 H          33.7966   -3.2924   -5.7470 H         1 FBN304      0.0000 
     43 H          28.8495   -1.6236  -10.5921 H         1 FBN304      0.0000 
     44 H          26.7145   -2.3227  -12.0776 H         1 FBN304      0.0000 
     45 H          28.5842   -2.4200  -14.1322 H         1 FBN304      0.0000 
     46 H          30.3326   -2.9756  -12.7894 H         1 FBN304      0.0000 
     47 H          27.0723   -3.5745  -14.3619 H         1 FBN304      0.0000 
     48 H          26.0172   -4.2329  -13.0996 H         1 FBN304      0.0000 
     49 H          27.0156   -6.3828  -11.8807 H         1 FBN304      0.0000 
     50 H          29.1234   -8.0793  -10.9178 H         1 FBN304      0.0000 
     51 H          29.5388   -8.9128  -12.4253 H         1 FBN304      0.0000 
     52 H          26.8528   -8.3938  -11.3950 H         1 FBN304      0.0000 
     53 H          22.6676  -11.5297  -14.8509 H         1 FBN304      0.0000 
     54 H          26.8172  -10.9565  -15.0784 H         1 FBN304      0.0000 
     55 H          28.6367   -0.1672  -12.7415 H         1 FBN304      0.0000 
     56 H          30.9423   -0.8485  -11.5419 H         1 FBN304      0.0000 
     57 H          21.7475   -9.2462  -13.5979 H         1 FBN304      0.0000 
@<TRIPOS>BOND
     1    2    1 ar   
     2    6    1 ar   
     3    9    1 1    
     4    3    2 ar   
     5    4    3 ar   
     6   39    3 1    
     7    5    4 ar   
     8    6    5 ar   
     9   10    5 1    
    10    7    6 1    
    11    8    7 2    
    12    9    8 1    
    13   40    8 1    
    14   11    9 1    
    15   41   10 1    
    16   42   10 1    
    17   12   11 1    
    18   15   11 1    
    19   43   11 1    
    20   13   12 1    
    21   14   13 1    
    22   18   13 1    
    23   44   13 1    
    24   15   14 1    
    25   16   14 1    
    26   45   14 1    
    27   17   15 1    
    28   46   15 1    
    29   55   16 1    
    30   56   17 1    
    31   19   18 1    
    32   47   18 1    
    33   48   18 1    
    34   20   19 1    
    35   23   19 1    
    36   21   20 2    
    37   49   20 1    
    38   22   21 1    
    39   24   21 1    
    40   23   22 2    
    41   25   24 1    
    42   50   24 1    
    43   51   24 1    
    44   26   25 am   
    45   52   25 1    
    46   27   26 1    
    47   28   26 2    
    48   29   27 ar   
    49   33   27 ar   
    50   30   29 ar   
    51   34   29 ar   
    52   31   30 ar   
    53   35   30 1    
    54   32   31 ar   
    55   53   31 1    
    56   33   32 ar   
    57   36   32 1    
    58   54   33 1    
    59   57   35 1    
    60   37   36 2    
    61   38   36 2    
@<TRIPOS>SUBSTRUCTURE
     1 FBN304      1 GROUP   
@<TRIPOS>SET

