#    Name: 2rku_R78_1_INTS_M
#    Modification time : Tue Mar 25 00:03:09 2014

@<TRIPOS>MOLECULE
2rku_R78_1_INTS_M
   80     0     9     0     0
SMALL
NO_CHARGES


@<TRIPOS>ATOM
      1 N         -42.0025   11.4565   19.1905 N.am      2 SEC2        0.0000 
      2 N         -42.7990   11.9460   18.0890 N.am      8 SEL2        0.0000 
      3 N         -41.2060   10.9670   20.2920 N.am      5 SEP2        0.0000 
      4 CA        -41.0760   10.7340   18.1780 C.3       3 GLC5        0.0000 
      5 CA        -41.8640   12.4240   17.2470 C.3       9 GLL5        0.0000 
      6 CA        -40.2880    9.0440   19.1090 C.3       6 GLP5        0.0000 
      7 CA        -41.5125   12.8925   19.0475 C.3       3 GLC5        0.0000 
      8 CA        -41.1610   13.3610   20.8480 C.3       6 GLP5        0.0000 
      9 CA        -42.8660   15.7825   14.6860 C.3       3 GLC5        0.0000 
     10 CA        -43.0960   14.3700   13.7230 C.3       9 GLL5        0.0000 
     11 CA        -42.6360   17.1950   15.6490 C.3       6 GLP5        0.0000 
     12 CA        -46.0215   10.1780   17.2470 C.3       3 GLC5        0.0000 
     13 CA        -46.3230   11.5110   18.7200 C.3       9 GLL5        0.0000 
     14 CA        -45.7200    8.8450   15.7740 C.3       6 GLP5        0.0000 
     15 CA        -42.2880   10.4840   14.1115 C.3       3 GLC5        0.0000 
     16 CA        -42.8550   11.8550   12.8690 C.3       9 GLL5        0.0000 
     17 CA        -41.7210    9.1130   15.3540 C.3       6 GLP5        0.0000 
     18 CA        -42.2660   11.2835   10.8240 C.3       3 GLC5        0.0000 
     19 CA        -41.6770   10.7120    8.7790 C.3       6 GLP5        0.0000 
     20 CA        -40.8195   12.1130   12.3825 C.3       3 GLC5        0.0000 
     21 CA        -38.7840   12.3710   11.8960 C.3       6 GLP5        0.0000 
     22 CA        -47.2800   15.3450   11.0945 C.3       3 GLC5        0.0000 
     23 CA        -47.3450   14.9390   13.3030 C.3       9 GLL5        0.0000 
     24 CA        -47.2150   15.7510    8.8860 C.3       6 GLP5        0.0000 
     25 O         -50.9255   11.3425   16.5100 O.2       1 ALC1        0.0000 
     26 O         -51.3460   11.2340   17.9720 O.2       7 ALL1        0.0000 
     27 O         -50.5050   11.4510   15.0480 O.2       4 ALP1        0.0000 
     28 CA        -51.3510    9.5445   16.0135 C.3       3 GLC5        0.0000 
     29 CA        -53.0940    9.8630   17.1200 C.3       9 GLL5        0.0000 
     30 CA        -49.6080    9.2260   14.9070 C.3       6 GLP5        0.0000 
     31 CA        -49.4605   12.6660   20.0470 C.3       3 GLC5        0.0000 
     32 CA        -49.0750   11.2810   18.8710 C.3       9 GLL5        0.0000 
     33 CA        -49.8460   14.0510   21.2230 C.3       6 GLP5        0.0000 
     34 CA        -45.1410    9.3380   19.1820 C.3       3 GLC5        0.0000 
     35 CA        -46.8900   10.6250   19.6330 C.3       9 GLL5        0.0000 
     36 CA        -43.3920    8.0510   18.7310 C.3       6 GLP5        0.0000 
     37 CA        -47.0740    8.3850   19.1805 C.3       3 GLC5        0.0000 
     38 CA        -46.4850    8.7790   21.2670 C.3       9 GLL5        0.0000 
     39 CA        -47.6630    7.9910   17.0940 C.3       6 GLP5        0.0000 
     40 CA        -44.9385    8.4150   19.9990 C.3       3 GLC5        0.0000 
     41 CA        -45.2600    9.6295   22.4110 C.3       3 GLC5        0.0000 
     42 CA        -44.0350   10.4800   23.5550 C.3       6 GLP5        0.0000 
     43 O         -44.3245   11.8790   20.0895 O.2       1 ALC1        0.0000 
     44 O         -44.9550   11.5360   18.7390 O.2       7 ALL1        0.0000 
     45 O         -43.6940   12.2220   21.4400 O.2       4 ALP1        0.0000 
     46 CA        -44.9175   10.4460   16.7990 C.3       3 GLC5        0.0000 
     47 CA        -44.1150   12.0470   17.8240 C.3       9 GLL5        0.0000 
     48 CA        -43.7535   10.0490   18.2775 C.3       3 GLC5        0.0000 
     49 CA        -42.6380   12.7040   19.3360 C.3       3 GLC5        0.0000 
     50 CA        -49.3355   12.5395   12.8885 C.3       3 GLC5        0.0000 
     51 CA        -47.5600   13.4390   13.4150 C.3       9 GLL5        0.0000 
     52 CA        -51.1110   11.6400   12.3620 C.3       6 GLP5        0.0000 
     53 CA        -42.3660   13.2335   10.5525 C.3       3 GLC5        0.0000 
     54 CA        -43.1500   13.3440   12.5470 C.3       9 GLL5        0.0000 
     55 CA        -41.5820   13.1230    8.5580 C.3       6 GLP5        0.0000 
     56 CA        -38.2255   13.7645   15.7290 C.3       3 GLC5        0.0000 
     57 CA        -39.8810   13.5230   15.6240 C.3       9 GLL5        0.0000 
     58 CA        -36.5700   14.0060   15.8340 C.3       6 GLP5        0.0000 
     59 CA        -38.8330   12.1475   14.5965 C.3       3 GLC5        0.0000 
     60 CA        -37.7850   10.7720   13.5690 C.3       6 GLP5        0.0000 
     61 CA        -40.3800   15.5375   16.4130 C.3       3 GLC5        0.0000 
     62 CA        -40.8790   17.5520   17.2020 C.3       6 GLP5        0.0000 
     63 CA        -41.8932   10.9345   16.0170 C.3       3 GLC5        0.0000 
     64 CA        -44.5547   15.5695   15.4020 C.3       3 GLC5        0.0000 
     65 CA        -45.5350   13.9590   14.5600 C.3       9 GLL5        0.0000 
     66 CA        -43.3830   16.5620   16.6410 C.3       6 GLP5        0.0000 
     67 CA        -44.3257   12.1143   11.4875 C.3       3 GLC5        0.0000 
     68 CA        -45.6490   11.6290   10.2670 C.3       6 GLP5        0.0000 
     69 CA        -47.5173   11.2850   14.4002 C.3       3 GLC5        0.0000 
     70 CA        -46.3390   12.7770   14.0340 C.3       9 GLL5        0.0000 
     71 CA        -48.0850    9.4620   15.0760 C.3       6 GLP5        0.0000 
     72 CA        -46.5842   11.6860   12.5203 C.3       3 GLC5        0.0000 
     73 CA        -46.2190   10.2640   11.3160 C.3       6 GLP5        0.0000 
     74 CA        -47.9442   12.2787   20.5200 C.3       3 GLC5        0.0000 
     75 CA        -48.2690   10.5240   19.7090 C.3       9 GLL5        0.0000 
     76 CA        -48.3090   13.9830   21.3690 C.3       6 GLP5        0.0000 
     77 CA        -47.9528   10.8480   16.4950 C.3       3 GLC5        0.0000 
     78 CA        -48.5230   12.1720   17.9390 C.3       9 GLL5        0.0000 
     79 CA        -47.7220    9.3774   18.2778 C.3       3 GLC5        0.0000 
     80 CA        -47.9654   13.0104   19.7454 C.3       3 GLC5        0.0000 
@<TRIPOS>BOND
@<TRIPOS>SUBSTRUCTURE
     1 ALC1       25 GROUP        1 X    ALC  0     ROOT ALC X 1
     2 SEC2        1 GROUP        1 X    SEC  0     **** SEC X 2
     3 GLC5        4 GROUP        1 X    GLC  0     **** GLC X 6
     4 ALP1       27 GROUP        1 Y    ALP  0     ROOT ALP Y 8
     5 SEP2        3 GROUP        1 Y    SEP  0     **** SEP Y 9
     6 GLP5        6 GROUP        1 Y    GLP  0     **** GLP Y 13
     7 ALL1       26 GROUP        1 Z    ALL  0     ROOT ALL Z 15
     8 SEL2        2 GROUP        1 Z    SEL  0     **** SEL Z 16
     9 GLL5        5 GROUP        1 Z    GLL  0     **** GLL Z 20
@<TRIPOS>SET

