#    Name: 2rku_R78_1_ligand
#    Modification time : Tue Mar 25 00:03:09 2014

@<TRIPOS>MOLECULE
2rku_R78_1_ligand
   78    82     1     0     0
SMALL
NO_CHARGES


@<TRIPOS>ATOM
      1 N1        -42.7990   11.9460   18.0890 N.ar      1 R78500      0.0000 
      2 N3        -44.0660   13.8570   14.7150 N.3       1 R78500      0.0000 
      3 C4        -41.8640   12.4240   17.2470 C.ar      1 R78500      0.0000 
      4 C5        -43.0960   14.3700   13.7230 C.3       1 R78500      0.0000 
      5 C6        -41.6760   14.2910   14.1160 C.2       1 R78500      0.0000 
      6 C7        -46.3230   11.5110   18.7200 C.ar      1 R78500      0.0000 
      7 C8        -45.5350   13.9590   14.5600 C.3       1 R78500      0.0000 
      8 C10       -42.8550   11.8550   12.8690 C.3       1 R78500      0.0000 
      9 C13       -47.3450   14.9390   13.3030 C.3       1 R78500      0.0000 
     10 C15       -46.3390   12.7770   14.0340 C.3       1 R78500      0.0000 
     11 C17       -48.2690   10.5240   19.7090 C.ar      1 R78500      0.0000 
     12 C20       -47.1180   12.2960   17.8890 C.ar      1 R78500      0.0000 
     13 C21       -50.5580   11.0550   19.0150 C.2       1 R78500      0.0000 
     14 C22       -52.7790   10.9790   18.1120 C.3       1 R78500      0.0000 
     15 C24       -54.9580   12.0160   17.5680 C.3       1 R78500      0.0000 
     16 C28       -54.5930    9.7410   16.8070 C.3       1 R78500      0.0000 
     17 O2        -50.9800   10.6510   20.0970 O.2       1 R78500      0.0000 
     18 N6        -51.3460   11.2340   17.9720 N.am      1 R78500      0.0000 
     19 C29       -53.0940    9.8630   17.1200 C.3       1 R78500      0.0000 
     20 N7        -55.2150   11.0440   16.4880 N.4       1 R78500      0.0000 
     21 C30       -56.6790   10.8900   16.4050 C.3       1 R78500      0.0000 
     22 C23       -53.4540   12.2600   17.6620 C.3       1 R78500      0.0000 
     23 C18       -49.0750   11.2810   18.8710 C.ar      1 R78500      0.0000 
     24 C16       -46.8900   10.6250   19.6330 C.ar      1 R78500      0.0000 
     25 O3        -46.0520    9.8690   20.4330 O.3       1 R78500      0.0000 
     26 C31       -46.4850    8.7790   21.2670 C.3       1 R78500      0.0000 
     27 C19       -48.5230   12.1720   17.9390 C.ar      1 R78500      0.0000 
     28 N5        -44.9550   11.5360   18.7390 N.pl3     1 R78500      0.0000 
     29 C1        -44.1150   12.0470   17.8240 C.ar      1 R78500      0.0000 
     30 N2        -44.5370   12.6780   16.7250 N.ar      1 R78500      0.0000 
     31 C2        -43.6260   13.2120   15.8720 C.ar      1 R78500      0.0000 
     32 C14       -47.5600   13.4390   13.4150 C.3       1 R78500      0.0000 
     33 C12       -45.9180   15.1950   13.7660 C.3       1 R78500      0.0000 
     34 C9        -43.1500   13.3440   12.5470 C.3       1 R78500      0.0000 
     35 O1        -40.8350   14.8060   13.3360 O.2       1 R78500      0.0000 
     36 N4        -41.2990   13.6610   15.2350 N.am      1 R78500      0.0000 
     37 C11       -39.8810   13.5230   15.6240 C.3       1 R78500      0.0000 
     38 C3        -42.2670   13.0880   16.1130 C.ar      1 R78500      0.0000 
     39 H         -40.8581   12.3008   17.4379 H         1 R78500      0.0000 
     40 H         -43.3526   15.2944   13.3285 H         1 R78500      0.0000 
     41 H         -45.9692   14.1760   15.6047 H         1 R78500      0.0000 
     42 H         -48.0303   15.4524   13.9457 H         1 R78500      0.0000 
     43 H         -47.4537   15.2456   12.2830 H         1 R78500      0.0000 
     44 H         -46.6338   12.1556   14.8392 H         1 R78500      0.0000 
     45 H         -45.7856   12.2692   13.2875 H         1 R78500      0.0000 
     46 H         -48.7008    9.8822   20.3926 H         1 R78500      0.0000 
     47 H         -46.6926   12.9638   17.2405 H         1 R78500      0.0000 
     48 H         -53.0428   10.7228   19.0661 H         1 R78500      0.0000 
     49 H         -55.3079   11.6317   18.5220 H         1 R78500      0.0000 
     50 H         -55.4509   12.9613   17.3594 H         1 R78500      0.0000 
     51 H         -55.0878    9.2831   17.6777 H         1 R78500      0.0000 
     52 H         -54.7102    9.0436   15.9630 H         1 R78500      0.0000 
     53 H         -51.0229   11.5448   17.0516 H         1 R78500      0.0000 
     54 H         -52.7387    8.9074   17.5269 H         1 R78500      0.0000 
     55 H         -52.5512   10.0481   16.1840 H         1 R78500      0.0000 
     56 H         -54.8408   11.4230   15.5636 H         1 R78500      0.0000 
     57 H         -53.0773   12.5491   16.6902 H         1 R78500      0.0000 
     58 H         -53.2634   13.0450   18.3812 H         1 R78500      0.0000 
     59 H         -49.1104   12.7111   17.3198 H         1 R78500      0.0000 
     60 H         -44.4914   11.0752   19.6229 H         1 R78500      0.0000 
     61 H         -47.7322   13.0235   12.4243 H         1 R78500      0.0000 
     62 H         -48.4306   13.2441   14.0378 H         1 R78500      0.0000 
     63 H         -45.2771   15.2955   12.9193 H         1 R78500      0.0000 
     64 H         -45.8928   16.0543   14.3975 H         1 R78500      0.0000 
     65 H         -42.4365   13.6822   11.7610 H         1 R78500      0.0000 
     66 H         -44.1585   13.4096   12.0779 H         1 R78500      0.0000 
     67 H         -41.9376   11.7315   13.2473 H         1 R78500      0.0000 
     68 H         -43.5000   11.4847   13.5375 H         1 R78500      0.0000 
     69 H         -42.9156   11.2796   12.0534 H         1 R78500      0.0000 
     70 H         -56.9443   10.2405   15.6925 H         1 R78500      0.0000 
     71 H         -57.0667   10.5568   17.2645 H         1 R78500      0.0000 
     72 H         -57.1323   11.7564   16.1954 H         1 R78500      0.0000 
     73 H         -45.7225    8.3681   21.7667 H         1 R78500      0.0000 
     74 H         -47.1554    9.0754   21.9472 H         1 R78500      0.0000 
     75 H         -46.9123    8.0496   20.7328 H         1 R78500      0.0000 
     76 H         -39.3533   13.0270   14.9344 H         1 R78500      0.0000 
     77 H         -39.4410   14.4127   15.7458 H         1 R78500      0.0000 
     78 H         -39.7789   13.0252   16.4853 H         1 R78500      0.0000 
@<TRIPOS>BOND
     1    3    1 ar   
     2   29    1 ar   
     3    4    2 1    
     4    7    2 1    
     5   31    2 1    
     6   38    3 ar   
     7   39    3 1    
     8    5    4 1    
     9   34    4 1    
    10   40    4 1    
    11   35    5 2    
    12   36    5 am   
    13   12    6 ar   
    14   24    6 ar   
    15   28    6 1    
    16   10    7 1    
    17   33    7 1    
    18   41    7 1    
    19   34    8 1    
    20   67    8 1    
    21   68    8 1    
    22   69    8 1    
    23   32    9 1    
    24   33    9 1    
    25   42    9 1    
    26   43    9 1    
    27   32   10 1    
    28   44   10 1    
    29   45   10 1    
    30   23   11 ar   
    31   24   11 ar   
    32   46   11 1    
    33   27   12 ar   
    34   47   12 1    
    35   17   13 2    
    36   18   13 am   
    37   23   13 1    
    38   18   14 1    
    39   19   14 1    
    40   22   14 1    
    41   48   14 1    
    42   20   15 1    
    43   22   15 1    
    44   49   15 1    
    45   50   15 1    
    46   19   16 1    
    47   20   16 1    
    48   51   16 1    
    49   52   16 1    
    50   53   18 1    
    51   54   19 1    
    52   55   19 1    
    53   21   20 1    
    54   56   20 1    
    55   70   21 1    
    56   71   21 1    
    57   72   21 1    
    58   57   22 1    
    59   58   22 1    
    60   27   23 ar   
    61   25   24 1    
    62   26   25 1    
    63   73   26 1    
    64   74   26 1    
    65   75   26 1    
    66   59   27 1    
    67   29   28 1    
    68   60   28 1    
    69   30   29 ar   
    70   31   30 ar   
    71   38   31 ar   
    72   61   32 1    
    73   62   32 1    
    74   63   33 1    
    75   64   33 1    
    76   65   34 1    
    77   66   34 1    
    78   37   36 1    
    79   38   36 1    
    80   76   37 1    
    81   77   37 1    
    82   78   37 1    
@<TRIPOS>SUBSTRUCTURE
     1 R78500      1 GROUP   
@<TRIPOS>SET

