#    Name: 2y3s_TIR_2_INTS_M
#    Modification time : Tue Mar 25 07:29:35 2014

@<TRIPOS>MOLECULE
2y3s_TIR_2_INTS_M
   63     0    12     0     0
SMALL
NO_CHARGES


@<TRIPOS>ATOM
      1 O          33.5730  -25.0465   13.1480 O.2       1 ALC1        0.0000 
      2 O          33.0220  -25.2390   14.4220 O.2       9 ALL1        0.0000 
      3 O          34.1240  -24.8540   11.8740 O.2       5 ALP1        0.0000 
      4 CA         29.8885  -25.7090   14.3565 C.3       4 GLC5        0.0000 
      5 CA         31.7880  -25.9460   14.6500 C.3      12 GLL5        0.0000 
      6 CA         27.9890  -25.4720   14.0630 C.3       8 GLP5        0.0000 
      7 CA         32.3755  -27.4430   15.6835 C.3       4 GLC5        0.0000 
      8 CA         32.9630  -28.9400   16.7170 C.3       8 GLP5        0.0000 
      9 N          24.4190  -25.5905   24.6895 N.am      2 SEC2        0.0000 
     10 N          24.7130  -24.9640   23.6800 N.am     10 SEL2        0.0000 
     11 N          24.1250  -26.2170   25.6990 N.am      6 SEP2        0.0000 
     12 Zn         34.2380  -23.0890   17.8030 Zn        3 ZIC7        0.0000 
     13 Zn         33.6540  -23.7190   18.4810 Zn       11 ZIL7        0.0000 
     14 Zn         34.8220  -22.4590   17.1250 Zn        7 ZIP7        0.0000 
     15 Zn         34.6590  -23.2030   16.4125 Zn        3 ZIC7        0.0000 
     16 Zn         34.4960  -23.9470   15.7000 Zn       11 ZIL7        0.0000 
     17 CA         28.4405  -18.9330   21.6540 C.3       4 GLC5        0.0000 
     18 CA         27.7030  -20.4470   22.7170 C.3      12 GLL5        0.0000 
     19 CA         29.1780  -17.4190   20.5910 C.3       8 GLP5        0.0000 
     20 CA         26.9045  -26.9315   21.1905 C.3       4 GLC5        0.0000 
     21 CA         27.2180  -26.1870   23.0550 C.3      12 GLL5        0.0000 
     22 CA         26.5910  -27.6760   19.3260 C.3       8 GLP5        0.0000 
     23 CA         28.3770  -27.2975   24.1960 C.3       4 GLC5        0.0000 
     24 CA         29.5360  -28.4080   25.3370 C.3       8 GLP5        0.0000 
     25 CA         25.5695  -27.0450   23.4850 C.3       4 GLC5        0.0000 
     26 CA         23.9210  -27.9030   23.9150 C.3       8 GLP5        0.0000 
     27 CA         24.7430  -25.6310   24.2660 C.3       4 GLC5        0.0000 
     28 CA         25.2570  -23.7540   23.2930 C.3      12 GLL5        0.0000 
     29 CA         24.2290  -27.5080   25.2390 C.3       8 GLP5        0.0000 
     30 CA         27.4985  -20.4230   27.5065 C.3       4 GLC5        0.0000 
     31 CA         26.8900  -21.0890   25.5370 C.3      12 GLL5        0.0000 
     32 CA         28.1070  -19.7570   29.4760 C.3       8 GLP5        0.0000 
     33 CA         31.2420  -24.3360   26.7300 C.3       4 GLC5        0.0000 
     34 CA         30.7380  -24.0890   25.0840 C.3      12 GLL5        0.0000 
     35 CA         31.7460  -24.5830   28.3760 C.3       8 GLP5        0.0000 
     36 CA         28.3845  -27.0260   20.3480 C.3       4 GLC5        0.0000 
     37 CA         30.1780  -26.3760   21.3700 C.3      12 GLL5        0.0000 
     38 CA         29.9830  -28.1005   21.0835 C.3       4 GLC5        0.0000 
     39 CA         29.7880  -29.8250   20.7970 C.3       8 GLP5        0.0000 
     40 CA         31.6000  -26.9555   22.5440 C.3       4 GLC5        0.0000 
     41 CA         33.0220  -27.5350   23.7180 C.3       8 GLP5        0.0000 
     42 CA         32.7510  -26.9190   16.7415 C.3       4 GLC5        0.0000 
     43 CA         32.5390  -24.8980   16.7660 C.3      12 GLL5        0.0000 
     44 CA         34.0835  -25.8505   17.4485 C.3       4 GLC5        0.0000 
     45 CA         35.6280  -26.8030   18.1310 C.3       8 GLP5        0.0000 
     46 CA         32.8888  -26.2430   20.6168 C.3       4 GLC5        0.0000 
     47 CA         31.6580  -24.9380   19.1810 C.3      12 GLL5        0.0000 
     48 CA         34.0460  -27.7360   21.4160 C.3       8 GLP5        0.0000 
     49 CA         31.9348  -26.0802   22.8940 C.3       4 GLC5        0.0000 
     50 CA         30.9110  -25.0380   21.5210 C.3      12 GLL5        0.0000 
     51 CA         29.9360  -26.3595   24.9032 C.3       4 GLC5        0.0000 
     52 CA         29.9340  -24.5330   23.8550 C.3      12 GLL5        0.0000 
     53 CA         31.6790  -25.9230   24.0938 C.3       4 GLC5        0.0000 
     54 CA         26.2167  -21.0970   21.4892 C.3       4 GLC5        0.0000 
     55 CA         27.4100  -21.9290   23.1100 C.3      12 GLL5        0.0000 
     56 CA         24.8770  -21.0060   20.0650 C.3       8 GLP5        0.0000 
     57 CA         25.3555  -22.4200   21.4273 C.3       4 GLC5        0.0000 
     58 CA         26.4110  -23.9140   22.2860 C.3      12 GLL5        0.0000 
     59 CA         24.7082  -23.4458   22.0419 C.3       4 GLC5        0.0000 
     60 CA         25.5130  -22.9010   24.5000 C.3      12 GLL5        0.0000 
     61 CA         23.7430  -23.5240   20.4390 C.3       8 GLP5        0.0000 
     62 CA         26.6783  -23.0261   26.5634 C.3       4 GLC5        0.0000 
     63 CA         26.8990  -24.2850   28.1380 C.3       8 GLP5        0.0000 
@<TRIPOS>BOND
@<TRIPOS>SUBSTRUCTURE
     1 ALC1        1 GROUP        1 X    ALC  0     ROOT ALC X 1
     2 SEC2        9 GROUP        1 X    SEC  0     **** SEC X 2
     3 ZIC7       12 GROUP        1 X    ZIC  0     **** ZIC X 5
     4 GLC5        4 GROUP        1 X    GLC  0     **** GLC X 6
     5 ALP1        3 GROUP        1 Y    ALP  0     ROOT ALP Y 8
     6 SEP2       11 GROUP        1 Y    SEP  0     **** SEP Y 9
     7 ZIP7       14 GROUP        1 Y    ZIP  0     **** ZIP Y 12
     8 GLP5        6 GROUP        1 Y    GLP  0     **** GLP Y 13
     9 ALL1        2 GROUP        1 Z    ALL  0     ROOT ALL Z 15
    10 SEL2       10 GROUP        1 Z    SEL  0     **** SEL Z 16
    11 ZIL7       13 GROUP        1 Z    ZIL  0     **** ZIL Z 19
    12 GLL5        5 GROUP        1 Z    GLL  0     **** GLL Z 20
@<TRIPOS>SET

