#    Name: 2y3s_TIR_2_ligand
#    Modification time : Tue Mar 25 07:29:35 2014

@<TRIPOS>MOLECULE
2y3s_TIR_2_ligand
   57    59     1     0     0
SMALL
NO_CHARGES


@<TRIPOS>ATOM
      1 N          33.0220  -25.2390   14.4220 N.am      1 TIR700      0.0000 
      2 C1         31.7880  -25.9460   14.6500 C.3       1 TIR700      0.0000 
      3 O1         30.4870  -26.1910   16.7030 O.2       1 TIR700      0.0000 
      4 O2         28.6330  -22.6310   23.3690 O.3       1 TIR700      0.0000 
      5 O3         26.8140  -22.5650   21.9750 O.3       1 TIR700      0.0000 
      6 C4         32.6330  -24.4800   18.1660 C.2       1 TIR700      0.0000 
      7 O4         24.7130  -24.9640   23.6800 O.3       1 TIR700      0.0000 
      8 C5         31.6580  -24.9380   19.1810 C.2       1 TIR700      0.0000 
      9 O5         33.6540  -23.7190   18.4810 O.co2     1 TIR700      0.0000 
     10 C6         31.8050  -24.5620   20.4540 C.2       1 TIR700      0.0000 
     11 O6         34.4960  -23.9470   15.7000 O.2       1 TIR700      0.0000 
     12 C7         30.9110  -25.0380   21.5210 C.2       1 TIR700      0.0000 
     13 C8         30.7840  -24.2130   22.6190 C.2       1 TIR700      0.0000 
     14 C9         29.9340  -24.5330   23.8550 C.3       1 TIR700      0.0000 
     15 C10        28.5030  -23.9950   23.7430 C.3       1 TIR700      0.0000 
     16 C11        27.4100  -21.9290   23.1100 C.3       1 TIR700      0.0000 
     17 C12        27.7030  -20.4470   22.7170 C.3       1 TIR700      0.0000 
     18 C13        26.4110  -23.9140   22.2860 C.3       1 TIR700      0.0000 
     19 C14        27.6370  -24.7390   22.6710 C.3       1 TIR700      0.0000 
     20 C15        27.2180  -26.1870   23.0550 C.3       1 TIR700      0.0000 
     21 C16        25.2570  -23.7540   23.2930 C.3       1 TIR700      0.0000 
     22 C17        25.5130  -22.9010   24.5000 C.2       1 TIR700      0.0000 
     23 C18        26.5370  -21.9900   24.3810 C.2       1 TIR700      0.0000 
     24 C19        26.8900  -21.0890   25.5370 C.3       1 TIR700      0.0000 
     25 C20        30.7380  -24.0890   25.0840 C.3       1 TIR700      0.0000 
     26 C21        30.1780  -26.3760   21.3700 C.3       1 TIR700      0.0000 
     27 C22        33.4250  -24.6550   15.6070 C.2       1 TIR700      0.0000 
     28 C3         32.5390  -24.8980   16.7660 C.2       1 TIR700      0.0000 
     29 C2         31.5400  -25.7270   16.0970 C.2       1 TIR700      0.0000 
     30 H          33.4584  -25.2009   13.5852 H         1 TIR700      0.0000 
     31 H          31.8964  -26.9956   14.4581 H         1 TIR700      0.0000 
     32 H          30.9837  -25.5248   14.0791 H         1 TIR700      0.0000 
     33 H          30.9005  -25.5359   18.8450 H         1 TIR700      0.0000 
     34 H          32.5596  -23.9123   20.7597 H         1 TIR700      0.0000 
     35 H          31.2756  -23.2951   22.6710 H         1 TIR700      0.0000 
     36 H          29.8805  -25.6479   23.8987 H         1 TIR700      0.0000 
     37 H          28.0238  -24.0899   24.6949 H         1 TIR700      0.0000 
     38 H          25.9738  -24.3434   21.3636 H         1 TIR700      0.0000 
     39 H          28.2649  -24.8192   21.7542 H         1 TIR700      0.0000 
     40 H          24.4381  -23.1920   22.7035 H         1 TIR700      0.0000 
     41 H          24.9512  -23.0310   25.2967 H         1 TIR700      0.0000 
     42 H          28.1857  -19.9585   23.4439 H         1 TIR700      0.0000 
     43 H          28.2704  -20.3858   21.8958 H         1 TIR700      0.0000 
     44 H          26.8620  -19.9389   22.5308 H         1 TIR700      0.0000 
     45 H          28.0121  -26.7746   23.2101 H         1 TIR700      0.0000 
     46 H          26.6715  -26.2058   23.8922 H         1 TIR700      0.0000 
     47 H          26.6703  -26.6177   22.3377 H         1 TIR700      0.0000 
     48 H          27.8116  -21.2696   25.8807 H         1 TIR700      0.0000 
     49 H          26.8574  -20.1235   25.2787 H         1 TIR700      0.0000 
     50 H          26.2619  -21.2081   26.3059 H         1 TIR700      0.0000 
     51 H          31.6146  -24.5661   25.1466 H         1 TIR700      0.0000 
     52 H          30.9383  -23.1095   25.0627 H         1 TIR700      0.0000 
     53 H          30.2450  -24.2689   25.9352 H         1 TIR700      0.0000 
     54 H          30.8157  -27.1390   21.2645 H         1 TIR700      0.0000 
     55 H          29.6075  -26.5788   22.1658 H         1 TIR700      0.0000 
     56 H          29.5781  -26.3826   20.5700 H         1 TIR700      0.0000 
     57 H          25.4710  -25.4676   24.0947 H         1 TIR700      0.0000 
@<TRIPOS>BOND
     1    2    1 1    
     2   27    1 am   
     3   30    1 1    
     4   29    2 1    
     5   31    2 1    
     6   32    2 1    
     7   29    3 2    
     8   15    4 1    
     9   16    4 1    
    10   16    5 1    
    11   18    5 1    
    12    8    6 1    
    13    9    6 ar   
    14   28    6 2    
    15   21    7 1    
    16   57    7 1    
    17   10    8 2    
    18   33    8 1    
    19   12   10 1    
    20   34   10 1    
    21   27   11 2    
    22   13   12 2    
    23   26   12 1    
    24   14   13 1    
    25   35   13 1    
    26   15   14 1    
    27   25   14 1    
    28   36   14 1    
    29   19   15 1    
    30   37   15 1    
    31   17   16 1    
    32   23   16 1    
    33   42   17 1    
    34   43   17 1    
    35   44   17 1    
    36   19   18 1    
    37   21   18 1    
    38   38   18 1    
    39   20   19 1    
    40   39   19 1    
    41   45   20 1    
    42   46   20 1    
    43   47   20 1    
    44   22   21 1    
    45   40   21 1    
    46   23   22 2    
    47   41   22 1    
    48   24   23 1    
    49   48   24 1    
    50   49   24 1    
    51   50   24 1    
    52   51   25 1    
    53   52   25 1    
    54   53   25 1    
    55   54   26 1    
    56   55   26 1    
    57   56   26 1    
    58   28   27 1    
    59   29   28 1    
@<TRIPOS>SUBSTRUCTURE
     1 TIR700      1 GROUP   
@<TRIPOS>SET

