#    Name: 2q4b_NAP_2_INTS_M
#    Modification time : Mon Mar 24 20:43:48 2014

@<TRIPOS>MOLECULE
2q4b_NAP_2_INTS_M
  104     0    12     0     0
SMALL
NO_CHARGES


@<TRIPOS>ATOM
      1 NZ         59.9785   17.0060   67.0680 N.4       3 LYC4        0.0000 
      2 NZ         60.5310   18.0350   66.4520 N.4      11 LYL4        0.0000 
      3 NZ         59.8330   14.6900   67.7340 N.4       7 LYP4        0.0000 
      4 N          59.9785   17.0060   67.0680 N.am      2 SEC2        0.0000 
      5 N          60.5310   18.0350   66.4520 N.am     10 SEL2        0.0000 
      6 N          59.4260   15.9770   67.6840 N.am      6 SEP2        0.0000 
      7 CA         62.5805   21.2660   62.1095 C.3       4 GLC5        0.0000 
      8 CA         62.6390   19.8690   63.5880 C.3      12 GLL5        0.0000 
      9 CA         62.5220   22.6630   60.6310 C.3       8 GLP5        0.0000 
     10 CA         61.0650   21.0630   63.7875 C.3       4 GLC5        0.0000 
     11 CA         59.4910   22.2570   63.9870 C.3       8 GLP5        0.0000 
     12 N          62.7225   22.2515   63.0930 N.am      2 SEC2        0.0000 
     13 N          64.0150   21.3890   63.4100 N.am     10 SEL2        0.0000 
     14 N          61.4300   23.1140   62.7760 N.am      6 SEP2        0.0000 
     15 CA         65.7165   21.0090   61.7790 C.3       4 GLC5        0.0000 
     16 CA         65.4490   21.9320   63.6110 C.3      12 GLL5        0.0000 
     17 CA         65.9840   20.0860   59.9470 C.3       8 GLP5        0.0000 
     18 CA         63.9855   22.2975   62.1210 C.3       4 GLC5        0.0000 
     19 CA         69.2095   27.4060   62.7040 C.3       4 GLC5        0.0000 
     20 CA         67.5450   26.3970   63.2780 C.3      12 GLL5        0.0000 
     21 CA         70.8740   28.4150   62.1300 C.3       8 GLP5        0.0000 
     22 O          68.3860   28.6760   64.0120 O.2       1 ALC1        0.0000 
     23 O          67.5450   27.6940   63.7700 O.2       9 ALL1        0.0000 
     24 O          69.2270   29.6580   64.2540 O.2       5 ALP1        0.0000 
     25 O          66.8795   27.7855   65.1545 O.2       1 ALC1        0.0000 
     26 O          66.2140   27.8770   66.5390 O.2       5 ALP1        0.0000 
     27 N          68.5355   27.3570   61.7160 N.am      2 SEC2        0.0000 
     28 N          68.4410   26.0180   62.2770 N.am     10 SEL2        0.0000 
     29 N          68.6300   28.6960   61.1550 N.am      6 SEP2        0.0000 
     30 CA         68.9170   24.8520   59.7075 C.3       4 GLC5        0.0000 
     31 CA         68.4530   24.7240   61.8070 C.3      12 GLL5        0.0000 
     32 CA         69.3810   24.9800   57.6080 C.3       8 GLP5        0.0000 
     33 CA         69.4705   24.7995   63.3500 C.3       4 GLC5        0.0000 
     34 CA         70.4880   24.8750   64.8930 C.3       8 GLP5        0.0000 
     35 CA         69.6635   26.5695   61.9685 C.3       4 GLC5        0.0000 
     36 CA         67.6570   25.9535   60.5465 C.3       4 GLC5        0.0000 
     37 CA         66.8610   27.1830   59.2860 C.3       8 GLP5        0.0000 
     38 CA         66.5710   24.1755   60.7990 C.3       4 GLC5        0.0000 
     39 CA         64.6890   23.6270   59.7910 C.3       8 GLP5        0.0000 
     40 CA         68.5975   23.7070   63.9860 C.3       4 GLC5        0.0000 
     41 CA         66.6860   24.1160   63.2450 C.3      12 GLL5        0.0000 
     42 CA         70.5090   23.2980   64.7270 C.3       8 GLP5        0.0000 
     43 CA         65.6875   23.8715   61.5180 C.3       4 GLC5        0.0000 
     44 NZ         59.0910   15.4870   66.2020 N.4       3 LYC4        0.0000 
     45 NZ         58.3490   16.2840   64.6700 N.4      11 LYL4        0.0000 
     46 NZ         58.4410   14.4530   64.4820 N.4       3 LYC4        0.0000 
     47 NZ         58.5330   12.6220   64.2940 N.4       7 LYP4        0.0000 
     48 NZ         59.3590   14.6925   63.7900 N.4       3 LYC4        0.0000 
     49 NZ         59.9300   15.5950   62.7270 N.4      11 LYL4        0.0000 
     50 N          60.7290   14.5585   61.9795 N.am      2 SEC2        0.0000 
     51 N          59.9300   15.5950   62.7270 N.am     10 SEL2        0.0000 
     52 N          61.5280   13.5220   61.2320 N.am      6 SEP2        0.0000 
     53 N          59.4230   14.7940   61.7055 N.am      2 SEC2        0.0000 
     54 N          58.9160   13.9930   60.6840 N.am      6 SEP2        0.0000 
     55 N          59.5805   13.9310   62.9750 N.am      2 SEC2        0.0000 
     56 N          59.2310   12.2670   63.2230 N.am      6 SEP2        0.0000 
     57 N          59.3590   14.6925   63.7900 N.am      2 SEC2        0.0000 
     58 N          58.7880   13.7900   64.8530 N.am      6 SEP2        0.0000 
     59 N          61.1500   16.2965   61.8235 N.am      2 SEC2        0.0000 
     60 N          62.3700   16.9980   60.9200 N.am      6 SEP2        0.0000 
     61 CA         57.2045   16.4640   62.0520 C.3       4 GLC5        0.0000 
     62 CA         58.3910   18.0410   61.2960 C.3      12 GLL5        0.0000 
     63 CA         56.0180   14.8870   62.8080 C.3       8 GLP5        0.0000 
     64 CA         56.5835   18.8175   59.4190 C.3       4 GLC5        0.0000 
     65 CA         57.4270   19.1730   61.2360 C.3      12 GLL5        0.0000 
     66 CA         55.7400   18.4620   57.6020 C.3       8 GLP5        0.0000 
     67 N          57.0455   22.7620   61.9090 N.am      2 SEC2        0.0000 
     68 N          57.4340   21.6270   61.6080 N.am     10 SEL2        0.0000 
     69 N          56.6570   23.8970   62.2100 N.am      6 SEP2        0.0000 
     70 N          56.3535   22.5175   63.1735 N.am      2 SEC2        0.0000 
     71 N          56.0500   21.1380   64.1370 N.am     10 SEL2        0.0000 
     72 O          57.1565   21.8075   64.3850 O.2       1 ALC1        0.0000 
     73 O          56.0500   21.1380   64.1370 O.2       9 ALL1        0.0000 
     74 O          58.2630   22.4770   64.6330 O.2       5 ALP1        0.0000 
     75 CA         55.2725   16.3095   63.4140 C.3       4 GLC5        0.0000 
     76 CA         54.5270   17.7320   64.0200 C.3      12 GLL5        0.0000 
     77 N          52.4460   13.9455   64.9610 N.am      2 SEC2        0.0000 
     78 N          52.7670   15.0620   65.9120 N.am     10 SEL2        0.0000 
     79 N          52.1250   12.8290   64.0100 N.am      6 SEP2        0.0000 
     80 CA         51.0115   15.0925   63.9795 C.3       4 GLC5        0.0000 
     81 CA         52.2470   16.7490   63.6880 C.3      12 GLL5        0.0000 
     82 CA         49.7760   13.4360   64.2710 C.3       8 GLP5        0.0000 
     83 CA         64.7603   17.9132   63.7828 C.3       4 GLC5        0.0000 
     84 CA         63.8600   19.8970   64.2600 C.3      12 GLL5        0.0000 
     85 CA         64.9920   15.8930   63.0260 C.3       8 GLP5        0.0000 
     86 CA         68.7875   25.3855   64.2130 C.3       4 GLC5        0.0000 
     87 CA         66.6290   25.3950   63.7880 C.3      12 GLL5        0.0000 
     88 CA         66.3225   27.1565   62.3725 C.3       4 GLC5        0.0000 
     89 CA         65.5580   28.4170   61.2120 C.3       8 GLP5        0.0000 
     90 CA         58.7930   18.1720   59.6335 C.3       4 GLC5        0.0000 
     91 CA         59.6770   17.7370   58.0010 C.3       8 GLP5        0.0000 
     92 CA         58.2362   21.2190   63.3872 C.3       4 GLC5        0.0000 
     93 CA         57.5380   20.3530   62.2480 C.3      12 GLL5        0.0000 
     94 CA         56.1552   22.1650   62.8807 C.3       4 GLC5        0.0000 
     95 CA         55.3290   24.1490   62.9740 C.3       8 GLP5        0.0000 
     96 CA         53.7613   15.4990   63.3433 C.3       4 GLC5        0.0000 
     97 CA         53.5280   16.8310   64.4610 C.3      12 GLL5        0.0000 
     98 CA         54.6350   14.2080   62.6120 C.3       8 GLP5        0.0000 
     99 CA         52.3790   17.1082   60.6865 C.3       4 GLC5        0.0000 
    100 CA         52.0750   17.5240   62.5560 C.3      12 GLL5        0.0000 
    101 CA         52.1740   16.2560   59.0180 C.3       8 GLP5        0.0000 
    102 CA         53.6095   16.0842   62.4835 C.3       4 GLC5        0.0000 
    103 CA         51.7905   19.2464   62.4535 C.3       4 GLC5        0.0000 
    104 CA         50.9540   20.7260   62.2690 C.3       8 GLP5        0.0000 
@<TRIPOS>BOND
@<TRIPOS>SUBSTRUCTURE
     1 ALC1       22 GROUP        1 X    ALC  0     ROOT ALC X 1
     2 SEC2        4 GROUP        1 X    SEC  0     **** SEC X 2
     3 LYC4        1 GROUP        1 X    LYC  0     **** LYC X 4
     4 GLC5        7 GROUP        1 X    GLC  0     **** GLC X 6
     5 ALP1       24 GROUP        1 Y    ALP  0     ROOT ALP Y 8
     6 SEP2        6 GROUP        1 Y    SEP  0     **** SEP Y 9
     7 LYP4        3 GROUP        1 Y    LYP  0     **** LYP Y 11
     8 GLP5        9 GROUP        1 Y    GLP  0     **** GLP Y 13
     9 ALL1       23 GROUP        1 Z    ALL  0     ROOT ALL Z 15
    10 SEL2        5 GROUP        1 Z    SEL  0     **** SEL Z 16
    11 LYL4        2 GROUP        1 Z    LYL  0     **** LYL Z 18
    12 GLL5        8 GROUP        1 Z    GLL  0     **** GLL Z 20
@<TRIPOS>SET

