#    Name: 2q4b_NAP_2_ligand
#    Modification time : Mon Mar 24 20:43:48 2014

@<TRIPOS>MOLECULE
2q4b_NAP_2_ligand
   73    77     1     0     0
SMALL
NO_CHARGES


@<TRIPOS>ATOM
      1 PA         60.8460   18.2590   65.1630 P.3       1 NAP401      0.0000 
      2 O1A        60.5310   18.0350   66.4520 O.co2     1 NAP401      0.0000 
      3 O2A        61.5610   17.0160   64.8670 O.co2     1 NAP401      0.0000 
      4 O5B        62.1210   19.1920   64.7820 O.3       1 NAP401      0.0000 
      5 C5B        62.6390   19.8690   63.5880 C.3       1 NAP401      0.0000 
      6 C4B        63.8600   19.8970   64.2600 C.3       1 NAP401      0.0000 
      7 O4B        64.0150   21.3890   63.4100 O.3       1 NAP401      0.0000 
      8 C3B        65.1970   19.9700   64.8190 C.3       1 NAP401      0.0000 
      9 O3B        65.9650   19.0340   63.8850 O.3       1 NAP401      0.0000 
     10 C2B        65.7280   21.3240   64.9410 C.3       1 NAP401      0.0000 
     11 O2B        67.0350   21.1690   65.3480 O.3       1 NAP401      0.0000 
     12 C1B        65.4490   21.9320   63.6110 C.3       1 NAP401      0.0000 
     13 N9A        65.7380   23.3780   63.8560 N.pl3     1 NAP401      0.0000 
     14 C8A        65.1480   24.2780   64.7830 C.2       1 NAP401      0.0000 
     15 N7A        65.6560   25.4800   64.7500 N.2       1 NAP401      0.0000 
     16 C5A        66.6290   25.3950   63.7880 C.ar      1 NAP401      0.0000 
     17 C6A        67.5450   26.3970   63.2780 C.ar      1 NAP401      0.0000 
     18 N6A        67.5450   27.6940   63.7700 N.pl3     1 NAP401      0.0000 
     19 N1A        68.4410   26.0180   62.2770 N.ar      1 NAP401      0.0000 
     20 C2A        68.4530   24.7240   61.8070 C.ar      1 NAP401      0.0000 
     21 N3A        67.5810   23.7030   62.2380 N.ar      1 NAP401      0.0000 
     22 C4A        66.6860   24.1160   63.2450 C.ar      1 NAP401      0.0000 
     23 O3         59.9400   17.8810   63.8430 O.3       1 NAP401      0.0000 
     24 PN         59.0420   16.6270   63.4120 P.3       1 NAP401      0.0000 
     25 O1N        58.3490   16.2840   64.6700 O.co2     1 NAP401      0.0000 
     26 O2N        59.9300   15.5950   62.7270 O.co2     1 NAP401      0.0000 
     27 O5D        58.0460   17.0630   62.2140 O.3       1 NAP401      0.0000 
     28 C5D        58.3910   18.0410   61.2960 C.3       1 NAP401      0.0000 
     29 C4D        57.4270   19.1730   61.2360 C.3       1 NAP401      0.0000 
     30 O4D        56.0470   18.8740   61.2690 O.3       1 NAP401      0.0000 
     31 C3D        57.5380   20.3530   62.2480 C.3       1 NAP401      0.0000 
     32 O3D        57.4340   21.6270   61.6080 O.3       1 NAP401      0.0000 
     33 C2D        56.4250   20.0090   63.3270 C.3       1 NAP401      0.0000 
     34 O2D        56.0500   21.1380   64.1370 O.3       1 NAP401      0.0000 
     35 C1D        55.3500   19.4480   62.3830 C.3       1 NAP401      0.0000 
     36 N1N        54.3210   18.5050   62.8820 N.pl3     1 NAP401      0.0000 
     37 C2N        54.5270   17.7320   64.0200 C.ar      1 NAP401      0.0000 
     38 C3N        53.5280   16.8310   64.4610 C.ar      1 NAP401      0.0000 
     39 C7N        53.6900   15.9080   65.6930 C.2       1 NAP401      0.0000 
     40 O7N        52.7670   15.0620   65.9120 O.2       1 NAP401      0.0000 
     41 N7N        54.8910   16.0870   66.3910 N.am      1 NAP401      0.0000 
     42 C4N        52.2470   16.7490   63.6880 C.ar      1 NAP401      0.0000 
     43 C5N        52.0750   17.5240   62.5560 C.ar      1 NAP401      0.0000 
     44 C6N        53.0930   18.3970   62.1540 C.ar      1 NAP401      0.0000 
     45 P2B        67.5400   20.2190   66.6710 P.3       1 NAP401      0.0000 
     46 O1X        67.6160   18.7910   66.2580 O.co2     1 NAP401      0.0000 
     47 O2X        68.8420   20.9250   66.8890 O.co2     1 NAP401      0.0000 
     48 O3X        66.4800   20.3880   67.7850 O.co2     1 NAP401      0.0000 
     49 H          62.2100   20.7943   63.4973 H         1 NAP401      0.0000 
     50 H          62.6343   19.2252   62.7917 H         1 NAP401      0.0000 
     51 H          63.3307   20.8275   65.2181 H         1 NAP401      0.0000 
     52 H          65.1751   19.4610   65.7944 H         1 NAP401      0.0000 
     53 H          65.1103   21.8253   65.6866 H         1 NAP401      0.0000 
     54 H          66.1085   21.4836   62.9288 H         1 NAP401      0.0000 
     55 H          64.4140   23.9622   65.3806 H         1 NAP401      0.0000 
     56 H          66.9114   27.8797   64.5211 H         1 NAP401      0.0000 
     57 H          68.1786   28.3311   63.3311 H         1 NAP401      0.0000 
     58 H          69.1661   24.4624   61.0655 H         1 NAP401      0.0000 
     59 H          58.4838   17.6209   60.2595 H         1 NAP401      0.0000 
     60 H          59.4047   18.4715   61.5118 H         1 NAP401      0.0000 
     61 H          57.5902   19.7153   60.2205 H         1 NAP401      0.0000 
     62 H          58.4935   20.2048   62.7582 H         1 NAP401      0.0000 
     63 H          56.8268   19.1743   63.8761 H         1 NAP401      0.0000 
     64 H          54.8129   20.3588   61.9677 H         1 NAP401      0.0000 
     65 H          55.4026   17.8071   64.5494 H         1 NAP401      0.0000 
     66 H          55.0335   15.4914   67.1815 H         1 NAP401      0.0000 
     67 H          55.5031   16.7951   66.0391 H         1 NAP401      0.0000 
     68 H          51.5409   16.1126   64.0353 H         1 NAP401      0.0000 
     69 H          51.2099   17.4654   62.0088 H         1 NAP401      0.0000 
     70 H          52.9681   18.9829   61.3139 H         1 NAP401      0.0000 
     71 H          66.6769   18.6255   64.4562 H         1 NAP401      0.0000 
     72 H          57.9917   21.5477   60.7818 H         1 NAP401      0.0000 
     73 H          56.9146   21.5250   64.4574 H         1 NAP401      0.0000 
@<TRIPOS>BOND
     1    2    1 ar   
     2    3    1 ar   
     3    4    1 1    
     4   23    1 1    
     5    5    4 1    
     6    6    5 1    
     7   49    5 1    
     8   50    5 1    
     9    7    6 1    
    10    8    6 1    
    11   51    6 1    
    12   12    7 1    
    13    9    8 1    
    14   10    8 1    
    15   52    8 1    
    16   71    9 1    
    17   11   10 1    
    18   12   10 1    
    19   53   10 1    
    20   45   11 1    
    21   13   12 1    
    22   54   12 1    
    23   14   13 1    
    24   22   13 1    
    25   15   14 2    
    26   55   14 1    
    27   16   15 1    
    28   17   16 ar   
    29   22   16 ar   
    30   18   17 1    
    31   19   17 ar   
    32   56   18 1    
    33   57   18 1    
    34   20   19 ar   
    35   21   20 ar   
    36   58   20 1    
    37   22   21 ar   
    38   24   23 1    
    39   25   24 ar   
    40   26   24 ar   
    41   27   24 1    
    42   28   27 1    
    43   29   28 1    
    44   59   28 1    
    45   60   28 1    
    46   30   29 1    
    47   31   29 1    
    48   61   29 1    
    49   35   30 1    
    50   32   31 1    
    51   33   31 1    
    52   62   31 1    
    53   72   32 1    
    54   34   33 1    
    55   35   33 1    
    56   63   33 1    
    57   73   34 1    
    58   36   35 1    
    59   64   35 1    
    60   37   36 ar   
    61   44   36 ar   
    62   38   37 ar   
    63   65   37 1    
    64   39   38 1    
    65   42   38 ar   
    66   40   39 2    
    67   41   39 am   
    68   66   41 1    
    69   67   41 1    
    70   43   42 ar   
    71   68   42 1    
    72   44   43 ar   
    73   69   43 1    
    74   70   44 1    
    75   46   45 ar   
    76   47   45 ar   
    77   48   45 ar   
@<TRIPOS>SUBSTRUCTURE
     1 NAP401      1 GROUP   
@<TRIPOS>SET

