#    Name: 3qwb_NDP_4_INTS_M
#    Modification time : Tue Mar 25 10:14:57 2014

@<TRIPOS>MOLECULE
3qwb_NDP_4_INTS_M
   95     0    12     0     0
SMALL
NO_CHARGES


@<TRIPOS>ATOM
      1 N          34.6595  -14.5750   12.6325 N.am      2 SEC2        0.0000 
      2 N          35.8390  -14.1630   11.8190 N.am     10 SEL2        0.0000 
      3 N          33.4800  -14.9870   13.4460 N.am      6 SEP2        0.0000 
      4 CA         38.3615  -10.9745   10.1045 C.3       4 GLC5        0.0000 
      5 CA         36.5980  -11.0560    9.6980 C.3      12 GLL5        0.0000 
      6 CA         40.1250  -10.8930   10.5110 C.3       8 GLP5        0.0000 
      7 CA         33.6185  -10.1845    9.3380 C.3       4 GLC5        0.0000 
      8 CA         35.3750  -10.9220    8.7990 C.3      12 GLL5        0.0000 
      9 CA         31.8620   -9.4470    9.8770 C.3       8 GLP5        0.0000 
     10 N          34.1365  -13.6990    6.2965 N.am      2 SEC2        0.0000 
     11 N          35.1560  -12.9880    7.4950 N.am     10 SEL2        0.0000 
     12 N          33.1170  -14.4100    5.0980 N.am      6 SEP2        0.0000 
     13 N          36.1605  -13.8870    7.2565 N.am      2 SEC2        0.0000 
     14 N          37.1650  -14.7860    7.0180 N.am      6 SEP2        0.0000 
     15 CA         33.1920   -9.4445    8.5600 C.3       4 GLC5        0.0000 
     16 CA         34.5220   -9.4420    7.2430 C.3      12 GLL5        0.0000 
     17 CA         37.9095   -4.8495    5.1165 C.3       4 GLC5        0.0000 
     18 CA         37.6760   -6.8470    4.5180 C.3      12 GLL5        0.0000 
     19 CA         38.1430   -2.8520    5.7150 C.3       8 GLP5        0.0000 
     20 CA         37.9435  -10.1220    4.4365 C.3       4 GLC5        0.0000 
     21 CA         38.6550   -8.8430    5.4230 C.3      12 GLL5        0.0000 
     22 CA         37.2320  -11.4010    3.4500 C.3       8 GLP5        0.0000 
     23 N          34.1760  -13.0345   15.2965 N.am      2 SEC2        0.0000 
     24 N          35.4800  -12.7070   14.6920 N.am     10 SEL2        0.0000 
     25 N          32.8720  -13.3620   15.9010 N.am      6 SEP2        0.0000 
     26 N          39.4640  -11.9305   14.8120 N.am      2 SEC2        0.0000 
     27 N          38.0150  -12.3410   14.9290 N.am     10 SEL2        0.0000 
     28 N          40.9130  -11.5200   14.6950 N.am      6 SEP2        0.0000 
     29 N          37.2400  -13.4530   15.9010 N.am      2 SEC2        0.0000 
     30 N          36.4650  -14.5650   16.8730 N.am      6 SEP2        0.0000 
     31 CA         34.6680  -10.4485   15.7115 C.3       4 GLC5        0.0000 
     32 CA         35.3650   -9.7670   13.9880 C.3      12 GLL5        0.0000 
     33 CA         33.9710  -11.1300   17.4350 C.3       8 GLP5        0.0000 
     34 CA         34.0870   -7.4620   15.3525 C.3       4 GLC5        0.0000 
     35 CA         35.6130   -8.2610   13.9660 C.3      12 GLL5        0.0000 
     36 CA         32.5610   -6.6630   16.7390 C.3       8 GLP5        0.0000 
     37 O          39.2485   -6.0260   13.5825 O.2       1 ALC1        0.0000 
     38 O          38.8480   -6.7710   14.6640 O.2       9 ALL1        0.0000 
     39 O          39.6490   -5.2810   12.5010 O.2       5 ALP1        0.0000 
     40 CA         34.9770   -6.4560   14.4935 C.3       4 GLC5        0.0000 
     41 CA         36.6520   -7.0900   15.6950 C.3      12 GLL5        0.0000 
     42 CA         33.3020   -5.8220   13.2920 C.3       8 GLP5        0.0000 
     43 CA         34.9075   -6.3180   16.4960 C.3       4 GLC5        0.0000 
     44 CA         33.1630   -5.5460   17.2970 C.3       8 GLP5        0.0000 
     45 CA         36.5190   -5.1645   14.9245 C.3       4 GLC5        0.0000 
     46 CA         36.3860   -3.2390   14.1540 C.3       8 GLP5        0.0000 
     47 N          36.9825   -5.0805   22.9030 N.am      2 SEC2        0.0000 
     48 N          37.0420   -5.4370   21.5060 N.am     10 SEL2        0.0000 
     49 N          36.9230   -4.7240   24.3000 N.am      6 SEP2        0.0000 
     50 O          36.0520   -2.7695   20.3250 O.2       1 ALC1        0.0000 
     51 O          36.4060   -4.0340   19.6860 O.2       9 ALL1        0.0000 
     52 O          35.6980   -1.5050   20.9640 O.2       5 ALP1        0.0000 
     53 O          36.0630   -3.9100   18.2210 O.2       1 ALC1        0.0000 
     54 O          35.7200   -3.7860   16.7560 O.2       5 ALP1        0.0000 
     55 NZ         33.2495  -13.0250    4.5295 N.4       3 LYC4        0.0000 
     56 NZ         33.3820  -11.6400    3.9610 N.4      11 LYL4        0.0000 
     57 NZ         33.1170  -14.4100    5.0980 N.4       7 LYP4        0.0000 
     58 NZ         33.4845  -10.0355    3.3380 N.4       3 LYC4        0.0000 
     59 NZ         34.8300   -8.7490    2.3790 N.4       7 LYP4        0.0000 
     60 N          32.6915  -12.1790    2.9990 N.am      2 SEC2        0.0000 
     61 N          33.3820  -11.6400    3.9610 N.am     10 SEL2        0.0000 
     62 N          32.0010  -12.7180    2.0370 N.am      6 SEP2        0.0000 
     63 N          34.3765  -10.7600    3.3930 N.am      2 SEC2        0.0000 
     64 N          35.3710   -9.8800    2.8250 N.am      6 SEP2        0.0000 
     65 N          33.4845  -10.0355    3.3380 N.am      2 SEC2        0.0000 
     66 N          33.5870   -8.4310    2.7150 N.am      6 SEP2        0.0000 
     67 NZ         32.9225   -9.0445    3.8105 N.4       3 LYC4        0.0000 
     68 NZ         32.2580   -9.6580    4.9060 N.4      11 LYL4        0.0000 
     69 N          32.9225   -9.0445    3.8105 N.am      2 SEC2        0.0000 
     70 N          32.2580   -9.6580    4.9060 N.am     10 SEL2        0.0000 
     71 NZ         32.1635  -13.1575    5.1400 N.4       3 LYC4        0.0000 
     72 NZ         31.2100  -11.9050    5.1820 N.4      11 LYL4        0.0000 
     73 N          30.3055  -11.8365    4.0425 N.am      2 SEC2        0.0000 
     74 N          31.2100  -11.9050    5.1820 N.am     10 SEL2        0.0000 
     75 N          29.4010  -11.7680    2.9030 N.am      6 SEP2        0.0000 
     76 N          32.1635  -13.1575    5.1400 N.am      2 SEC2        0.0000 
     77 CA         36.1550  -11.3047    5.2265 C.3       4 GLC5        0.0000 
     78 CA         34.6320  -10.7960    6.5500 C.3      12 GLL5        0.0000 
     79 CA         36.9742   -6.8842    7.0401 C.3       4 GLC5        0.0000 
     80 CA         36.4760   -7.1690    5.1410 C.3      12 GLL5        0.0000 
     81 CA         37.2170   -6.0980    8.7130 C.3       8 GLP5        0.0000 
     82 CA         36.7298   -8.9947    3.9386 C.3       4 GLC5        0.0000 
     83 CA         36.3870   -8.3330    5.9050 C.3      12 GLL5        0.0000 
     84 CA         36.7280  -10.3190    2.5100 C.3       8 GLP5        0.0000 
     85 CA         34.8057   -6.9420   13.5140 C.3       4 GLC5        0.0000 
     86 CA         37.0060   -7.8630   13.5060 C.3      12 GLL5        0.0000 
     87 CA         38.6582   -8.9310   13.5243 C.3       4 GLC5        0.0000 
     88 CA         39.9370  -10.1090   12.8940 C.3       8 GLP5        0.0000 
     89 CA         37.4660   -9.8435   20.4108 C.3       4 GLC5        0.0000 
     90 CA         36.7990   -7.8560   19.9590 C.3      12 GLL5        0.0000 
     91 CA         38.1140  -11.2870   21.3780 C.3       8 GLP5        0.0000 
     92 CA         35.1456   -8.1116   20.2512 C.3       4 GLC5        0.0000 
     93 CA         36.8370   -8.9440   18.9280 C.3      12 GLL5        0.0000 
     94 CA         33.4720   -8.1680   21.2140 C.3       8 GLP5        0.0000 
     95 CA         35.4150   -9.9670   17.8407 C.3       4 GLC5        0.0000 
@<TRIPOS>BOND
@<TRIPOS>SUBSTRUCTURE
     1 ALC1       37 GROUP        1 X    ALC  0     ROOT ALC X 1
     2 SEC2        1 GROUP        1 X    SEC  0     **** SEC X 2
     3 LYC4       55 GROUP        1 X    LYC  0     **** LYC X 4
     4 GLC5        4 GROUP        1 X    GLC  0     **** GLC X 6
     5 ALP1       39 GROUP        1 Y    ALP  0     ROOT ALP Y 8
     6 SEP2        3 GROUP        1 Y    SEP  0     **** SEP Y 9
     7 LYP4       57 GROUP        1 Y    LYP  0     **** LYP Y 11
     8 GLP5        6 GROUP        1 Y    GLP  0     **** GLP Y 13
     9 ALL1       38 GROUP        1 Z    ALL  0     ROOT ALL Z 15
    10 SEL2        2 GROUP        1 Z    SEL  0     **** SEL Z 16
    11 LYL4       56 GROUP        1 Z    LYL  0     **** LYL Z 18
    12 GLL5        5 GROUP        1 Z    GLL  0     **** GLL Z 20
@<TRIPOS>SET

