#    Name: 3qwb_NDP_4_ligand
#    Modification time : Tue Mar 25 10:14:58 2014

@<TRIPOS>MOLECULE
3qwb_NDP_4_ligand
   74    78     1     0     0
SMALL
NO_CHARGES


@<TRIPOS>ATOM
      1 PA         35.9100  -12.6900   11.6480 P.3       1 NDP335      0.0000 
      2 O1A        34.5810  -12.0410   11.6950 O.co2     1 NDP335      0.0000 
      3 O2A        35.8390  -14.1630   11.8190 O.co2     1 NDP335      0.0000 
      4 O5B        36.6430  -12.3490   10.2650 O.3       1 NDP335      0.0000 
      5 C5B        36.5980  -11.0560    9.6980 C.3       1 NDP335      0.0000 
      6 C4B        35.3750  -10.9220    8.7990 C.3       1 NDP335      0.0000 
      7 O4B        35.1940   -9.5530    8.4810 O.3       1 NDP335      0.0000 
      8 C3B        35.5240  -11.6210    7.4560 C.3       1 NDP335      0.0000 
      9 O3B        35.1560  -12.9880    7.4950 O.3       1 NDP335      0.0000 
     10 C2B        34.6320  -10.7960    6.5500 C.3       1 NDP335      0.0000 
     11 O2B        33.3410  -11.3440    6.4440 O.3       1 NDP335      0.0000 
     12 C1B        34.5220   -9.4420    7.2430 C.3       1 NDP335      0.0000 
     13 N9A        35.1080   -8.3910    6.3910 N.pl3     1 NDP335      0.0000 
     14 C8A        34.4350   -7.2880    5.9330 C.2       1 NDP335      0.0000 
     15 N7A        35.2750   -6.5560    5.1740 N.2       1 NDP335      0.0000 
     16 C5A        36.4760   -7.1690    5.1410 C.ar      1 NDP335      0.0000 
     17 C6A        37.6760   -6.8470    4.5180 C.ar      1 NDP335      0.0000 
     18 N6A        37.7260   -5.8600    3.6380 N.pl3     1 NDP335      0.0000 
     19 N1A        38.7620   -7.6910    4.6650 N.ar      1 NDP335      0.0000 
     20 C2A        38.6550   -8.8430    5.4230 C.ar      1 NDP335      0.0000 
     21 N3A        37.4600   -9.1550    6.0420 N.ar      1 NDP335      0.0000 
     22 C4A        36.3870   -8.3330    5.9050 C.ar      1 NDP335      0.0000 
     23 O3         36.9240  -12.0220   12.7130 O.3       1 NDP335      0.0000 
     24 PN         36.7180  -11.9900   14.3190 P.3       1 NDP335      0.0000 
     25 O1N        35.4800  -12.7070   14.6920 O.co2     1 NDP335      0.0000 
     26 O2N        38.0150  -12.3410   14.9290 O.co2     1 NDP335      0.0000 
     27 O5D        36.4590  -10.4260   14.5860 O.3       1 NDP335      0.0000 
     28 C5D        35.3650   -9.7670   13.9880 C.3       1 NDP335      0.0000 
     29 C4D        35.6130   -8.2610   13.9660 C.3       1 NDP335      0.0000 
     30 O4D        35.4670   -7.7410   15.2740 O.3       1 NDP335      0.0000 
     31 C3D        37.0060   -7.8630   13.5060 C.3       1 NDP335      0.0000 
     32 O3D        36.9130   -6.6400   12.8100 O.3       1 NDP335      0.0000 
     33 C2D        37.7530   -7.6430   14.8030 C.3       1 NDP335      0.0000 
     34 O2D        38.8480   -6.7710   14.6640 O.3       1 NDP335      0.0000 
     35 C1D        36.6520   -7.0900   15.6950 C.3       1 NDP335      0.0000 
     36 N1N        36.8990   -7.3720   17.1030 N.pl3     1 NDP335      0.0000 
     37 C2N        36.8530   -6.3100   17.9620 C.2       1 NDP335      0.0000 
     38 C3N        36.8040   -6.4770   19.3390 C.2       1 NDP335      0.0000 
     39 C7N        36.7580   -5.2870   20.2250 C.2       1 NDP335      0.0000 
     40 O7N        37.0420   -5.4370   21.5060 O.2       1 NDP335      0.0000 
     41 N7N        36.4060   -4.0340   19.6860 N.am      1 NDP335      0.0000 
     42 C4N        36.7990   -7.8560   19.9590 C.3       1 NDP335      0.0000 
     43 C5N        36.8370   -8.9440   18.9280 C.2       1 NDP335      0.0000 
     44 C6N        36.8810   -8.6640   17.5650 C.2       1 NDP335      0.0000 
     45 P2B        32.4990  -11.1350    5.0870 P.3       1 NDP335      0.0000 
     46 O1X        33.3820  -11.6400    3.9610 O.co2     1 NDP335      0.0000 
     47 O2X        32.2580   -9.6580    4.9060 O.co2     1 NDP335      0.0000 
     48 O3X        31.2100  -11.9050    5.1820 O.co2     1 NDP335      0.0000 
     49 H          37.4857  -10.8430    9.0847 H         1 NDP335      0.0000 
     50 H          36.5336  -10.2707   10.4653 H         1 NDP335      0.0000 
     51 H          34.5149  -11.3130    9.2983 H         1 NDP335      0.0000 
     52 H          36.5423  -11.4611    7.1289 H         1 NDP335      0.0000 
     53 H          35.1176  -10.6499    5.6218 H         1 NDP335      0.0000 
     54 H          33.4665   -9.2478    7.3906 H         1 NDP335      0.0000 
     55 H          33.5148   -7.0820    6.1284 H         1 NDP335      0.0000 
     56 H          38.6256   -5.6632    3.2481 H         1 NDP335      0.0000 
     57 H          36.8596   -5.4004    3.4426 H         1 NDP335      0.0000 
     58 H          39.4682   -9.4689    5.5257 H         1 NDP335      0.0000 
     59 H          34.4273   -9.9392   14.5356 H         1 NDP335      0.0000 
     60 H          35.2033  -10.0902   12.9497 H         1 NDP335      0.0000 
     61 H          34.8933   -7.7988   13.2997 H         1 NDP335      0.0000 
     62 H          37.4340   -8.6437   12.9770 H         1 NDP335      0.0000 
     63 H          38.0109   -8.6149   15.1886 H         1 NDP335      0.0000 
     64 H          36.5860   -6.0331   15.5180 H         1 NDP335      0.0000 
     65 H          36.8544   -5.3356   17.5780 H         1 NDP335      0.0000 
     66 H          36.2020   -4.0177   18.7072 H         1 NDP335      0.0000 
     67 H          36.3901   -3.2676   20.3281 H         1 NDP335      0.0000 
     68 H          35.8965   -7.9675   20.5780 H         1 NDP335      0.0000 
     69 H          37.6678   -7.9520   20.6269 H         1 NDP335      0.0000 
     70 H          36.8288   -9.9055   19.2821 H         1 NDP335      0.0000 
     71 H          36.9004   -9.4556   16.8906 H         1 NDP335      0.0000 
     72 H          34.2135  -13.0117    7.1617 H         1 NDP335      0.0000 
     73 H          36.3062   -6.8274   12.0376 H         1 NDP335      0.0000 
     74 H          38.7810   -6.4184   13.7306 H         1 NDP335      0.0000 
@<TRIPOS>BOND
     1    2    1 ar   
     2    3    1 ar   
     3    4    1 1    
     4   23    1 1    
     5    5    4 1    
     6    6    5 1    
     7   49    5 1    
     8   50    5 1    
     9    7    6 1    
    10    8    6 1    
    11   51    6 1    
    12   12    7 1    
    13    9    8 1    
    14   10    8 1    
    15   52    8 1    
    16   72    9 1    
    17   11   10 1    
    18   12   10 1    
    19   53   10 1    
    20   45   11 1    
    21   13   12 1    
    22   54   12 1    
    23   14   13 1    
    24   22   13 1    
    25   15   14 2    
    26   55   14 1    
    27   16   15 1    
    28   17   16 ar   
    29   22   16 ar   
    30   18   17 1    
    31   19   17 ar   
    32   56   18 1    
    33   57   18 1    
    34   20   19 ar   
    35   21   20 ar   
    36   58   20 1    
    37   22   21 ar   
    38   24   23 1    
    39   25   24 ar   
    40   26   24 ar   
    41   27   24 1    
    42   28   27 1    
    43   29   28 1    
    44   59   28 1    
    45   60   28 1    
    46   30   29 1    
    47   31   29 1    
    48   61   29 1    
    49   35   30 1    
    50   32   31 1    
    51   33   31 1    
    52   62   31 1    
    53   73   32 1    
    54   34   33 1    
    55   35   33 1    
    56   63   33 1    
    57   74   34 1    
    58   36   35 1    
    59   64   35 1    
    60   37   36 1    
    61   44   36 1    
    62   38   37 2    
    63   65   37 1    
    64   39   38 1    
    65   42   38 1    
    66   40   39 2    
    67   41   39 am   
    68   66   41 1    
    69   67   41 1    
    70   43   42 1    
    71   68   42 1    
    72   69   42 1    
    73   44   43 2    
    74   70   43 1    
    75   71   44 1    
    76   46   45 ar   
    77   47   45 ar   
    78   48   45 ar   
@<TRIPOS>SUBSTRUCTURE
     1 NDP335      1 GROUP   
@<TRIPOS>SET

