#    Name: 1kmv_LII_1_INTS_M
#    Modification time : Tue Mar 25 10:15:10 2014

@<TRIPOS>MOLECULE
1kmv_LII_1_INTS_M
   53     0     9     0     0
SMALL
NO_CHARGES


@<TRIPOS>ATOM
      1 CA         15.8905   24.8145   29.9350 C.3       3 GLC5        0.0000 
      2 CA         15.0590   24.2740   31.7180 C.3       9 GLL5        0.0000 
      3 CA         16.7220   25.3550   28.1520 C.3       6 GLP5        0.0000 
      4 CA         16.7520   22.1525   30.1635 C.3       3 GLC5        0.0000 
      5 CA         14.6820   22.5230   30.2630 C.3       9 GLL5        0.0000 
      6 CA         18.8220   21.7820   30.0640 C.3       6 GLP5        0.0000 
      7 CA         15.7020   23.9390   29.2075 C.3       3 GLC5        0.0000 
      8 CA         13.5530   23.0190   28.7050 C.3       3 GLC5        0.0000 
      9 CA         12.4240   23.5150   27.1470 C.3       6 GLP5        0.0000 
     10 CA         14.9125   20.9640   31.6110 C.3       3 GLC5        0.0000 
     11 CA         15.1430   19.4050   32.9590 C.3       6 GLP5        0.0000 
     12 CA         12.6510   23.4220   29.3610 C.3       3 GLC5        0.0000 
     13 CA         12.8780   23.3290   31.5750 C.3       9 GLL5        0.0000 
     14 CA         15.4085   24.0655   34.4080 C.3       3 GLC5        0.0000 
     15 CA         14.0540   25.6400   34.3650 C.3       9 GLL5        0.0000 
     16 CA         16.7630   22.4910   34.4510 C.3       6 GLP5        0.0000 
     17 CA         14.1710   27.4080   35.3455 C.3       3 GLC5        0.0000 
     18 CA         14.2880   29.1760   36.3260 C.3       6 GLP5        0.0000 
     19 CA         16.1600   25.7965   34.7365 C.3       3 GLC5        0.0000 
     20 CA         18.2660   25.9530   35.1080 C.3       6 GLP5        0.0000 
     21 CA          7.6930   24.2055   33.8705 C.3       3 GLC5        0.0000 
     22 CA          8.3300   23.8990   35.8950 C.3       9 GLL5        0.0000 
     23 CA          7.0560   24.5120   31.8460 C.3       6 GLP5        0.0000 
     24 CA          8.7855   24.9200   37.8195 C.3       3 GLC5        0.0000 
     25 CA          9.2410   25.9410   39.7440 C.3       6 GLP5        0.0000 
     26 CA         14.2335   21.7420   36.0980 C.3       3 GLC5        0.0000 
     27 CA         12.6970   22.2420   36.0020 C.3       9 GLL5        0.0000 
     28 CA         15.7700   21.2420   36.1940 C.3       6 GLP5        0.0000 
     29 CA          6.4265   22.4030   34.6710 C.3       3 GLC5        0.0000 
     30 CA          5.6270   23.6940   36.2150 C.3       9 GLL5        0.0000 
     31 CA          7.2260   21.1120   33.1270 C.3       6 GLP5        0.0000 
     32 CA          5.8130   23.3310   38.0160 C.3       3 GLC5        0.0000 
     33 CA          5.9990   22.9680   39.8170 C.3       6 GLP5        0.0000 
     34 N          12.5830   21.4765   30.0265 N.am      2 SEC2        0.0000 
     35 N          13.3990   22.4420   30.6080 N.am      8 SEL2        0.0000 
     36 N          11.7670   20.5110   29.4450 N.am      5 SEP2        0.0000 
     37 O          17.1520   25.3765   31.2915 O.2       1 ALC1        0.0000 
     38 O          15.9540   25.1520   32.1230 O.2       7 ALL1        0.0000 
     39 O          18.3500   25.6010   30.4600 O.2       4 ALP1        0.0000 
     40 O          16.2340   26.4155   32.8545 O.2       1 ALC1        0.0000 
     41 O          16.5140   27.6790   33.5860 O.2       4 ALP1        0.0000 
     42 O          14.3115   20.7360   28.7685 O.2       1 ALC1        0.0000 
     43 O          15.1430   21.6620   29.3730 O.2       7 ALL1        0.0000 
     44 O          13.4800   19.8100   28.1640 O.2       4 ALP1        0.0000 
     45 CA          9.9190   25.7937   32.4995 C.3       3 GLC5        0.0000 
     46 CA         11.0050   23.9870   32.7670 C.3       9 GLL5        0.0000 
     47 CA          8.5710   26.4010   31.1920 C.3       6 GLP5        0.0000 
     48 CA         10.9455   25.2220   37.4344 C.3       3 GLC5        0.0000 
     49 CA          9.6990   24.1260   35.8350 C.3       9 GLL5        0.0000 
     50 CA         11.7400   25.8840   39.1720 C.3       6 GLP5        0.0000 
     51 CA          8.1117   23.1024   37.9449 C.3       3 GLC5        0.0000 
     52 CA          7.8140   22.6790   36.2890 C.3       9 GLL5        0.0000 
     53 CA          7.3180   23.6420   39.5500 C.3       6 GLP5        0.0000 
@<TRIPOS>BOND
@<TRIPOS>SUBSTRUCTURE
     1 ALC1       37 GROUP        1 X    ALC  0     ROOT ALC X 1
     2 SEC2       34 GROUP        1 X    SEC  0     **** SEC X 2
     3 GLC5        1 GROUP        1 X    GLC  0     **** GLC X 6
     4 ALP1       39 GROUP        1 Y    ALP  0     ROOT ALP Y 8
     5 SEP2       36 GROUP        1 Y    SEP  0     **** SEP Y 9
     6 GLP5        3 GROUP        1 Y    GLP  0     **** GLP Y 13
     7 ALL1       38 GROUP        1 Z    ALL  0     ROOT ALL Z 15
     8 SEL2       35 GROUP        1 Z    SEL  0     **** SEL Z 16
     9 GLL5        2 GROUP        1 Z    GLL  0     **** GLL Z 20
@<TRIPOS>SET

