#    Name: 1kmv_LII_1_ligand
#    Modification time : Tue Mar 25 10:15:10 2014

@<TRIPOS>MOLECULE
1kmv_LII_1_ligand
   44    46     1     0     0
SMALL
NO_CHARGES


@<TRIPOS>ATOM
      1 C4A        13.7320   24.1770   32.2440 C.ar      1 LII201      0.0000 
      2 C4         15.0590   24.2740   31.7180 C.ar      1 LII201      0.0000 
      3 C2         14.6820   22.5230   30.2630 C.ar      1 LII201      0.0000 
      4 C8A        12.8780   23.3290   31.5750 C.ar      1 LII201      0.0000 
      5 C5         13.1900   24.9470   33.3790 C.ar      1 LII201      0.0000 
      6 C6         11.8790   24.9590   33.5350 C.ar      1 LII201      0.0000 
      7 C7         11.0050   23.9870   32.7670 C.ar      1 LII201      0.0000 
      8 C5A        14.0540   25.6400   34.3650 C.3       1 LII201      0.0000 
      9 C9         11.0920   25.9000   34.4630 C.2       1 LII201      0.0000 
     10 C1'         9.6990   24.1260   35.8350 C.ar      1 LII201      0.0000 
     11 C2'        10.5750   23.1020   36.1780 C.ar      1 LII201      0.0000 
     12 C3'        10.0870   21.8830   36.5780 C.ar      1 LII201      0.0000 
     13 C4'         8.7060   21.6770   36.6270 C.ar      1 LII201      0.0000 
     14 C5'         7.8140   22.6790   36.2890 C.ar      1 LII201      0.0000 
     15 C6'         8.3300   23.8990   35.8950 C.ar      1 LII201      0.0000 
     16 C10        10.1650   25.5060   35.3870 C.2       1 LII201      0.0000 
     17 C2X        12.6970   22.2420   36.0020 C.3       1 LII201      0.0000 
     18 C5X         5.6270   23.6940   36.2150 C.3       1 LII201      0.0000 
     19 N3         15.5040   23.4370   30.7740 N.ar      1 LII201      0.0000 
     20 N1         13.3990   22.4420   30.6080 N.ar      1 LII201      0.0000 
     21 N8         11.5550   23.2240   31.8130 N.ar      1 LII201      0.0000 
     22 N4         15.9540   25.1520   32.1230 N.pl3     1 LII201      0.0000 
     23 N16        15.1430   21.6620   29.3730 N.pl3     1 LII201      0.0000 
     24 O2'        11.9030   23.4250   36.0890 O.3       1 LII201      0.0000 
     25 O5'         6.4510   22.5660   36.3120 O.3       1 LII201      0.0000 
     26 H          10.0263   23.9738   33.0313 H         1 LII201      0.0000 
     27 H          11.3333   26.9123   34.3249 H         1 LII201      0.0000 
     28 H          10.7230   21.1211   36.8415 H         1 LII201      0.0000 
     29 H           8.3469   20.7489   36.9245 H         1 LII201      0.0000 
     30 H           7.6786   24.6693   35.6360 H         1 LII201      0.0000 
     31 H           9.6276   26.2935   35.9368 H         1 LII201      0.0000 
     32 H          16.8521   25.0981   31.6866 H         1 LII201      0.0000 
     33 H          15.6537   25.7924   32.8299 H         1 LII201      0.0000 
     34 H          14.4739   21.0263   28.9881 H         1 LII201      0.0000 
     35 H          16.1192   21.7243   29.1651 H         1 LII201      0.0000 
     36 H          14.6584   25.0021   34.8423 H         1 LII201      0.0000 
     37 H          14.6369   26.3265   33.9303 H         1 LII201      0.0000 
     38 H          13.5159   26.1121   35.0632 H         1 LII201      0.0000 
     39 H          13.6720   22.4533   35.9331 H         1 LII201      0.0000 
     40 H          12.5800   21.6564   36.8041 H         1 LII201      0.0000 
     41 H          12.4588   21.6929   35.2009 H         1 LII201      0.0000 
     42 H           5.7880   24.3370   36.9638 H         1 LII201      0.0000 
     43 H           5.7796   24.1932   35.3621 H         1 LII201      0.0000 
     44 H           4.6578   23.4493   36.2420 H         1 LII201      0.0000 
@<TRIPOS>BOND
     1    2    1 ar   
     2    4    1 ar   
     3    5    1 ar   
     4   19    2 ar   
     5   22    2 1    
     6   19    3 ar   
     7   20    3 ar   
     8   23    3 1    
     9   20    4 ar   
    10   21    4 ar   
    11    6    5 ar   
    12    8    5 1    
    13    7    6 ar   
    14    9    6 1    
    15   21    7 ar   
    16   26    7 1    
    17   36    8 1    
    18   37    8 1    
    19   38    8 1    
    20   16    9 2    
    21   27    9 1    
    22   11   10 ar   
    23   15   10 ar   
    24   16   10 1    
    25   12   11 ar   
    26   24   11 1    
    27   13   12 ar   
    28   28   12 1    
    29   14   13 ar   
    30   29   13 1    
    31   15   14 ar   
    32   25   14 1    
    33   30   15 1    
    34   31   16 1    
    35   24   17 1    
    36   39   17 1    
    37   40   17 1    
    38   41   17 1    
    39   25   18 1    
    40   42   18 1    
    41   43   18 1    
    42   44   18 1    
    43   32   22 1    
    44   33   22 1    
    45   34   23 1    
    46   35   23 1    
@<TRIPOS>SUBSTRUCTURE
     1 LII201      1 GROUP   
@<TRIPOS>SET

