#    Name: 1ndv_FR0_1_INTS_M
#    Modification time : Mon Mar 24 18:03:18 2014

@<TRIPOS>MOLECULE
1ndv_FR0_1_INTS_M
   60     0     9     0     0
SMALL
NO_CHARGES


@<TRIPOS>ATOM
      1 CA         46.5680   46.1490   18.9760 C.3       3 GLC5        0.0000 
      2 CA         45.3540   47.5620   18.2420 C.3       9 GLL5        0.0000 
      3 CA         47.7820   44.7360   19.7100 C.3       6 GLP5        0.0000 
      4 CA         44.1850   46.2450   22.6590 C.3       3 GLC5        0.0000 
      5 CA         44.9070   47.1630   21.0030 C.3       9 GLL5        0.0000 
      6 CA         43.4630   45.3270   24.3150 C.3       6 GLP5        0.0000 
      7 CA         49.2385   48.4785   14.8335 C.3       3 GLC5        0.0000 
      8 CA         49.2730   49.6300   16.5560 C.3       9 GLL5        0.0000 
      9 CA         49.2040   47.3270   13.1110 C.3       6 GLP5        0.0000 
     10 CA         47.8500   53.4975   14.8630 C.3       3 GLC5        0.0000 
     11 CA         47.8580   53.1270   16.8110 C.3       9 GLL5        0.0000 
     12 CA         47.8420   53.8680   12.9150 C.3       6 GLP5        0.0000 
     13 CA         46.2215   51.4505   15.3015 C.3       3 GLC5        0.0000 
     14 CA         47.9940   51.7910   16.2720 C.3       9 GLL5        0.0000 
     15 CA         44.4490   51.1100   14.3310 C.3       6 GLP5        0.0000 
     16 CA         48.6090   52.5380   14.6600 C.3       3 GLC5        0.0000 
     17 CA         49.2240   53.2850   13.0480 C.3       6 GLP5        0.0000 
     18 CA         47.0040   55.8925   19.1985 C.3       3 GLC5        0.0000 
     19 CA         48.9360   56.8070   19.8700 C.3       9 GLL5        0.0000 
     20 CA         45.0720   54.9780   18.5270 C.3       6 GLP5        0.0000 
     21 CA         50.1560   57.6390   18.3975 C.3       3 GLC5        0.0000 
     22 CA         51.3760   58.4710   16.9250 C.3       6 GLP5        0.0000 
     23 O          52.2415   56.3815   22.0640 O.2       1 ALC1        0.0000 
     24 O          50.9400   55.7150   21.3940 O.2       7 ALL1        0.0000 
     25 O          53.5430   57.0480   22.7340 O.2       4 ALP1        0.0000 
     26 OD1        51.4710   56.0770   24.2665 O.co2     2 ASC3        0.0000 
     27 OD1        51.1020   54.7290   22.3200 O.co2     8 ASL3        0.0000 
     28 OD1        51.7380   57.1930   24.9070 O.co2     5 ASP3        0.0000 
     29 OD1        51.0405   53.8600   24.5910 O.co2     2 ASC3        0.0000 
     30 OD1        50.8770   52.7590   25.5560 O.co2     5 ASP3        0.0000 
     31 O          51.0370   52.2725   23.0750 O.2       1 ALC1        0.0000 
     32 O          51.1160   53.4800   21.9470 O.2       7 ALL1        0.0000 
     33 O          50.9580   51.0650   24.2030 O.2       4 ALP1        0.0000 
     34 O          51.4710   56.0770   24.2665 O.2       1 ALC1        0.0000 
     35 O          51.2040   54.9610   23.6260 O.2       7 ALL1        0.0000 
     36 O          51.7380   57.1930   24.9070 O.2       4 ALP1        0.0000 
     37 O          51.0405   53.8600   24.5910 O.2       1 ALC1        0.0000 
     38 O          50.8770   52.7590   25.5560 O.2       4 ALP1        0.0000 
     39 CA         43.3610   48.5118   17.6725 C.3       3 GLC5        0.0000 
     40 CA         41.9310   49.8340   16.9070 C.3       6 GLP5        0.0000 
     41 CA         44.4447   49.0408   19.8255 C.3       3 GLC5        0.0000 
     42 CA         43.0920   50.2540   20.9180 C.3       6 GLP5        0.0000 
     43 CA         47.2112   46.9023   20.3225 C.3       3 GLC5        0.0000 
     44 CA         46.0220   47.8960   20.6040 C.3       9 GLL5        0.0000 
     45 CA         48.2910   45.8100   20.7310 C.3       6 GLP5        0.0000 
     46 CA         42.0328   46.7695   18.7323 C.3       3 GLC5        0.0000 
     47 CA         44.0150   46.6370   20.0250 C.3       9 GLL5        0.0000 
     48 CA         39.9440   46.8120   18.1350 C.3       6 GLP5        0.0000 
     49 CA         43.6067   48.4905   20.1238 C.3       3 GLC5        0.0000 
     50 CA         44.2280   46.8170   18.6340 C.3       9 GLL5        0.0000 
     51 CA         44.2782   48.8918   20.8607 C.3       3 GLC5        0.0000 
     52 CA         45.4921   45.4925   20.1686 C.3       3 GLC5        0.0000 
     53 CA         46.4700   44.0400   20.1710 C.3       6 GLP5        0.0000 
     54 CA         46.6818   54.1045   17.9578 C.3       3 GLC5        0.0000 
     55 CA         49.7473   54.2065   16.4348 C.3       3 GLC5        0.0000 
     56 CA         51.2030   55.1820   15.4810 C.3       6 GLP5        0.0000 
     57 CA         46.7553   55.0705   18.5955 C.3       3 GLC5        0.0000 
     58 CA         48.6830   54.5530   18.5670 C.3       9 GLL5        0.0000 
     59 CA         49.8208   55.1725   17.0725 C.3       3 GLC5        0.0000 
     60 CA         48.1940   55.7730   18.7610 C.3       9 GLL5        0.0000 
@<TRIPOS>BOND
@<TRIPOS>SUBSTRUCTURE
     1 ALC1       23 GROUP        1 X    ALC  0     ROOT ALC X 1
     2 ASC3       26 GROUP        1 X    ASC  0     **** ASC X 3
     3 GLC5        1 GROUP        1 X    GLC  0     **** GLC X 6
     4 ALP1       25 GROUP        1 Y    ALP  0     ROOT ALP Y 8
     5 ASP3       28 GROUP        1 Y    ASP  0     **** ASP Y 10
     6 GLP5        3 GROUP        1 Y    GLP  0     **** GLP Y 13
     7 ALL1       24 GROUP        1 Z    ALL  0     ROOT ALL Z 15
     8 ASL3       27 GROUP        1 Z    ASL  0     **** ASL Z 17
     9 GLL5        2 GROUP        1 Z    GLL  0     **** GLL Z 20
@<TRIPOS>SET

