#    Name: 1ndv_FR0_1_ligand
#    Modification time : Mon Mar 24 18:03:18 2014

@<TRIPOS>MOLECULE
1ndv_FR0_1_ligand
   41    44     1     0     0
SMALL
NO_CHARGES


@<TRIPOS>ATOM
      1 N1         45.8910   47.9120   17.0220 N.pl3     1 FR01001     0.0000 
      2 C2         45.3540   47.5620   18.2420 C.ar      1 FR01001     0.0000 
      3 C3         46.2410   48.0930   19.2240 C.ar      1 FR01001     0.0000 
      4 N4         47.2490   48.7360   18.5330 N.2       1 FR01001     0.0000 
      5 C5         47.0230   48.5890   17.2490 C.2       1 FR01001     0.0000 
      6 C6         44.2280   46.8170   18.6340 C.ar      1 FR01001     0.0000 
      7 C7         44.0150   46.6370   20.0250 C.ar      1 FR01001     0.0000 
      8 C8         44.9070   47.1630   21.0030 C.ar      1 FR01001     0.0000 
      9 C9         46.0220   47.8960   20.6040 C.ar      1 FR01001     0.0000 
     10 N10        48.0120   48.9800   16.2160 N.pl3     1 FR01001     0.0000 
     11 C11        49.2730   49.6300   16.5560 C.3       1 FR01001     0.0000 
     12 C12        48.9460   50.9970   17.0030 C.2       1 FR01001     0.0000 
     13 S15        49.6110   51.8090   18.3630 S.3       1 FR01001     0.0000 
     14 C16        48.7250   53.3350   17.9660 C.2       1 FR01001     0.0000 
     15 C17        47.8580   53.1270   16.8110 C.2       1 FR01001     0.0000 
     16 C18        47.9940   51.7910   16.2720 C.2       1 FR01001     0.0000 
     17 C19        48.6830   54.5530   18.5670 C.2       1 FR01001     0.0000 
     18 N20        49.7550   54.4920   19.6080 N.2       1 FR01001     0.0000 
     19 C21        50.1180   55.5990   20.3060 C.2       1 FR01001     0.0000 
     20 S22        48.9360   56.8070   19.8700 S.3       1 FR01001     0.0000 
     21 C23        48.1940   55.7730   18.7610 C.2       1 FR01001     0.0000 
     22 N26        50.9400   55.7150   21.3940 N.pl3     1 FR01001     0.0000 
     23 C27        51.1020   54.7290   22.3200 C.cat     1 FR01001     0.0000 
     24 N28        51.1160   53.4800   21.9470 N.pl3     1 FR01001     0.0000 
     25 N29        51.2040   54.9610   23.6260 N.pl3     1 FR01001     0.0000 
     26 H          45.5032   47.6968   16.1714 H         1 FR01001     0.0000 
     27 H          43.5960   46.4254   17.9608 H         1 FR01001     0.0000 
     28 H          43.1860   46.1071   20.3416 H         1 FR01001     0.0000 
     29 H          44.7167   46.9950   21.9929 H         1 FR01001     0.0000 
     30 H          46.6675   48.2832   21.2839 H         1 FR01001     0.0000 
     31 H          47.7951   48.7844   15.2414 H         1 FR01001     0.0000 
     32 H          49.9250   49.6724   15.6878 H         1 FR01001     0.0000 
     33 H          49.7750   49.0913   17.3551 H         1 FR01001     0.0000 
     34 H          47.2781   53.7908   16.4609 H         1 FR01001     0.0000 
     35 H          47.5035   51.4745   15.5135 H         1 FR01001     0.0000 
     36 H          47.4072   56.2200   18.3357 H         1 FR01001     0.0000 
     37 H          51.4775   56.6201   21.5205 H         1 FR01001     0.0000 
     38 H          51.2474   52.8053   22.6733 H         1 FR01001     0.0000 
     39 H          50.9940   53.3115   20.9689 H         1 FR01001     0.0000 
     40 H          51.1409   55.9180   23.9092 H         1 FR01001     0.0000 
     41 H          51.3346   54.1575   24.2068 H         1 FR01001     0.0000 
@<TRIPOS>BOND
     1    2    1 1    
     2    5    1 1    
     3   26    1 1    
     4    3    2 ar   
     5    6    2 ar   
     6    4    3 1    
     7    9    3 ar   
     8    5    4 2    
     9   10    5 1    
    10    7    6 ar   
    11   27    6 1    
    12    8    7 ar   
    13   28    7 1    
    14    9    8 ar   
    15   29    8 1    
    16   30    9 1    
    17   11   10 1    
    18   31   10 1    
    19   12   11 1    
    20   32   11 1    
    21   33   11 1    
    22   13   12 1    
    23   16   12 2    
    24   14   13 1    
    25   15   14 2    
    26   17   14 1    
    27   16   15 1    
    28   34   15 1    
    29   35   16 1    
    30   18   17 1    
    31   21   17 2    
    32   19   18 2    
    33   20   19 1    
    34   22   19 1    
    35   21   20 1    
    36   36   21 1    
    37   23   22 ar   
    38   37   22 1    
    39   24   23 ar   
    40   25   23 ar   
    41   38   24 1    
    42   39   24 1    
    43   40   25 1    
    44   41   25 1    
@<TRIPOS>SUBSTRUCTURE
     1 FR01001     1 GROUP   
@<TRIPOS>SET

