#    Name: 3pba_ZXG_1_INTS_M
#    Modification time : Tue Mar 25 06:12:02 2014

@<TRIPOS>MOLECULE
3pba_ZXG_1_INTS_M
   74     0     9     0     0
SMALL
NO_CHARGES


@<TRIPOS>ATOM
      1 CA         18.2695   16.4405    8.2310 C.3       3 GLC5        0.0000 
      2 CA         18.2510   17.7820    9.8560 C.3       9 GLL5        0.0000 
      3 CA         18.2880   15.0990    6.6060 C.3       6 GLP5        0.0000 
      4 CA         17.1040   18.2795    8.0265 C.3       3 GLC5        0.0000 
      5 CA         15.9570   18.7770    6.1970 C.3       6 GLP5        0.0000 
      6 CA         19.5260   16.0535   10.3225 C.3       3 GLC5        0.0000 
      7 CA         20.8010   14.3250   10.7890 C.3       6 GLP5        0.0000 
      8 CA         16.5240   14.8375    8.8095 C.3       3 GLC5        0.0000 
      9 CA         16.5820   15.9300    9.9890 C.3       9 GLL5        0.0000 
     10 CA         16.4660   13.7450    7.6300 C.3       6 GLP5        0.0000 
     11 NZ         21.1355   15.0865   16.3780 N.4       2 LYC4        0.0000 
     12 NZ         19.5000   15.8060   16.5810 N.4       8 LYL4        0.0000 
     13 NZ         22.7710   14.3670   16.1750 N.4       5 LYP4        0.0000 
     14 N          19.8340   14.9865   17.9180 N.am      1 SEC2        0.0000 
     15 N          19.5000   15.8060   16.5810 N.am      7 SEL2        0.0000 
     16 N          20.1680   14.1670   19.2550 N.am      4 SEP2        0.0000 
     17 N          12.4120   20.7510    7.7430 N.am      1 SEC2        0.0000 
     18 N          12.8200   20.9260    9.0890 N.am      7 SEL2        0.0000 
     19 N          12.0040   20.5760    6.3970 N.am      4 SEP2        0.0000 
     20 N          17.2050   17.6505   18.1890 N.am      1 SEC2        0.0000 
     21 N          18.3340   16.8460   18.3570 N.am      7 SEL2        0.0000 
     22 N          16.0760   18.4550   18.0210 N.am      4 SEP2        0.0000 
     23 N          19.2510   15.5065   18.8060 N.am      1 SEC2        0.0000 
     24 CA         16.5855   23.6060   10.7805 C.3       3 GLC5        0.0000 
     25 CA         15.5470   22.3280    9.3370 C.3       9 GLL5        0.0000 
     26 CA         17.6240   24.8840   12.2240 C.3       6 GLP5        0.0000 
     27 CA         11.4730   19.1490   11.1840 C.3       3 GLC5        0.0000 
     28 CA         11.7130   18.0760    9.3970 C.3       9 GLL5        0.0000 
     29 CA         11.2330   20.2220   12.9710 C.3       6 GLP5        0.0000 
     30 CA         11.7810   16.0220    9.4320 C.3       3 GLC5        0.0000 
     31 CA         11.8490   13.9680    9.4670 C.3       6 GLP5        0.0000 
     32 CA         21.7415   17.7760   13.6275 C.3       3 GLC5        0.0000 
     33 CA         20.3840   17.0690   14.5430 C.3       9 GLL5        0.0000 
     34 CA         23.0990   18.4830   12.7120 C.3       6 GLP5        0.0000 
     35 CA         21.1425   15.1225   15.2710 C.3       3 GLC5        0.0000 
     36 CA         21.9010   13.1760   15.9990 C.3       6 GLP5        0.0000 
     37 CA         14.2780   18.3750   16.6700 C.3       3 GLC5        0.0000 
     38 CA         14.5900   17.1200   15.2830 C.3       9 GLL5        0.0000 
     39 CA         13.9660   19.6300   18.0570 C.3       6 GLP5        0.0000 
     40 CA         14.7255   15.5880   16.3440 C.3       3 GLC5        0.0000 
     41 CA         14.8610   14.0560   17.4050 C.3       6 GLP5        0.0000 
     42 CA         14.3425   18.4940   13.0250 C.3       3 GLC5        0.0000 
     43 CA         16.0140   17.2150   12.8550 C.3       9 GLL5        0.0000 
     44 CA         12.6710   19.7730   13.1950 C.3       6 GLP5        0.0000 
     45 CA         14.3220   20.7145   11.6270 C.3       3 GLC5        0.0000 
     46 CA         15.1080   20.5000    9.5900 C.3       9 GLL5        0.0000 
     47 CA         13.5360   20.9290   13.6640 C.3       6 GLP5        0.0000 
     48 CA         18.5272   18.8145   11.0595 C.3       3 GLC5        0.0000 
     49 CA         16.9500   17.3100   10.5040 C.3       9 GLL5        0.0000 
     50 CA         19.4540   20.0830   11.9390 C.3       6 GLP5        0.0000 
     51 CA         13.0318   18.5430    7.7188 C.3       3 GLC5        0.0000 
     52 CA         13.5000   18.6960    9.6160 C.3       9 GLL5        0.0000 
     53 CA         13.4570   18.7000    5.9310 C.3       6 GLP5        0.0000 
     54 CA         19.2490   18.7852   13.9435 C.3       3 GLC5        0.0000 
     55 CA         18.5680   17.1220   13.9750 C.3       9 GLL5        0.0000 
     56 CA         19.0220   20.4750   13.6280 C.3       6 GLP5        0.0000 
     57 CA         14.0257   18.4530   13.9765 C.3       3 GLC5        0.0000 
     58 CA         16.1710   17.1460   14.2330 C.3       9 GLL5        0.0000 
     59 CA         17.7110   19.5110   10.9863 C.3       3 GLC5        0.0000 
     60 CA         15.8200   18.2680   10.1290 C.3       9 GLL5        0.0000 
     61 CA         15.7845   19.4160    7.9805 C.3       3 GLC5        0.0000 
     62 CA         16.1160   19.6100    9.9380 C.3       9 GLL5        0.0000 
     63 CA         13.3390   19.0115   11.4928 C.3       3 GLC5        0.0000 
     64 CA         14.5140   17.8040    9.9650 C.3       9 GLL5        0.0000 
     65 CA         15.5620   18.4065    8.1220 C.3       3 GLC5        0.0000 
     66 CA         18.6040   18.6487   12.1248 C.3       3 GLC5        0.0000 
     67 CA         17.1220   17.2400   12.0270 C.3       9 GLL5        0.0000 
     68 CA         20.3300   16.2701   12.6508 C.3       3 GLC5        0.0000 
     69 CA         18.3860   17.1890   12.5940 C.3       9 GLL5        0.0000 
     70 CA         21.7290   15.3980   11.8750 C.3       6 GLP5        0.0000 
     71 CA         15.7978   15.3377   12.6585 C.3       3 GLC5        0.0000 
     72 CA         15.5030   13.4950   11.7730 C.3       6 GLP5        0.0000 
     73 CA         17.9138   18.7993   14.0783 C.3       3 GLC5        0.0000 
     74 CA         16.2235   15.2125   11.4549 C.3       3 GLC5        0.0000 
@<TRIPOS>BOND
@<TRIPOS>SUBSTRUCTURE
     1 SEC2       14 GROUP        1 X    SEC  0     ROOT SEC X 2
     2 LYC4       11 GROUP        1 X    LYC  0     **** LYC X 4
     3 GLC5        1 GROUP        1 X    GLC  0     **** GLC X 6
     4 SEP2       16 GROUP        1 Y    SEP  0     ROOT SEP Y 9
     5 LYP4       13 GROUP        1 Y    LYP  0     **** LYP Y 11
     6 GLP5        3 GROUP        1 Y    GLP  0     **** GLP Y 13
     7 SEL2       15 GROUP        1 Z    SEL  0     ROOT SEL Z 16
     8 LYL4       12 GROUP        1 Z    LYL  0     **** LYL Z 18
     9 GLL5        2 GROUP        1 Z    GLL  0     **** GLL Z 20
@<TRIPOS>SET

