#    Name: 3pba_ZXG_1_ligand
#    Modification time : Tue Mar 25 06:12:02 2014

@<TRIPOS>MOLECULE
3pba_ZXG_1_ligand
   35    36     1     0     0
SMALL
NO_CHARGES


@<TRIPOS>ATOM
      1 CAA        18.2510   17.7820    9.8560 C.3       1 ZXG1        0.0000 
      2 CAB        16.5820   15.9300    9.9890 C.3       1 ZXG1        0.0000 
      3 OAC        19.5000   15.8060   16.5810 O.co2     1 ZXG1        0.0000 
      4 OAD        19.4480   18.2690   16.8220 O.co2     1 ZXG1        0.0000 
      5 OAE        12.8200   20.9260    9.0890 O.co2     1 ZXG1        0.0000 
      6 OAF        18.3340   16.8460   18.3570 O.co2     1 ZXG1        0.0000 
      7 BRAG       15.5470   22.3280    9.3370 Br        1 ZXG1        0.0000 
      8 BRAH       11.7130   18.0760    9.3970 Br        1 ZXG1        0.0000 
      9 BRAI       20.3840   17.0690   14.5430 Br        1 ZXG1        0.0000 
     10 BRAJ       14.5900   17.1200   15.2830 Br        1 ZXG1        0.0000 
     11 CAK        16.1160   19.6100    9.9380 C.ar      1 ZXG1        0.0000 
     12 CAL        14.5140   17.8040    9.9650 C.ar      1 ZXG1        0.0000 
     13 CAM        18.3860   17.1890   12.5940 C.ar      1 ZXG1        0.0000 
     14 CAN        16.0140   17.2150   12.8550 C.ar      1 ZXG1        0.0000 
     15 OAO        17.4440   17.0370   16.2030 O.3       1 ZXG1        0.0000 
     16 CAP        15.1080   20.5000    9.5900 C.ar      1 ZXG1        0.0000 
     17 CAQ        13.5000   18.6960    9.6160 C.ar      1 ZXG1        0.0000 
     18 CAR        18.5680   17.1220   13.9750 C.ar      1 ZXG1        0.0000 
     19 CAS        16.1710   17.1460   14.2330 C.ar      1 ZXG1        0.0000 
     20 CAT        13.8010   20.0460    9.4290 C.ar      1 ZXG1        0.0000 
     21 CAU        15.8200   18.2680   10.1290 C.ar      1 ZXG1        0.0000 
     22 CAV        17.1220   17.2400   12.0270 C.ar      1 ZXG1        0.0000 
     23 CAW        17.4400   17.1010   14.8240 C.ar      1 ZXG1        0.0000 
     24 CAX        16.9500   17.3100   10.5040 C.3       1 ZXG1        0.0000 
     25 SAY        18.6690   16.9940   16.9740 S.o2      1 ZXG1        0.0000 
     26 H          17.0813   19.9463   10.0539 H         1 ZXG1        0.0000 
     27 H          14.3009   16.8103   10.1007 H         1 ZXG1        0.0000 
     28 H          19.2230   17.2008   11.9761 H         1 ZXG1        0.0000 
     29 H          15.0660   17.2477   12.4491 H         1 ZXG1        0.0000 
     30 H          19.0121   17.1661   10.0596 H         1 ZXG1        0.0000 
     31 H          18.1730   17.8324    8.8603 H         1 ZXG1        0.0000 
     32 H          18.5164   18.6916   10.1756 H         1 ZXG1        0.0000 
     33 H          17.2913   15.2557   10.1943 H         1 ZXG1        0.0000 
     34 H          15.7326   15.5955   10.3973 H         1 ZXG1        0.0000 
     35 H          16.4520   15.9261    8.9975 H         1 ZXG1        0.0000 
@<TRIPOS>BOND
     1   24    1 1    
     2   30    1 1    
     3   31    1 1    
     4   32    1 1    
     5   24    2 1    
     6   33    2 1    
     7   34    2 1    
     8   35    2 1    
     9   25    3 ar   
    10   25    4 ar   
    11   20    5 ar   
    12   25    6 ar   
    13   16    7 1    
    14   17    8 1    
    15   18    9 1    
    16   19   10 1    
    17   16   11 ar   
    18   21   11 ar   
    19   26   11 1    
    20   17   12 ar   
    21   21   12 ar   
    22   27   12 1    
    23   18   13 ar   
    24   22   13 ar   
    25   28   13 1    
    26   19   14 ar   
    27   22   14 ar   
    28   29   14 1    
    29   23   15 1    
    30   25   15 1    
    31   20   16 ar   
    32   20   17 ar   
    33   23   18 ar   
    34   23   19 ar   
    35   24   21 1    
    36   24   22 1    
@<TRIPOS>SUBSTRUCTURE
     1 ZXG1        1 GROUP   
@<TRIPOS>SET

