#    Name: 3v8t_477_2_INTS_M
#    Modification time : Tue Mar 25 00:09:26 2014

@<TRIPOS>MOLECULE
3v8t_477_2_INTS_M
   61     0     6     0     0
SMALL
NO_CHARGES


@<TRIPOS>ATOM
      1 CA        -45.2420   14.4540   29.7625 C.3       2 GLC5        0.0000 
      2 CA        -44.5660   13.1770   30.7920 C.3       6 GLL5        0.0000 
      3 CA        -45.9180   15.7310   28.7330 C.3       4 GLP5        0.0000 
      4 CA        -41.2745   10.0145   28.4230 C.3       2 GLC5        0.0000 
      5 CA        -41.5730   10.7580   30.3730 C.3       6 GLL5        0.0000 
      6 CA        -40.9760    9.2710   26.4730 C.3       4 GLP5        0.0000 
      7 CA        -43.7365   14.3195   27.5535 C.3       2 GLC5        0.0000 
      8 CA        -42.3550   12.9260   27.6930 C.3       6 GLL5        0.0000 
      9 CA        -45.1180   15.7130   27.4140 C.3       4 GLP5        0.0000 
     10 CA        -45.1050   12.9420   23.5710 C.3       2 GLC5        0.0000 
     11 CA        -43.9340   11.5120   24.6430 C.3       6 GLL5        0.0000 
     12 CA        -46.2760   14.3720   22.4990 C.3       4 GLP5        0.0000 
     13 O         -44.5795    8.7690   26.6780 O.2       1 ALC1        0.0000 
     14 O         -44.6460    9.9860   26.0130 O.2       5 ALL1        0.0000 
     15 O         -44.5130    7.5520   27.3430 O.2       3 ALP1        0.0000 
     16 CA        -44.9355    7.7035   24.3475 C.3       2 GLC5        0.0000 
     17 CA        -45.3190    9.7240   23.7080 C.3       6 GLL5        0.0000 
     18 CA        -44.5520    5.6830   24.9870 C.3       4 GLP5        0.0000 
     19 CA        -47.4600   10.0745   21.7965 C.3       2 GLC5        0.0000 
     20 CA        -46.1710    9.3750   20.3770 C.3       6 GLL5        0.0000 
     21 CA        -48.7490   10.7740   23.2160 C.3       4 GLP5        0.0000 
     22 CA        -47.6735    9.1260   19.3565 C.3       2 GLC5        0.0000 
     23 CA        -49.1760    8.8770   18.3360 C.3       4 GLP5        0.0000 
     24 CA        -43.3550    9.8130   21.7360 C.3       2 GLC5        0.0000 
     25 CA        -44.6920   11.1630   21.2160 C.3       6 GLL5        0.0000 
     26 CA        -42.0180    8.4630   22.2560 C.3       4 GLP5        0.0000 
     27 CA        -47.3360   10.3075   18.9075 C.3       2 GLC5        0.0000 
     28 CA        -45.4670   10.4250   19.9330 C.3       6 GLL5        0.0000 
     29 CA        -49.2050   10.1900   17.8820 C.3       4 GLP5        0.0000 
     30 CA        -46.9860    9.7305   16.7405 C.3       2 GLC5        0.0000 
     31 CA        -45.8680    9.9050   17.6400 C.3       6 GLL5        0.0000 
     32 CA        -48.1040    9.5560   15.8410 C.3       4 GLP5        0.0000 
     33 CA        -45.6335   13.7125   19.4045 C.3       2 GLC5        0.0000 
     34 CA        -46.1110   12.0590   18.3180 C.3       6 GLL5        0.0000 
     35 CA        -45.1560   15.3660   20.4910 C.3       4 GLP5        0.0000 
     36 CA        -45.5237   11.2435   30.0170 C.3       2 GLC5        0.0000 
     37 CA        -46.9090    9.9390   29.1680 C.3       4 GLP5        0.0000 
     38 CA        -41.1360    8.8460   30.3123 C.3       2 GLC5        0.0000 
     39 CA        -40.9380    6.9440   29.5240 C.3       4 GLP5        0.0000 
     40 CA        -45.0968   12.2652   26.9123 C.3       2 GLC5        0.0000 
     41 CA        -43.6190   10.9060   28.0900 C.3       6 GLL5        0.0000 
     42 CA        -46.4060   13.6480   26.4120 C.3       4 GLP5        0.0000 
     43 CA        -41.7475   11.0840   26.7435 C.3       2 GLC5        0.0000 
     44 CA        -42.6830   12.8680   26.3350 C.3       6 GLL5        0.0000 
     45 CA        -44.7407   12.9957   26.2530 C.3       2 GLC5        0.0000 
     46 CA        -45.3492   12.2990   25.5515 C.3       2 GLC5        0.0000 
     47 CA        -43.1553    9.7065   23.4735 C.3       2 GLC5        0.0000 
     48 CA        -42.2825   10.2069   27.0036 C.3       2 GLC5        0.0000 
     49 CA        -43.9560   10.8590   26.7350 C.3       6 GLL5        0.0000 
     50 CA        -42.5760   10.1489   25.7333 C.3       2 GLC5        0.0000 
     51 CA        -44.6510   10.3880   24.7390 C.3       6 GLL5        0.0000 
     52 CA        -43.6608    9.1860   22.6485 C.3       2 GLC5        0.0000 
     53 CA        -44.6590    8.4730   20.4940 C.3       2 GLC5        0.0000 
     54 CA        -43.4990    7.0460   20.8330 C.3       4 GLP5        0.0000 
     55 CA        -45.6330   12.5003   22.1470 C.3       2 GLC5        0.0000 
     56 CA        -45.2880   10.0940   22.3740 C.3       6 GLL5        0.0000 
     57 CA        -46.9428   10.4245   23.2574 C.3       2 GLC5        0.0000 
     58 CA        -47.2082   11.0020   17.5168 C.3       2 GLC5        0.0000 
     59 CA        -48.6730   10.5280   16.6350 C.3       4 GLP5        0.0000 
     60 CA        -46.1878   12.5740   17.1579 C.3       2 GLC5        0.0000 
     61 CA        -46.5090   13.9190   16.1270 C.3       4 GLP5        0.0000 
@<TRIPOS>BOND
@<TRIPOS>SUBSTRUCTURE
     1 ALC1       13 GROUP        1 X    ALC  0     ROOT ALC X 1
     2 GLC5        1 GROUP        1 X    GLC  0     **** GLC X 6
     3 ALP1       15 GROUP        1 Y    ALP  0     ROOT ALP Y 8
     4 GLP5        3 GROUP        1 Y    GLP  0     **** GLP Y 13
     5 ALL1       14 GROUP        1 Z    ALL  0     ROOT ALL Z 15
     6 GLL5        2 GROUP        1 Z    GLL  0     **** GLL Z 20
@<TRIPOS>SET

