#    Name: 3v8t_477_2_ligand
#    Modification time : Tue Mar 25 00:09:26 2014

@<TRIPOS>MOLECULE
3v8t_477_2_ligand
   45    48     1     0     0
SMALL
NO_CHARGES


@<TRIPOS>ATOM
      1 CAU       -44.5660   13.1770   30.7920 C.3       1 477701      0.0000 
      2 CAT       -43.7110   11.9190   30.9400 C.3       1 477701      0.0000 
      3 CAR       -42.4490   11.9810   30.0710 C.3       1 477701      0.0000 
      4 CAW       -41.5730   10.7580   30.3730 C.3       1 477701      0.0000 
      5 CAX       -41.0950   10.7380   31.8280 C.3       1 477701      0.0000 
      6 OAS       -41.7090   13.1710   30.3740 O.3       1 477701      0.0000 
      7 CAJ       -42.8250   11.9470   28.5770 C.ar      1 477701      0.0000 
      8 CAI       -43.6190   10.9060   28.0900 C.ar      1 477701      0.0000 
      9 CAK       -42.3550   12.9260   27.6930 C.ar      1 477701      0.0000 
     10 CAL       -42.6830   12.8680   26.3350 C.ar      1 477701      0.0000 
     11 CAG       -43.4680   11.8190   25.8530 C.ar      1 477701      0.0000 
     12 CAF       -43.9340   11.5120   24.6430 C.2       1 477701      0.0000 
     13 CAH       -43.9560   10.8590   26.7350 C.ar      1 477701      0.0000 
     14 NAE       -44.6460    9.9860   26.0130 N.pl3     1 477701      0.0000 
     15 CAD       -44.6510   10.3880   24.7390 C.2       1 477701      0.0000 
     16 CAC       -45.3190    9.7240   23.7080 C.2       1 477701      0.0000 
     17 NAB       -46.0850    8.6380   23.7900 N.pl3     1 477701      0.0000 
     18 NAA       -46.5040    8.3180   22.6670 N.2       1 477701      0.0000 
     19 CAM       -46.0850    9.1580   21.7110 C.2       1 477701      0.0000 
     20 CAQ       -46.1710    9.3750   20.3770 C.2       1 477701      0.0000 
     21 CAN       -45.2880   10.0940   22.3740 C.2       1 477701      0.0000 
     22 SAO       -44.6920   11.1630   21.2160 S.3       1 477701      0.0000 
     23 CAP       -45.4670   10.4250   19.9330 C.2       1 477701      0.0000 
     24 CAV       -45.3760   10.8930   18.4790 C.3       1 477701      0.0000 
     25 FAZ       -45.8680    9.9050   17.6400 F         1 477701      0.0000 
     26 FAY       -46.1110   12.0590   18.3180 F         1 477701      0.0000 
     27 H         -44.3009   11.0466   30.6496 H         1 477701      0.0000 
     28 H         -43.4178   11.8040   31.9861 H         1 477701      0.0000 
     29 H         -40.7040   10.7694   29.7103 H         1 477701      0.0000 
     30 H         -42.1468    9.8499   30.1717 H         1 477701      0.0000 
     31 H         -43.9549   10.1754   28.7277 H         1 477701      0.0000 
     32 H         -41.7657   13.6911   28.0452 H         1 477701      0.0000 
     33 H         -42.3470   13.5952   25.6950 H         1 477701      0.0000 
     34 H         -43.7801   12.0177   23.8278 H         1 477701      0.0000 
     35 H         -45.0805    9.1809   26.3515 H         1 477701      0.0000 
     36 H         -46.2669    8.1796   24.6641 H         1 477701      0.0000 
     37 H         -46.7233    8.7884   19.7718 H         1 477701      0.0000 
     38 H         -44.3155   11.0744   18.2837 H         1 477701      0.0000 
     39 H         -44.0652   14.0001   31.0599 H         1 477701      0.0000 
     40 H         -44.8680   13.3119   29.8483 H         1 477701      0.0000 
     41 H         -45.3881   13.1362   31.3599 H         1 477701      0.0000 
     42 H         -40.5256    9.9389   32.0209 H         1 477701      0.0000 
     43 H         -40.5506   11.5466   32.0512 H         1 477701      0.0000 
     44 H         -41.8611   10.7139   32.4703 H         1 477701      0.0000 
     45 H         -41.1316   13.7484   30.9514 H         1 477701      0.0000 
@<TRIPOS>BOND
     1    2    1 1    
     2   39    1 1    
     3   40    1 1    
     4   41    1 1    
     5    3    2 1    
     6   27    2 1    
     7   28    2 1    
     8    4    3 1    
     9    6    3 1    
    10    7    3 1    
    11    5    4 1    
    12   29    4 1    
    13   30    4 1    
    14   42    5 1    
    15   43    5 1    
    16   44    5 1    
    17   45    6 1    
    18    8    7 ar   
    19    9    7 ar   
    20   13    8 ar   
    21   31    8 1    
    22   10    9 ar   
    23   32    9 1    
    24   11   10 ar   
    25   33   10 1    
    26   12   11 1    
    27   13   11 ar   
    28   15   12 2    
    29   34   12 1    
    30   14   13 1    
    31   15   14 1    
    32   35   14 1    
    33   16   15 1    
    34   17   16 1    
    35   21   16 2    
    36   18   17 1    
    37   36   17 1    
    38   19   18 2    
    39   20   19 1    
    40   21   19 1    
    41   23   20 2    
    42   37   20 1    
    43   22   21 1    
    44   23   22 1    
    45   24   23 1    
    46   25   24 1    
    47   26   24 1    
    48   38   24 1    
@<TRIPOS>SUBSTRUCTURE
     1 477701      1 GROUP   
@<TRIPOS>SET

