#    Name: 1yon_APX_1_INTS_M
#    Modification time : Tue Mar 25 11:11:22 2014

@<TRIPOS>MOLECULE
1yon_APX_1_INTS_M
   75     0     9     0     0
SMALL
NO_CHARGES


@<TRIPOS>ATOM
      1 N          19.1610   -1.3690    6.1555 N.am      2 SEC2        0.0000 
      2 N          19.8040   -0.9490    7.3830 N.am      8 SEL2        0.0000 
      3 N          18.5180   -1.7890    4.9280 N.am      5 SEP2        0.0000 
      4 CA         19.7900   -0.1475   10.6330 C.3       3 GLC5        0.0000 
      5 CA         19.8200   -1.9210    9.5530 C.3       9 GLL5        0.0000 
      6 CA         19.7600    1.6260   11.7130 C.3       6 GLP5        0.0000 
      7 CA         21.6055   -4.3280    8.6235 C.3       3 GLC5        0.0000 
      8 CA         20.9020   -2.9240    9.8720 C.3       9 GLL5        0.0000 
      9 CA         22.3090   -5.7320    7.3750 C.3       6 GLP5        0.0000 
     10 CA         20.0720   -4.9890    9.6540 C.3       3 GLC5        0.0000 
     11 CA         20.1300   -3.3540   11.0870 C.3       9 GLL5        0.0000 
     12 CA         20.0140   -6.6240    8.2210 C.3       6 GLP5        0.0000 
     13 N          20.2840   -0.9370   13.1710 N.am      2 SEC2        0.0000 
     14 N          20.4080   -2.6290   13.4280 N.am      8 SEL2        0.0000 
     15 N          20.1600    0.7550   12.9140 N.am      5 SEP2        0.0000 
     16 O          19.4650   -2.1540   14.2085 O.2       1 ALC1        0.0000 
     17 O          20.4080   -2.6290   13.4280 O.2       7 ALL1        0.0000 
     18 O          18.5220   -1.6790   14.9890 O.2       4 ALP1        0.0000 
     19 CA         23.5280   -1.4145   13.0340 C.3       3 GLC5        0.0000 
     20 CA         22.0260   -1.9100   11.7060 C.3       9 GLL5        0.0000 
     21 CA         25.0300   -0.9190   14.3620 C.3       6 GLP5        0.0000 
     22 N          21.2440    0.1530   12.3015 N.am      2 SEC2        0.0000 
     23 N          22.3280   -0.4490   11.6890 N.am      8 SEL2        0.0000 
     24 N          16.3915   -0.2725    5.6585 N.am      2 SEC2        0.0000 
     25 N          16.9920    0.4180    6.7790 N.am      8 SEL2        0.0000 
     26 N          15.7910   -0.9630    4.5380 N.am      5 SEP2        0.0000 
     27 CA         18.1335    3.5185    9.6485 C.3       3 GLC5        0.0000 
     28 CA         16.6410    2.9860    8.4630 C.3       9 GLL5        0.0000 
     29 CA         19.6260    4.0510   10.8340 C.3       6 GLP5        0.0000 
     30 N          13.6115    5.6235   11.3585 N.am      2 SEC2        0.0000 
     31 N          14.9750    5.0030   11.2980 N.am      8 SEL2        0.0000 
     32 N          12.2480    6.2440   11.4190 N.am      5 SEP2        0.0000 
     33 O          15.8375    5.4125   12.1895 O.2       1 ALC1        0.0000 
     34 O          14.9750    5.0030   11.2980 O.2       7 ALL1        0.0000 
     35 O          16.7000    5.8220   13.0810 O.2       4 ALP1        0.0000 
     36 N          12.4845    2.6990   12.4195 N.am      2 SEC2        0.0000 
     37 N          13.9070    2.6790   12.1180 N.am      8 SEL2        0.0000 
     38 N          11.0620    2.7190   12.7210 N.am      5 SEP2        0.0000 
     39 CA         13.2265    3.0425    7.5990 C.3       3 GLC5        0.0000 
     40 CA         13.5410    3.1890    9.7540 C.3       9 GLL5        0.0000 
     41 CA         12.9120    2.8960    5.4440 C.3       6 GLP5        0.0000 
     42 CA         13.0335    5.0145    9.4445 C.3       3 GLC5        0.0000 
     43 CA         12.5260    6.8400    9.1350 C.3       6 GLP5        0.0000 
     44 CA         12.0795    2.7025    7.4045 C.3       3 GLC5        0.0000 
     45 CA         11.2470    2.5090    9.3650 C.3       9 GLL5        0.0000 
     46 CA          9.6775    4.6010    7.4325 C.3       3 GLC5        0.0000 
     47 CA          9.2640    3.8080    9.2570 C.3       9 GLL5        0.0000 
     48 CA         10.0910    5.3940    5.6080 C.3       6 GLP5        0.0000 
     49 CA         10.8950    5.3240    9.1960 C.3       3 GLC5        0.0000 
     50 CA          7.7295    4.9050    8.4215 C.3       3 GLC5        0.0000 
     51 CA          6.1950    6.0020    7.5860 C.3       6 GLP5        0.0000 
     52 CA          8.5110    2.5760    7.5535 C.3       3 GLC5        0.0000 
     53 CA          7.7580    1.3440    5.8500 C.3       6 GLP5        0.0000 
     54 N           7.3615    3.0925    8.1730 N.am      2 SEC2        0.0000 
     55 N           8.5870    2.5910    9.0370 N.am      8 SEL2        0.0000 
     56 N           6.1360    3.5940    7.3090 N.am      5 SEP2        0.0000 
     57 N          12.2925    2.2850   13.6190 N.am      2 SEC2        0.0000 
     58 N          13.5230    1.8510   14.5170 N.am      8 SEL2        0.0000 
     59 N          14.0535    1.1345   15.5075 N.am      2 SEC2        0.0000 
     60 N          14.5840    0.4180   16.4980 N.am      5 SEP2        0.0000 
     61 N          17.2160    2.0220   14.1115 N.am      2 SEC2        0.0000 
     62 N          15.9620    2.4270   13.6560 N.am      8 SEL2        0.0000 
     63 N          18.4700    1.6170   14.5670 N.am      5 SEP2        0.0000 
     64 CA         20.5248   -0.2213   11.7985 C.3       3 GLC5        0.0000 
     65 CA         20.5530   -2.2270   12.0620 C.3       9 GLL5        0.0000 
     66 CA         17.0385    5.0890   10.1090 C.3       3 GLC5        0.0000 
     67 CA         15.5120    3.7830   10.6790 C.3       9 GLL5        0.0000 
     68 CA         18.5160    6.3160   10.3010 C.3       6 GLP5        0.0000 
     69 CA         14.6800    5.7440    9.6530 C.3       3 GLC5        0.0000 
     70 CA         15.6100    3.9410    9.1550 C.3       9 GLL5        0.0000 
     71 CA         13.7990    7.6260    9.3890 C.3       6 GLP5        0.0000 
     72 CA         12.9228    3.9205   11.8643 C.3       3 GLC5        0.0000 
     73 CA         11.8110    4.9150   13.4420 C.3       6 GLP5        0.0000 
     74 CA          8.8463    1.3268    7.4543 C.3       3 GLC5        0.0000 
     75 CA         10.6120    1.2950    9.1430 C.3       9 GLL5        0.0000 
@<TRIPOS>BOND
@<TRIPOS>SUBSTRUCTURE
     1 ALC1       16 GROUP        1 X    ALC  0     ROOT ALC X 1
     2 SEC2        1 GROUP        1 X    SEC  0     **** SEC X 2
     3 GLC5        4 GROUP        1 X    GLC  0     **** GLC X 6
     4 ALP1       18 GROUP        1 Y    ALP  0     ROOT ALP Y 8
     5 SEP2        3 GROUP        1 Y    SEP  0     **** SEP Y 9
     6 GLP5        6 GROUP        1 Y    GLP  0     **** GLP Y 13
     7 ALL1       17 GROUP        1 Z    ALL  0     ROOT ALL Z 15
     8 SEL2        2 GROUP        1 Z    SEL  0     **** SEL Z 16
     9 GLL5        5 GROUP        1 Z    GLL  0     **** GLL Z 20
@<TRIPOS>SET

