#    Name: 1yon_APX_1_ligand
#    Modification time : Tue Mar 25 11:11:22 2014

@<TRIPOS>MOLECULE
1yon_APX_1_ligand
   58    61     1     0     0
SMALL
NO_CHARGES


@<TRIPOS>ATOM
      1 PM         20.0290    0.1890    8.2920 P.3       1 APX501      0.0000 
      2 O6M        21.1230    1.1800    8.1700 O.co2     1 APX501      0.0000 
      3 O7M        19.8040   -0.9490    7.3830 O.co2     1 APX501      0.0000 
      4 O3N        18.6890    0.9120    8.5990 O.3       1 APX501      0.0000 
      5 O5M        20.2770   -0.5870    9.6280 O.3       1 APX501      0.0000 
      6 C5M        19.8200   -1.9210    9.5530 C.3       1 APX501      0.0000 
      7 C4M        20.9020   -2.9240    9.8720 C.3       1 APX501      0.0000 
      8 O4M        22.2330   -2.4630   10.3750 O.3       1 APX501      0.0000 
      9 C3M        20.1300   -3.3540   11.0870 C.3       1 APX501      0.0000 
     10 O3M        20.5730   -4.6710   11.4580 O.3       1 APX501      0.0000 
     11 C2M        20.5530   -2.2270   12.0620 C.3       1 APX501      0.0000 
     12 O2M        20.4080   -2.6290   13.4280 O.3       1 APX501      0.0000 
     13 C1M        22.0260   -1.9100   11.7060 C.3       1 APX501      0.0000 
     14 O1N        22.3280   -0.4490   11.6890 O.3       1 APX501      0.0000 
     15 PA         17.1960    0.4650    8.2290 P.3       1 APX501      0.0000 
     16 O6B        16.9920    0.4180    6.7790 O.co2     1 APX501      0.0000 
     17 O7B        16.8740   -0.7520    9.0820 O.co2     1 APX501      0.0000 
     18 O5B        16.4200    1.6470    8.8870 O.3       1 APX501      0.0000 
     19 C5B        16.6410    2.9860    8.4630 C.3       1 APX501      0.0000 
     20 C4B        15.6100    3.9410    9.1550 C.3       1 APX501      0.0000 
     21 O4B        14.3420    3.5330    8.6300 O.3       1 APX501      0.0000 
     22 C3B        15.5120    3.7830   10.6790 C.3       1 APX501      0.0000 
     23 O3B        14.9750    5.0030   11.2980 O.3       1 APX501      0.0000 
     24 C2B        14.5280    2.6630   10.8190 C.3       1 APX501      0.0000 
     25 O2B        13.9070    2.6790   12.1180 O.3       1 APX501      0.0000 
     26 C1B        13.5410    3.1890    9.7540 C.3       1 APX501      0.0000 
     27 N9A        12.5280    2.2000    9.4810 N.pl3     1 APX501      0.0000 
     28 C4A        11.2470    2.5090    9.3650 C.ar      1 APX501      0.0000 
     29 N3A        10.5870    3.7060    9.4070 N.ar      1 APX501      0.0000 
     30 C2A         9.2640    3.8080    9.2570 C.ar      1 APX501      0.0000 
     31 N1A         8.5870    2.5910    9.0370 N.ar      1 APX501      0.0000 
     32 C6A         9.2570    1.3240    8.9740 C.ar      1 APX501      0.0000 
     33 C5A        10.6120    1.2950    9.1430 C.ar      1 APX501      0.0000 
     34 N7A        11.5070    0.3080    9.1030 N.2       1 APX501      0.0000 
     35 C8A        12.6890    0.8780    9.3320 C.2       1 APX501      0.0000 
     36 N6A         8.6260    0.1640    8.7590 N.3       1 APX501      0.0000 
     37 P2         14.6140    1.7960   13.3650 P.3       1 APX501      0.0000 
     38 OP1        13.5230    1.8510   14.5170 O.co2     1 APX501      0.0000 
     39 OP2        14.6920    0.3550   12.8570 O.co2     1 APX501      0.0000 
     40 OP3        15.9620    2.4270   13.6560 O.co2     1 APX501      0.0000 
     41 H          19.4267   -2.1608    8.5409 H         1 APX501      0.0000 
     42 H          18.9758   -2.1025   10.2536 H         1 APX501      0.0000 
     43 H          20.8954   -3.6953    9.2137 H         1 APX501      0.0000 
     44 H          19.1127   -3.2604   10.8851 H         1 APX501      0.0000 
     45 H          19.9705   -1.3583   11.8157 H         1 APX501      0.0000 
     46 H          22.6520   -2.4198   12.4109 H         1 APX501      0.0000 
     47 H          16.5103    3.1109    7.3841 H         1 APX501      0.0000 
     48 H          17.6368    3.3513    8.7306 H         1 APX501      0.0000 
     49 H          15.8286    4.9345    8.8950 H         1 APX501      0.0000 
     50 H          16.4399    3.4950   11.0535 H         1 APX501      0.0000 
     51 H          14.9274    1.7886   10.4963 H         1 APX501      0.0000 
     52 H          13.0985    4.0878   10.1881 H         1 APX501      0.0000 
     53 H           8.7538    4.6705    9.2921 H         1 APX501      0.0000 
     54 H          13.5451    0.4080    9.3842 H         1 APX501      0.0000 
     55 H          20.8985   -4.5789   12.3991 H         1 APX501      0.0000 
     56 H          19.5954   -2.1464   13.7548 H         1 APX501      0.0000 
     57 H          21.7298   -0.0694   10.9833 H         1 APX501      0.0000 
     58 H          15.3705    5.0228   12.2162 H         1 APX501      0.0000 
@<TRIPOS>BOND
     1    2    1 ar   
     2    3    1 ar   
     3    4    1 1    
     4    5    1 1    
     5   15    4 1    
     6    6    5 1    
     7    7    6 1    
     8   41    6 1    
     9   42    6 1    
    10    8    7 1    
    11    9    7 1    
    12   43    7 1    
    13   13    8 1    
    14   10    9 1    
    15   11    9 1    
    16   44    9 1    
    17   55   10 1    
    18   12   11 1    
    19   13   11 1    
    20   45   11 1    
    21   56   12 1    
    22   14   13 1    
    23   46   13 1    
    24   57   14 1    
    25   16   15 ar   
    26   17   15 ar   
    27   18   15 1    
    28   19   18 1    
    29   20   19 1    
    30   47   19 1    
    31   48   19 1    
    32   21   20 1    
    33   22   20 1    
    34   49   20 1    
    35   26   21 1    
    36   23   22 1    
    37   24   22 1    
    38   50   22 1    
    39   58   23 1    
    40   25   24 1    
    41   26   24 1    
    42   51   24 1    
    43   37   25 1    
    44   27   26 1    
    45   52   26 1    
    46   28   27 1    
    47   35   27 1    
    48   29   28 ar   
    49   33   28 ar   
    50   30   29 ar   
    51   31   30 ar   
    52   53   30 1    
    53   32   31 ar   
    54   33   32 ar   
    55   36   32 1    
    56   34   33 1    
    57   35   34 2    
    58   54   35 1    
    59   38   37 ar   
    60   39   37 ar   
    61   40   37 ar   
@<TRIPOS>SUBSTRUCTURE
     1 APX501      1 GROUP   
@<TRIPOS>SET

