#    Name: 1adb_CND_2_INTS_M
#    Modification time : Mon Mar 24 18:14:28 2014

@<TRIPOS>MOLECULE
1adb_CND_2_INTS_M
  107     0    15     0     0
SMALL
NO_CHARGES


@<TRIPOS>ATOM
      1 NZ        -10.2545   11.3710  -65.1045 N.4       3 LYC4        0.0000 
      2 NZ        -11.0480   10.2970  -64.5990 N.4      13 LYL4        0.0000 
      3 NZ         -8.1570   12.1950  -65.7010 N.4       8 LYP4        0.0000 
      4 N         -10.2545   11.3710  -65.1045 N.am      2 SEC2        0.0000 
      5 N         -11.0480   10.2970  -64.5990 N.am     12 SEL2        0.0000 
      6 N          -9.4610   12.4450  -65.6100 N.am      7 SEP2        0.0000 
      7 CA        -14.0020   10.2885  -59.4310 C.3       5 GLC5        0.0000 
      8 CA        -13.0070   11.1700  -61.0130 C.3      15 GLL5        0.0000 
      9 CA        -14.9970    9.4070  -57.8490 C.3      10 GLP5        0.0000 
     10 N         -15.2635   13.3260  -62.8945 N.am      2 SEC2        0.0000 
     11 N         -14.5970   12.7770  -61.8030 N.am     12 SEL2        0.0000 
     12 N         -15.9300   13.8750  -63.9860 N.am      7 SEP2        0.0000 
     13 O         -15.3210   12.9690  -60.6270 O.2       1 ALC1        0.0000 
     14 O         -14.5970   12.7770  -61.8030 O.2      11 ALL1        0.0000 
     15 O         -16.0450   13.1610  -59.4510 O.2       6 ALP1        0.0000 
     16 O         -14.3115   14.8680  -59.6900 O.2       1 ALC1        0.0000 
     17 O         -13.3680   14.6710  -60.5810 O.2      11 ALL1        0.0000 
     18 O         -15.2550   15.0650  -58.7990 O.2       6 ALP1        0.0000 
     19 O         -14.7065   13.9160  -60.0160 O.2       1 ALC1        0.0000 
     20 CA        -13.8140   11.0960  -58.6065 C.3       5 GLC5        0.0000 
     21 CA        -12.6310   12.7850  -59.3640 C.3      15 GLL5        0.0000 
     22 CA        -12.0285   11.1430  -58.1860 C.3       5 GLC5        0.0000 
     23 CA        -11.4260    9.5010  -57.0080 C.3      10 GLP5        0.0000 
     24 CA        -14.4200   13.9780  -55.5430 C.3       5 GLC5        0.0000 
     25 CA        -12.5020   13.5500  -54.9810 C.3      15 GLL5        0.0000 
     26 CA        -16.3380   14.4060  -56.1050 C.3      10 GLP5        0.0000 
     27 CA        -12.5175   15.4760  -54.9740 C.3       5 GLC5        0.0000 
     28 CA        -12.5330   17.4020  -54.9670 C.3      10 GLP5        0.0000 
     29 CA        -11.9715   11.8805  -55.3320 C.3       5 GLC5        0.0000 
     30 CA        -11.4410   10.2110  -55.6830 C.3      10 GLP5        0.0000 
     31 CA        -12.0690   15.3510  -57.3140 C.3       5 GLC5        0.0000 
     32 CA        -11.7560   13.4240  -57.1600 C.3      15 GLL5        0.0000 
     33 CA        -12.3820   17.2780  -57.4680 C.3      10 GLP5        0.0000 
     34 NZ        -13.1905    6.0570  -67.1605 N.4       3 LYC4        0.0000 
     35 NZ        -12.1180    6.1910  -66.2180 N.4      13 LYL4        0.0000 
     36 NZ        -14.3060    4.7640  -68.7400 N.4       8 LYP4        0.0000 
     37 N         -10.8280    6.2320  -67.0605 N.am      2 SEC2        0.0000 
     38 N         -12.1180    6.1910  -66.2180 N.am     12 SEL2        0.0000 
     39 N          -9.5380    6.2730  -67.9030 N.am      7 SEP2        0.0000 
     40 N         -13.1905    6.0570  -67.1605 N.am      2 SEC2        0.0000 
     41 N         -14.2630    5.9230  -68.1030 N.am      7 SEP2        0.0000 
     42 N         -15.0170    5.6530  -64.3555 N.am      2 SEC2        0.0000 
     43 N         -13.7890    6.5110  -64.2900 N.am     12 SEL2        0.0000 
     44 N         -16.2450    4.7950  -64.4210 N.am      7 SEP2        0.0000 
     45 CA        -10.0615    6.7250  -64.1315 C.3       5 GLC5        0.0000 
     46 CA        -11.2470    6.0670  -62.4280 C.3      15 GLL5        0.0000 
     47 CA         -8.8760    7.3830  -65.8350 C.3      10 GLP5        0.0000 
     48 CA        -12.8435    5.5540  -60.9530 C.3       5 GLC5        0.0000 
     49 CA        -14.4400    5.0410  -59.4780 C.3      10 GLP5        0.0000 
     50 CA        -10.0545    6.6660  -60.1295 C.3       5 GLC5        0.0000 
     51 CA        -10.0010    5.4050  -61.7910 C.3      15 GLL5        0.0000 
     52 CA        -10.1080    7.9270  -58.4680 C.3      10 GLP5        0.0000 
     53 CA         -9.3800    4.3175  -60.2710 C.3       5 GLC5        0.0000 
     54 CA         -8.7590    3.2300  -58.7510 C.3      10 GLP5        0.0000 
     55 N          -6.5225    5.9765  -62.6210 N.am      2 SEC2        0.0000 
     56 N          -7.5650    5.5440  -61.6870 N.am     12 SEL2        0.0000 
     57 N          -5.4800    6.4090  -63.5550 N.am      7 SEP2        0.0000 
     58 N          -7.1065    4.3670  -60.7830 N.am      2 SEC2        0.0000 
     59 N          -6.6480    3.1900  -59.8790 N.am      7 SEP2        0.0000 
     60 O          -7.8975    6.4985  -60.7780 O.2       1 ALC1        0.0000 
     61 O          -7.5650    5.5440  -61.6870 O.2      11 ALL1        0.0000 
     62 O          -8.2300    7.4530  -59.8690 O.2       6 ALP1        0.0000 
     63 N          -7.2415    3.2835  -64.9775 N.am      2 SEC2        0.0000 
     64 N          -7.2980    4.2790  -63.8720 N.am     12 SEL2        0.0000 
     65 N          -7.1850    2.2880  -66.0830 N.am      7 SEP2        0.0000 
     66 CA         -8.9560    3.3105  -60.6965 C.3       5 GLC5        0.0000 
     67 CA         -9.1530    3.3910  -62.6420 C.3      15 GLL5        0.0000 
     68 N         -10.3055   -4.1010  -62.9345 N.am      2 SEC2        0.0000 
     69 N          -9.6790   -2.7210  -63.1190 N.am     12 SEL2        0.0000 
     70 N         -10.9320   -5.4810  -62.7500 N.am      7 SEP2        0.0000 
     71 O          -9.5430   -0.4460  -60.2605 O.2       1 ALC1        0.0000 
     72 O          -9.3520   -1.6580  -61.1260 O.2      11 ALL1        0.0000 
     73 O          -9.7340    0.7660  -59.3950 O.2       6 ALP1        0.0000 
     74 O          -9.6880   -2.7860  -60.1025 O.2       1 ALC1        0.0000 
     75 O         -10.0240   -3.9140  -59.0790 O.2       6 ALP1        0.0000 
     76 CA        -10.9595   -0.4005  -66.1965 C.3       5 GLC5        0.0000 
     77 CA         -9.8730   -0.3660  -64.6320 C.3      15 GLL5        0.0000 
     78 CA        -12.0460   -0.4350  -67.7610 C.3      10 GLP5        0.0000 
     79 CA        -11.4610   -1.5410  -64.7210 C.3       5 GLC5        0.0000 
     80 CA        -13.0490   -2.7160  -64.8100 C.3      10 GLP5        0.0000 
     81 Zn        -10.0730    0.8130  -66.4585 Zn        4 ZIC7        0.0000 
     82 Zn        -10.0000    0.8080  -65.3620 Zn       14 ZIL7        0.0000 
     83 Zn        -10.1460    0.8180  -67.5550 Zn        9 ZIP7        0.0000 
     84 CA        -10.2870    2.5955  -66.1895 C.3       5 GLC5        0.0000 
     85 CA         -9.8060    2.0280  -64.6610 C.3      15 GLL5        0.0000 
     86 CA        -10.7680    3.1630  -67.7180 C.3      10 GLP5        0.0000 
     87 CA         -8.0535    2.2880  -65.9060 C.3       5 GLC5        0.0000 
     88 CA         -6.3010    2.5480  -67.1510 C.3      10 GLP5        0.0000 
     89 CA        -11.8670    2.5160  -64.6570 C.3       5 GLC5        0.0000 
     90 CA        -13.9280    3.0040  -64.6530 C.3      10 GLP5        0.0000 
     91 CA        -10.6397   15.6792  -56.7737 C.3       5 GLC5        0.0000 
     92 CA        -10.5210   13.8210  -56.7050 C.3      15 GLL5        0.0000 
     93 CA        -10.8840   17.4270  -57.5040 C.3      10 GLP5        0.0000 
     94 CA         -8.6077   12.8882  -55.8792 C.3       5 GLC5        0.0000 
     95 CA         -6.8200   11.8450  -55.7150 C.3      10 GLP5        0.0000 
     96 CA        -11.2584   11.9444  -56.1424 C.3       5 GLC5        0.0000 
     97 CA        -12.3040    4.8580  -62.2592 C.3       5 GLC5        0.0000 
     98 CA        -13.9840    3.9800  -62.4090 C.3      10 GLP5        0.0000 
     99 CA         -8.7745    6.2312  -64.4382 C.3       5 GLC5        0.0000 
    100 CA         -8.6940    5.6530  -62.5460 C.3      15 GLL5        0.0000 
    101 CA         -6.7295    5.3473  -63.7388 C.3       5 GLC5        0.0000 
    102 CA         -8.6520    4.5060  -63.5370 C.3      15 GLL5        0.0000 
    103 CA         -4.7860    5.6150  -64.4360 C.3      10 GLP5        0.0000 
    104 CA         -7.4107    2.6867  -62.5727 C.3       5 GLC5        0.0000 
    105 CA         -5.9190    1.4250  -62.0560 C.3      10 GLP5        0.0000 
    106 CA         -7.6839    1.0039  -62.5810 C.3       5 GLC5        0.0000 
    107 CA         -9.4240    2.0910  -63.3180 C.3      15 GLL5        0.0000 
@<TRIPOS>BOND
@<TRIPOS>SUBSTRUCTURE
     1 ALC1       13 GROUP        1 X    ALC  0     ROOT ALC X 1
     2 SEC2        4 GROUP        1 X    SEC  0     **** SEC X 2
     3 LYC4        1 GROUP        1 X    LYC  0     **** LYC X 4
     4 ZIC7       81 GROUP        1 X    ZIC  0     **** ZIC X 5
     5 GLC5        7 GROUP        1 X    GLC  0     **** GLC X 6
     6 ALP1       15 GROUP        1 Y    ALP  0     ROOT ALP Y 8
     7 SEP2        6 GROUP        1 Y    SEP  0     **** SEP Y 9
     8 LYP4        3 GROUP        1 Y    LYP  0     **** LYP Y 11
     9 ZIP7       83 GROUP        1 Y    ZIP  0     **** ZIP Y 12
    10 GLP5        9 GROUP        1 Y    GLP  0     **** GLP Y 13
    11 ALL1       14 GROUP        1 Z    ALL  0     ROOT ALL Z 15
    12 SEL2        5 GROUP        1 Z    SEL  0     **** SEL Z 16
    13 LYL4        2 GROUP        1 Z    LYL  0     **** LYL Z 18
    14 ZIL7       82 GROUP        1 Z    ZIL  0     **** ZIL Z 19
    15 GLL5        8 GROUP        1 Z    GLL  0     **** GLL Z 20
@<TRIPOS>SET

