#    Name: 1adb_CND_2_ligand
#    Modification time : Mon Mar 24 18:14:29 2014

@<TRIPOS>MOLECULE
1adb_CND_2_ligand
   69    73     1     0     0
SMALL
NO_CHARGES


@<TRIPOS>ATOM
      1 PA        -12.4070    9.6780  -64.4870 P.3       1 CND377      0.0000 
      2 O1A       -11.0480   10.2970  -64.5990 O.co2     1 CND377      0.0000 
      3 O2A       -13.5140    9.9090  -65.4830 O.co2     1 CND377      0.0000 
      4 O5B       -12.9900   10.0290  -63.0230 O.3       1 CND377      0.0000 
      5 C5B       -12.1060   10.3840  -61.9350 C.3       1 CND377      0.0000 
      6 C4B       -13.0070   11.1700  -61.0130 C.3       1 CND377      0.0000 
      7 O4B       -12.4790   11.3910  -59.7100 O.3       1 CND377      0.0000 
      8 C3B       -13.1950   12.5330  -61.6350 C.3       1 CND377      0.0000 
      9 O3B       -14.5970   12.7770  -61.8030 O.3       1 CND377      0.0000 
     10 C2B       -12.5550   13.5180  -60.6730 C.3       1 CND377      0.0000 
     11 O2B       -13.3680   14.6710  -60.5810 O.3       1 CND377      0.0000 
     12 C1B       -12.6310   12.7850  -59.3640 C.3       1 CND377      0.0000 
     13 N9A       -11.5680   13.2420  -58.4560 N.pl3     1 CND377      0.0000 
     14 C8A       -10.2860   13.5710  -58.7610 C.2       1 CND377      0.0000 
     15 N7A        -9.6120   13.9920  -57.6690 N.2       1 CND377      0.0000 
     16 C5A       -10.5210   13.8210  -56.7050 C.ar      1 CND377      0.0000 
     17 C6A       -10.2700   14.0420  -55.3820 C.ar      1 CND377      0.0000 
     18 N6A        -9.0570   14.3830  -55.0140 N.pl3     1 CND377      0.0000 
     19 N1A       -11.2900   13.9000  -54.5500 N.ar      1 CND377      0.0000 
     20 C2A       -12.5020   13.5500  -54.9810 C.ar      1 CND377      0.0000 
     21 N3A       -12.7580   13.3260  -56.2730 N.ar      1 CND377      0.0000 
     22 C4A       -11.7560   13.4240  -57.1600 C.ar      1 CND377      0.0000 
     23 O3        -11.9350    8.1080  -64.4860 O.3       1 CND377      0.0000 
     24 PN        -12.3720    6.5950  -64.7800 P.3       1 CND377      0.0000 
     25 O1N       -12.1180    6.1910  -66.2180 O.co2     1 CND377      0.0000 
     26 O2N       -13.7890    6.5110  -64.2900 O.co2     1 CND377      0.0000 
     27 O5D       -11.3420    5.7980  -63.8250 O.3       1 CND377      0.0000 
     28 C5D       -11.2470    6.0670  -62.4280 C.3       1 CND377      0.0000 
     29 C4D       -10.0010    5.4050  -61.7910 C.3       1 CND377      0.0000 
     30 O4D       -10.2740    4.0170  -61.9550 O.3       1 CND377      0.0000 
     31 C3D        -8.6940    5.6530  -62.5460 C.3       1 CND377      0.0000 
     32 O3D        -7.5650    5.5440  -61.6870 O.3       1 CND377      0.0000 
     33 C2D        -8.6520    4.5060  -63.5370 C.3       1 CND377      0.0000 
     34 O2D        -7.2980    4.2790  -63.8720 O.3       1 CND377      0.0000 
     35 C1D        -9.1530    3.3910  -62.6420 C.3       1 CND377      0.0000 
     36 C1N        -9.4240    2.0910  -63.3180 C.ar      1 CND377      0.0000 
     37 C2N        -9.2910    0.9020  -62.6100 C.ar      1 CND377      0.0000 
     38 C3N        -9.5400   -0.3310  -63.2480 C.ar      1 CND377      0.0000 
     39 C7N        -9.5280   -1.6770  -62.4660 C.2       1 CND377      0.0000 
     40 O7N        -9.6790   -2.7210  -63.1190 O.2       1 CND377      0.0000 
     41 N7N        -9.3520   -1.6580  -61.1260 N.am      1 CND377      0.0000 
     42 C4N        -9.8730   -0.3660  -64.6320 C.ar      1 CND377      0.0000 
     43 N5N       -10.0000    0.8080  -65.3620 N.ar      1 CND377      0.0000 
     44 C6N        -9.8060    2.0280  -64.6610 C.ar      1 CND377      0.0000 
     45 H         -11.3082   11.0141  -62.2639 H         1 CND377      0.0000 
     46 H         -11.7476    9.5196  -61.4192 H         1 CND377      0.0000 
     47 H         -13.9760   10.7010  -60.9805 H         1 CND377      0.0000 
     48 H         -12.6608   12.5560  -62.5576 H         1 CND377      0.0000 
     49 H         -11.5735   13.6824  -60.9358 H         1 CND377      0.0000 
     50 H         -13.5999   12.9596  -58.9401 H         1 CND377      0.0000 
     51 H          -9.9014   13.5091  -59.6636 H         1 CND377      0.0000 
     52 H          -8.3833   14.4722  -55.7476 H         1 CND377      0.0000 
     53 H          -8.9174   14.5224  -54.0336 H         1 CND377      0.0000 
     54 H         -13.2888   13.4457  -54.2770 H         1 CND377      0.0000 
     55 H         -12.1281    5.6940  -61.8765 H         1 CND377      0.0000 
     56 H         -11.1783    7.1497  -62.2214 H         1 CND377      0.0000 
     57 H          -9.9247    5.6686  -60.7913 H         1 CND377      0.0000 
     58 H          -8.7618    6.5529  -63.0707 H         1 CND377      0.0000 
     59 H          -9.3001    4.6767  -64.2981 H         1 CND377      0.0000 
     60 H          -8.3458    3.2496  -61.8792 H         1 CND377      0.0000 
     61 H          -9.0123    0.9118  -61.6234 H         1 CND377      0.0000 
     62 H          -9.3242   -2.5492  -60.6732 H         1 CND377      0.0000 
     63 H          -9.2652   -0.7545  -60.7064 H         1 CND377      0.0000 
     64 H         -10.0181   -1.2797  -65.0819 H         1 CND377      0.0000 
     65 H          -9.9593    2.9206  -65.1852 H         1 CND377      0.0000 
     66 H         -14.9601   12.8496  -60.8741 H         1 CND377      0.0000 
     67 H         -13.9519   14.5129  -59.7848 H         1 CND377      0.0000 
     68 H          -7.4387    6.4608  -61.3081 H         1 CND377      0.0000 
     69 H          -6.7966    4.3937  -63.0144 H         1 CND377      0.0000 
@<TRIPOS>BOND
     1    2    1 ar   
     2    3    1 ar   
     3    4    1 1    
     4   23    1 1    
     5    5    4 1    
     6    6    5 1    
     7   45    5 1    
     8   46    5 1    
     9    7    6 1    
    10    8    6 1    
    11   47    6 1    
    12   12    7 1    
    13    9    8 1    
    14   10    8 1    
    15   48    8 1    
    16   66    9 1    
    17   11   10 1    
    18   12   10 1    
    19   49   10 1    
    20   67   11 1    
    21   13   12 1    
    22   50   12 1    
    23   14   13 1    
    24   22   13 1    
    25   15   14 2    
    26   51   14 1    
    27   16   15 1    
    28   17   16 ar   
    29   22   16 ar   
    30   18   17 1    
    31   19   17 ar   
    32   52   18 1    
    33   53   18 1    
    34   20   19 ar   
    35   21   20 ar   
    36   54   20 1    
    37   22   21 ar   
    38   24   23 1    
    39   25   24 ar   
    40   26   24 ar   
    41   27   24 1    
    42   28   27 1    
    43   29   28 1    
    44   55   28 1    
    45   56   28 1    
    46   30   29 1    
    47   31   29 1    
    48   57   29 1    
    49   35   30 1    
    50   32   31 1    
    51   33   31 1    
    52   58   31 1    
    53   68   32 1    
    54   34   33 1    
    55   35   33 1    
    56   59   33 1    
    57   69   34 1    
    58   36   35 1    
    59   60   35 1    
    60   37   36 ar   
    61   44   36 ar   
    62   38   37 ar   
    63   61   37 1    
    64   39   38 1    
    65   42   38 ar   
    66   40   39 2    
    67   41   39 am   
    68   62   41 1    
    69   63   41 1    
    70   43   42 ar   
    71   64   42 1    
    72   44   43 ar   
    73   65   44 1    
@<TRIPOS>SUBSTRUCTURE
     1 CND377      1 GROUP   
@<TRIPOS>SET

