#    Name: 1z95_198_1_INTS_M
#    Modification time : Mon Apr  7 16:56:04 2014

@<TRIPOS>MOLECULE
1z95_198_1_INTS_M
   93     0     9     0     0
SMALL
NO_CHARGES


@<TRIPOS>ATOM
      1 CA         26.9885    0.6060   11.8505 C.3       3 GLC5        0.0000 
      2 CA         29.1270    0.4660   12.5160 C.3       9 GLL5        0.0000 
      3 CA         24.8500    0.7460   11.1850 C.3       6 GLP5        0.0000 
      4 CA         27.8125   -1.0880   12.3520 C.3       3 GLC5        0.0000 
      5 CA         26.4980   -2.6420   12.1880 C.3       6 GLP5        0.0000 
      6 CA         29.6620   -1.4180   12.9920 C.3       3 GLC5        0.0000 
      7 CA         30.1970   -3.3020   13.4680 C.3       6 GLP5        0.0000 
      8 CA         30.4850   -1.5975   12.1600 C.3       3 GLC5        0.0000 
      9 CA         30.7730    0.1070   10.8520 C.3       9 GLL5        0.0000 
     10 CA         28.5570    0.0475    8.6225 C.3       3 GLC5        0.0000 
     11 CA         30.4160    0.9480    8.6230 C.3       9 GLL5        0.0000 
     12 CA         26.6980   -0.8530    8.6220 C.3       6 GLP5        0.0000 
     13 CA         28.4775   -0.5430    7.2920 C.3       3 GLC5        0.0000 
     14 CA         30.2570   -0.2330    5.9620 C.3       9 GLL5        0.0000 
     15 CA         30.5545   -1.7545    6.8090 C.3       3 GLC5        0.0000 
     16 CA         30.8520   -3.2760    7.6560 C.3       6 GLP5        0.0000 
     17 CA         29.7310    1.2255    2.6560 C.3       3 GLC5        0.0000 
     18 CA         29.6810    0.2030    4.6120 C.3       9 GLL5        0.0000 
     19 CA         29.7810    2.2480    0.7000 C.3       6 GLP5        0.0000 
     20 N          31.7625    0.4005    3.5900 N.am      2 SEC2        0.0000 
     21 N          30.6660    0.9590    3.9030 N.am      8 SEL2        0.0000 
     22 N          32.8590   -0.1580    3.2770 N.am      5 SEP2        0.0000 
     23 CA         29.6955   -1.9610    2.0475 C.3       3 GLC5        0.0000 
     24 CA         29.2760   -1.0210    3.7880 C.3       9 GLL5        0.0000 
     25 CA         30.1150   -2.9010    0.3070 C.3       6 GLP5        0.0000 
     26 CA         28.7095   -2.9545    2.8830 C.3       3 GLC5        0.0000 
     27 CA         28.1430   -4.8880    1.9780 C.3       6 GLP5        0.0000 
     28 O          29.8435    3.1850    3.7915 O.2       1 ALC1        0.0000 
     29 O          28.6250    2.3570    4.4660 O.2       7 ALL1        0.0000 
     30 O          31.0620    4.0130    3.1170 O.2       4 ALP1        0.0000 
     31 CA         29.3115    6.0355    3.2510 C.3       3 GLC5        0.0000 
     32 CA         28.0950    4.6030    4.1420 C.3       9 GLL5        0.0000 
     33 CA         30.5280    7.4680    2.3600 C.3       6 GLP5        0.0000 
     34 CA         29.6240    5.2260    5.3075 C.3       3 GLC5        0.0000 
     35 CA         31.1530    5.8490    6.4730 C.3       6 GLP5        0.0000 
     36 CA         27.6690    6.8680    2.9025 C.3       3 GLC5        0.0000 
     37 CA         27.1500    5.6220    4.0830 C.3       9 GLL5        0.0000 
     38 CA         28.1880    8.1140    1.7220 C.3       6 GLP5        0.0000 
     39 CA         26.5605    7.3065    3.0230 C.3       3 GLC5        0.0000 
     40 CA         24.9330    6.4990    4.3240 C.3       9 GLL5        0.0000 
     41 CA         24.8030    6.3025    6.4255 C.3       3 GLC5        0.0000 
     42 CA         24.6730    6.1060    8.5270 C.3       6 GLP5        0.0000 
     43 CA         23.0880    6.8245    3.4970 C.3       3 GLC5        0.0000 
     44 CA         21.2430    7.1500    2.6700 C.3       6 GLP5        0.0000 
     45 CA         24.5840    5.7475    2.6710 C.3       3 GLC5        0.0000 
     46 CA         24.2350    4.9960    1.0180 C.3       6 GLP5        0.0000 
     47 N          25.4560    8.5785    4.4955 N.am      2 SEC2        0.0000 
     48 N          24.2430    7.4020    4.2630 N.am      8 SEL2        0.0000 
     49 N          26.6690    9.7550    4.7280 N.am      5 SEP2        0.0000 
     50 N          23.6705    8.7640    3.9920 N.am      2 SEC2        0.0000 
     51 N          23.0980   10.1260    3.7210 N.am      5 SEP2        0.0000 
     52 CA         24.6130    2.2080    7.4225 C.3       3 GLC5        0.0000 
     53 CA         23.7140    3.8720    6.3790 C.3       9 GLL5        0.0000 
     54 CA         25.5120    0.5440    8.4660 C.3       6 GLP5        0.0000 
     55 CA         21.7570    4.5965    5.9785 C.3       3 GLC5        0.0000 
     56 CA         23.0300    4.4730    4.4370 C.3       9 GLL5        0.0000 
     57 CA         20.4840    4.7200    7.5200 C.3       6 GLP5        0.0000 
     58 CA         21.9565    5.9220    4.2870 C.3       3 GLC5        0.0000 
     59 CA         20.8830    7.3710    4.1370 C.3       6 GLP5        0.0000 
     60 CA         21.6475    2.9550    3.9510 C.3       3 GLC5        0.0000 
     61 CA         20.2650    1.4370    3.4650 C.3       6 GLP5        0.0000 
     62 CA         21.9525    1.9555    4.1070 C.3       3 GLC5        0.0000 
     63 CA         23.6400    2.4740    4.7490 C.3       9 GLL5        0.0000 
     64 CA         23.0485    0.9695    5.5390 C.3       3 GLC5        0.0000 
     65 CA         22.4570   -0.5350    6.3290 C.3       6 GLP5        0.0000 
     66 CA         29.4258    3.0090   10.8400 C.3       3 GLC5        0.0000 
     67 CA         29.1850    1.4670    9.0150 C.3       9 GLL5        0.0000 
     68 CA         29.8850    4.6310   12.0090 C.3       6 GLP5        0.0000 
     69 CA         28.1738    2.8720    9.1825 C.3       3 GLC5        0.0000 
     70 CA         27.3810    4.3570    8.6940 C.3       6 GLP5        0.0000 
     71 CA         29.6100    2.5885   11.9445 C.3       3 GLC5        0.0000 
     72 CA         29.5430    0.6260   11.2440 C.3       9 GLL5        0.0000 
     73 CA         27.9764    0.0768    9.5397 C.3       3 GLC5        0.0000 
     74 CA         31.1900    0.3568   12.9275 C.3       3 GLC5        0.0000 
     75 CA         32.3260    0.3870   14.4890 C.3       6 GLP5        0.0000 
     76 CA         32.1367   -1.1525   10.1643 C.3       3 GLC5        0.0000 
     77 CA         33.2820   -2.4930   10.1320 C.3       6 GLP5        0.0000 
     78 CA         30.8325   -1.3337    8.3690 C.3       3 GLC5        0.0000 
     79 CA         31.2100    0.2690    9.5410 C.3       9 GLL5        0.0000 
     80 CA         27.2085    3.7810    6.6813 C.3       3 GLC5        0.0000 
     81 CA         27.7060    3.3220    4.5180 C.3       9 GLL5        0.0000 
     82 CA         27.6001    4.1731    2.2753 C.3       3 GLC5        0.0000 
     83 CA         27.6750    3.5540    0.3440 C.3       6 GLP5        0.0000 
     84 CA         26.9477    5.7877    6.2942 C.3       3 GLC5        0.0000 
     85 CA         27.4130    6.0780    8.3530 C.3       6 GLP5        0.0000 
     86 CA         24.4307    4.9986    7.0870 C.3       3 GLC5        0.0000 
     87 CA         25.3950    4.0900    4.7550 C.3       9 GLL5        0.0000 
     88 CA         22.3741    2.6934    6.4280 C.3       3 GLC5        0.0000 
     89 CA         21.0170    2.2490    7.6180 C.3       6 GLP5        0.0000 
     90 CA         23.5966    3.5180    2.9143 C.3       3 GLC5        0.0000 
     91 CA         23.6330    3.7480    1.0760 C.3       6 GLP5        0.0000 
     92 CA         31.4437    2.0379    9.4664 C.3       3 GLC5        0.0000 
     93 CA         32.5460    3.3980    9.2610 C.3       6 GLP5        0.0000 
@<TRIPOS>BOND
@<TRIPOS>SUBSTRUCTURE
     1 ALC1       28 GROUP        1 X    ALC  0     ROOT ALC X 1
     2 SEC2       20 GROUP        1 X    SEC  0     **** SEC X 2
     3 GLC5        1 GROUP        1 X    GLC  0     **** GLC X 6
     4 ALP1       30 GROUP        1 Y    ALP  0     ROOT ALP Y 8
     5 SEP2       22 GROUP        1 Y    SEP  0     **** SEP Y 9
     6 GLP5        3 GROUP        1 Y    GLP  0     **** GLP Y 13
     7 ALL1       29 GROUP        1 Z    ALL  0     ROOT ALL Z 15
     8 SEL2       21 GROUP        1 Z    SEL  0     **** SEL Z 16
     9 GLL5        2 GROUP        1 Z    GLL  0     **** GLL Z 20
@<TRIPOS>SET

