#    Name: 1z95_198_1_ligand
#    Modification time : Mon Apr  7 16:56:04 2014

@<TRIPOS>MOLECULE
1z95_198_1_ligand
   43    44     1     0     0
SMALL
NO_CHARGES


@<TRIPOS>ATOM
      1 C16        29.1850    1.4670    9.0150 C.ar      1 198501      0.0000 
      2 C17        28.7480    1.3070   10.3270 C.ar      1 198501      0.0000 
      3 C18        29.5430    0.6260   11.2440 C.ar      1 198501      0.0000 
      4 F18        29.1270    0.4660   12.5160 F         1 198501      0.0000 
      5 C19        30.7730    0.1070   10.8520 C.ar      1 198501      0.0000 
      6 C20        31.2100    0.2690    9.5410 C.ar      1 198501      0.0000 
      7 C15        30.4160    0.9480    8.6230 C.ar      1 198501      0.0000 
      8 S14        30.9610    1.1230    6.9710 S.o2      1 198501      0.0000 
      9 O14        30.5010    2.4500    6.4430 O.2       1 198501      0.0000 
     10 O15        32.4580    1.0530    6.9270 O.2       1 198501      0.0000 
     11 C13        30.2570   -0.2330    5.9620 C.3       1 198501      0.0000 
     12 C11        29.6810    0.2030    4.6120 C.3       1 198501      0.0000 
     13 O11        30.6660    0.9590    3.9030 O.3       1 198501      0.0000 
     14 C12        29.2760   -1.0210    3.7880 C.3       1 198501      0.0000 
     15 C10        28.4490    1.0870    4.8230 C.2       1 198501      0.0000 
     16 O10        27.4440    0.6410    5.3760 O.2       1 198501      0.0000 
     17 N9         28.6250    2.3570    4.4660 N.am      1 198501      0.0000 
     18 C1         27.7060    3.3220    4.5180 C.ar      1 198501      0.0000 
     19 C2         26.3660    3.0880    4.8190 C.ar      1 198501      0.0000 
     20 C6         28.0950    4.6030    4.1420 C.ar      1 198501      0.0000 
     21 C5         27.1500    5.6220    4.0830 C.ar      1 198501      0.0000 
     22 C4         25.8150    5.3730    4.3880 C.ar      1 198501      0.0000 
     23 C8         24.9330    6.4990    4.3240 C.1       1 198501      0.0000 
     24 N8         24.2430    7.4020    4.2630 N.1       1 198501      0.0000 
     25 C3         25.3950    4.0900    4.7550 C.ar      1 198501      0.0000 
     26 C7         23.9310    3.7310    5.0750 C.3       1 198501      0.0000 
     27 F7B        23.7140    3.8720    6.3790 F         1 198501      0.0000 
     28 F7C        23.0300    4.4730    4.4370 F         1 198501      0.0000 
     29 F7A        23.6400    2.4740    4.7490 F         1 198501      0.0000 
     30 H          28.5989    1.9683    8.3356 H         1 198501      0.0000 
     31 H          27.8409    1.6908   10.6174 H         1 198501      0.0000 
     32 H          31.3586   -0.3959   11.5307 H         1 198501      0.0000 
     33 H          32.1192   -0.1130    9.2514 H         1 198501      0.0000 
     34 H          29.5176   -0.6483    6.6322 H         1 198501      0.0000 
     35 H          31.0987   -0.9054    5.8745 H         1 198501      0.0000 
     36 H          29.6112    2.6352    4.0968 H         1 198501      0.0000 
     37 H          26.0745    2.1258    5.1039 H         1 198501      0.0000 
     38 H          29.0758    4.7961    3.9088 H         1 198501      0.0000 
     39 H          27.4420    6.5747    3.8097 H         1 198501      0.0000 
     40 H          30.0554   -1.6205    3.6059 H         1 198501      0.0000 
     41 H          28.5854   -1.5721    4.2564 H         1 198501      0.0000 
     42 H          28.8923   -0.7617    2.9017 H         1 198501      0.0000 
     43 H          30.9180    1.7017    4.5233 H         1 198501      0.0000 
@<TRIPOS>BOND
     1    2    1 ar   
     2    7    1 ar   
     3   30    1 1    
     4    3    2 ar   
     5   31    2 1    
     6    4    3 1    
     7    5    3 ar   
     8    6    5 ar   
     9   32    5 1    
    10    7    6 ar   
    11   33    6 1    
    12    8    7 1    
    13    9    8 2    
    14   10    8 2    
    15   11    8 1    
    16   12   11 1    
    17   34   11 1    
    18   35   11 1    
    19   13   12 1    
    20   14   12 1    
    21   15   12 1    
    22   43   13 1    
    23   40   14 1    
    24   41   14 1    
    25   42   14 1    
    26   16   15 2    
    27   17   15 am   
    28   18   17 1    
    29   36   17 1    
    30   19   18 ar   
    31   20   18 ar   
    32   25   19 ar   
    33   37   19 1    
    34   21   20 ar   
    35   38   20 1    
    36   22   21 ar   
    37   39   21 1    
    38   23   22 1    
    39   25   22 ar   
    40   24   23 3    
    41   26   25 1    
    42   27   26 1    
    43   28   26 1    
    44   29   26 1    
@<TRIPOS>SUBSTRUCTURE
     1 198501      1 GROUP   
@<TRIPOS>SET

