#    Name: 1jik_545_1_INTS_M
#    Modification time : Tue Mar 25 08:56:24 2014

@<TRIPOS>MOLECULE
1jik_545_1_INTS_M
   71     0    12     0     0
SMALL
NO_CHARGES


@<TRIPOS>ATOM
      1 CA         26.6835    7.2625   80.5110 C.3       4 GLC5        0.0000 
      2 CA         27.3720    7.5900   82.5420 C.3      12 GLL5        0.0000 
      3 CA         25.9950    6.9350   78.4800 C.3       8 GLP5        0.0000 
      4 CA         24.8560    7.1135   83.9280 C.3       4 GLC5        0.0000 
      5 CA         26.7350    8.0810   83.6600 C.3      12 GLL5        0.0000 
      6 CA         22.9770    6.1460   84.1960 C.3       8 GLP5        0.0000 
      7 CA         32.0555    8.5685   83.0830 C.3       4 GLC5        0.0000 
      8 CA         30.4440    9.8760   82.3550 C.3      12 GLL5        0.0000 
      9 CA         33.6670    7.2610   83.8110 C.3       8 GLP5        0.0000 
     10 CA         31.6320    8.9635   80.6910 C.3       4 GLC5        0.0000 
     11 CA         32.8200    8.0510   79.0270 C.3       8 GLP5        0.0000 
     12 N          34.2170    8.7855   81.7375 N.am      2 SEC2        0.0000 
     13 N          34.9510   10.0780   82.1100 N.am     10 SEL2        0.0000 
     14 N          33.4830    7.4930   81.3650 N.am      6 SEP2        0.0000 
     15 CA         34.7625    8.2875   82.5600 C.3       4 GLC5        0.0000 
     16 CA         35.8580    9.3140   81.3090 C.3      12 GLL5        0.0000 
     17 CA         34.5710    8.1370   80.6560 C.3       4 GLC5        0.0000 
     18 CA         33.2840    6.9600   80.0030 C.3       8 GLP5        0.0000 
     19 CA         39.9375    7.0030   83.7585 C.3       4 GLC5        0.0000 
     20 CA         39.1660    8.1520   82.4920 C.3      12 GLL5        0.0000 
     21 CA         40.7090    5.8540   85.0250 C.3       8 GLP5        0.0000 
     22 OD1        29.7790   13.1420   80.5185 O.co2     3 ASC3        0.0000 
     23 OD1        29.6360   11.8760   81.1150 O.co2    11 ASL3        0.0000 
     24 OD1        29.9220   14.4080   79.9220 O.co2     7 ASP3        0.0000 
     25 O          29.7790   13.1420   80.5185 O.2       1 ALC1        0.0000 
     26 O          29.6360   11.8760   81.1150 O.2       9 ALL1        0.0000 
     27 O          29.9220   14.4080   79.9220 O.2       5 ALP1        0.0000 
     28 O          29.0960   11.0610   80.1600 O.2       1 ALC1        0.0000 
     29 O          28.5560   10.2460   79.2050 O.2       5 ALP1        0.0000 
     30 CA         33.0410   11.9515   88.3245 C.3       4 GLC5        0.0000 
     31 CA         33.7660   13.3850   86.9440 C.3      12 GLL5        0.0000 
     32 CA         32.3160   10.5180   89.7050 C.3       8 GLP5        0.0000 
     33 CA         32.3560   13.8870   88.2375 C.3       4 GLC5        0.0000 
     34 CA         30.9460   14.3890   89.5310 C.3       8 GLP5        0.0000 
     35 CA         31.9970   14.2515   85.9530 C.3       4 GLC5        0.0000 
     36 CA         30.2280   15.1180   84.9620 C.3       8 GLP5        0.0000 
     37 O          32.4640   10.4370   85.6335 O.2       1 ALC1        0.0000 
     38 O          32.4910   11.7960   85.7130 O.2       9 ALL1        0.0000 
     39 O          32.4370    9.0780   85.5540 O.2       5 ALP1        0.0000 
     40 N          33.8495   16.1320   84.5475 N.am      2 SEC2        0.0000 
     41 N          34.5180   15.4250   85.8330 N.am     10 SEL2        0.0000 
     42 N          33.1810   16.8390   83.2620 N.am      6 SEP2        0.0000 
     43 CA         36.6620   10.6380   87.6920 C.3       4 GLC5        0.0000 
     44 CA         36.6950   12.5440   87.1440 C.3      12 GLL5        0.0000 
     45 CA         36.6290    8.7320   88.2400 C.3       8 GLP5        0.0000 
     46 O          25.0335    6.8685   83.2085 O.2       1 ALC1        0.0000 
     47 O          25.6380    7.4810   84.1120 O.2       9 ALL1        0.0000 
     48 O          24.4290    6.2560   82.3050 O.2       5 ALP1        0.0000 
     49 CA         28.2040    6.3462   83.3607 C.3       4 GLC5        0.0000 
     50 CA         28.3980    4.8720   84.3320 C.3       8 GLP5        0.0000 
     51 CA         25.9172    9.3727   83.1690 C.3       4 GLC5        0.0000 
     52 CA         24.7810   10.9100   83.2370 C.3       8 GLP5        0.0000 
     53 CA         27.6945    6.7535   84.1650 C.3       4 GLC5        0.0000 
     54 CA         26.3085   10.2012   83.6745 C.3       4 GLC5        0.0000 
     55 CA         27.2470    9.1890   84.3360 C.3      12 GLL5        0.0000 
     56 CA         29.8242    8.4840   84.8720 C.3       4 GLC5        0.0000 
     57 CA         28.4250    9.7960   83.8880 C.3      12 GLL5        0.0000 
     58 CA         30.8680    7.4550   86.3810 C.3       8 GLP5        0.0000 
     59 CA         38.6130    6.5975   81.8162 C.3       4 GLC5        0.0000 
     60 CA         38.4570    4.8110   81.7670 C.3       8 GLP5        0.0000 
     61 CA         39.7966    9.7019   82.8879 C.3       4 GLC5        0.0000 
     62 CA         41.0800   10.7400   83.8260 C.3       8 GLP5        0.0000 
     63 CA         35.3570   13.8798   88.5598 C.3       4 GLC5        0.0000 
     64 CA         34.8900   14.4120   86.7870 C.3      12 GLL5        0.0000 
     65 CA         36.3860   13.8610   90.2540 C.3       8 GLP5        0.0000 
     66 CA         33.6980   15.6373   87.7248 C.3       4 GLC5        0.0000 
     67 CA         33.0680   17.3760   88.5840 C.3       8 GLP5        0.0000 
     68 CA         38.3095   12.7200   86.9112 C.3       4 GLC5        0.0000 
     69 CA         36.1290   13.7140   86.2410 C.3      12 GLL5        0.0000 
     70 CA         40.2070   12.3110   87.1300 C.3       8 GLP5        0.0000 
     71 CA         36.3990   13.4950   88.4733 C.3       4 GLC5        0.0000 
@<TRIPOS>BOND
@<TRIPOS>SUBSTRUCTURE
     1 ALC1       25 GROUP        1 X    ALC  0     ROOT ALC X 1
     2 SEC2       12 GROUP        1 X    SEC  0     **** SEC X 2
     3 ASC3       22 GROUP        1 X    ASC  0     **** ASC X 3
     4 GLC5        1 GROUP        1 X    GLC  0     **** GLC X 6
     5 ALP1       27 GROUP        1 Y    ALP  0     ROOT ALP Y 8
     6 SEP2       14 GROUP        1 Y    SEP  0     **** SEP Y 9
     7 ASP3       24 GROUP        1 Y    ASP  0     **** ASP Y 10
     8 GLP5        3 GROUP        1 Y    GLP  0     **** GLP Y 13
     9 ALL1       26 GROUP        1 Z    ALL  0     ROOT ALL Z 15
    10 SEL2       13 GROUP        1 Z    SEL  0     **** SEL Z 16
    11 ASL3       23 GROUP        1 Z    ASL  0     **** ASL Z 17
    12 GLL5        2 GROUP        1 Z    GLL  0     **** GLL Z 20
@<TRIPOS>SET

