#    Name: 1jik_545_1_ligand
#    Modification time : Tue Mar 25 08:56:24 2014

@<TRIPOS>MOLECULE
1jik_545_1_ligand
   67    68     1     0     0
SMALL
NO_CHARGES


@<TRIPOS>ATOM
      1 C8         28.6480    8.0510   82.2370 C.ar      1 545421      0.0000 
      2 C7         27.3720    7.5900   82.5420 C.ar      1 545421      0.0000 
      3 C12        26.7350    8.0810   83.6600 C.ar      1 545421      0.0000 
      4 C11        27.2470    9.1890   84.3360 C.ar      1 545421      0.0000 
      5 C10        28.4250    9.7960   83.8880 C.ar      1 545421      0.0000 
      6 C9         29.1360    9.2300   82.8380 C.ar      1 545421      0.0000 
      7 C14        30.4440    9.8760   82.3550 C.3       1 545421      0.0000 
      8 C15        30.5200   11.4120   82.2250 C.3       1 545421      0.0000 
      9 C17        31.9920   11.8960   82.0800 C.2       1 545421      0.0000 
     10 N19        32.8000   11.5510   83.0610 N.am      1 545421      0.0000 
     11 C20        34.1700   12.1250   83.2640 C.3       1 545421      0.0000 
     12 C21        35.1970   11.4330   82.3150 C.2       1 545421      0.0000 
     13 O23        34.9510   10.0780   82.1100 O.3       1 545421      0.0000 
     14 C24        35.8580    9.3140   81.3090 C.3       1 545421      0.0000 
     15 C25        37.3490    9.7350   81.5760 C.3       1 545421      0.0000 
     16 C26        38.3720    8.6160   81.2390 C.3       1 545421      0.0000 
     17 C27        39.1660    8.1520   82.4920 C.3       1 545421      0.0000 
     18 O18        32.3720   12.5200   81.1050 O.2       1 545421      0.0000 
     19 N16        29.6360   11.8760   81.1150 N.4       1 545421      0.0000 
     20 O22        36.1330   12.0620   81.8280 O.2       1 545421      0.0000 
     21 C6         34.6420   12.2770   84.7310 C.3       1 545421      0.0000 
     22 N5         33.4670   12.7200   85.6200 N.3       1 545421      0.0000 
     23 C4         33.7660   13.3850   86.9440 C.3       1 545421      0.0000 
     24 C3         34.8900   14.4120   86.7870 C.3       1 545421      0.0000 
     25 C2         36.1290   13.7140   86.2410 C.3       1 545421      0.0000 
     26 C1         35.8240   13.2950   84.7890 C.3       1 545421      0.0000 
     27 O28        32.4910   11.7960   85.7130 O.3       1 545421      0.0000 
     28 O32        34.5180   15.4250   85.8330 O.3       1 545421      0.0000 
     29 O29        37.1270   14.7170   86.2250 O.3       1 545421      0.0000 
     30 C30        36.6950   12.5440   87.1440 C.3       1 545421      0.0000 
     31 O31        36.7400   11.2750   86.4370 O.3       1 545421      0.0000 
     32 O64        36.9660   12.7130   84.2000 O.3       1 545421      0.0000 
     33 O13        25.6380    7.4810   84.1120 O.3       1 545421      0.0000 
     34 H          29.2417    7.5395   81.5755 H         1 545421      0.0000 
     35 H          26.9186    6.8967   81.9413 H         1 545421      0.0000 
     36 H          26.7618    9.5590   85.1601 H         1 545421      0.0000 
     37 H          28.7586   10.6559   84.3364 H         1 545421      0.0000 
     38 H          30.7109    9.4293   81.3593 H         1 545421      0.0000 
     39 H          31.2736    9.5433   83.0357 H         1 545421      0.0000 
     40 H          30.1367   11.8265   83.1747 H         1 545421      0.0000 
     41 H          32.5348   10.8326   83.7869 H         1 545421      0.0000 
     42 H          34.1123   13.2044   82.8528 H         1 545421      0.0000 
     43 H          35.6808    9.4525   80.2342 H         1 545421      0.0000 
     44 H          35.7934    8.2383   81.5198 H         1 545421      0.0000 
     45 H          37.4473   10.0039   82.6296 H         1 545421      0.0000 
     46 H          37.5712   10.6166   80.9715 H         1 545421      0.0000 
     47 H          39.0736    8.9905   80.4955 H         1 545421      0.0000 
     48 H          37.8386    7.7627   80.8234 H         1 545421      0.0000 
     49 H          35.0021   11.3214   85.0696 H         1 545421      0.0000 
     50 H          34.0714   12.6346   87.6716 H         1 545421      0.0000 
     51 H          32.8740   13.8901   87.3115 H         1 545421      0.0000 
     52 H          35.1230   14.8281   87.7361 H         1 545421      0.0000 
     53 H          35.5065   14.1801   84.2477 H         1 545421      0.0000 
     54 H          36.0502   12.4925   88.0318 H         1 545421      0.0000 
     55 H          37.6928   12.8595   87.4776 H         1 545421      0.0000 
     56 H          39.8260    7.4346   82.2688 H         1 545421      0.0000 
     57 H          39.6791    8.9039   82.9059 H         1 545421      0.0000 
     58 H          38.5621    7.7849   83.1994 H         1 545421      0.0000 
     59 H          29.5527   11.1879   80.3942 H         1 545421      0.0000 
     60 H          28.7107   12.0772   81.4365 H         1 545421      0.0000 
     61 H          29.9849   12.7091   80.6859 H         1 545421      0.0000 
     62 H          32.9452   10.9218   85.5413 H         1 545421      0.0000 
     63 H          33.7854   15.9414   86.2765 H         1 545421      0.0000 
     64 H          36.6712   15.5297   85.8620 H         1 545421      0.0000 
     65 H          36.8444   11.5195   85.4730 H         1 545421      0.0000 
     66 H          36.8744   12.8968   83.2214 H         1 545421      0.0000 
     67 H          25.5009    6.6997   83.5031 H         1 545421      0.0000 
@<TRIPOS>BOND
     1    2    1 ar   
     2    6    1 ar   
     3   34    1 1    
     4    3    2 ar   
     5   35    2 1    
     6    4    3 ar   
     7   33    3 1    
     8    5    4 ar   
     9   36    4 1    
    10    6    5 ar   
    11   37    5 1    
    12    7    6 1    
    13    8    7 1    
    14   38    7 1    
    15   39    7 1    
    16    9    8 1    
    17   19    8 1    
    18   40    8 1    
    19   10    9 am   
    20   18    9 2    
    21   11   10 1    
    22   41   10 1    
    23   12   11 1    
    24   21   11 1    
    25   42   11 1    
    26   13   12 1    
    27   20   12 2    
    28   14   13 1    
    29   15   14 1    
    30   43   14 1    
    31   44   14 1    
    32   16   15 1    
    33   45   15 1    
    34   46   15 1    
    35   17   16 1    
    36   47   16 1    
    37   48   16 1    
    38   56   17 1    
    39   57   17 1    
    40   58   17 1    
    41   59   19 1    
    42   60   19 1    
    43   61   19 1    
    44   22   21 1    
    45   26   21 1    
    46   49   21 1    
    47   23   22 1    
    48   27   22 1    
    49   24   23 1    
    50   50   23 1    
    51   51   23 1    
    52   25   24 1    
    53   28   24 1    
    54   52   24 1    
    55   26   25 1    
    56   29   25 1    
    57   30   25 1    
    58   32   26 1    
    59   53   26 1    
    60   62   27 1    
    61   63   28 1    
    62   64   29 1    
    63   31   30 1    
    64   54   30 1    
    65   55   30 1    
    66   65   31 1    
    67   66   32 1    
    68   67   33 1    
@<TRIPOS>SUBSTRUCTURE
     1 545421      1 GROUP   
@<TRIPOS>SET

