#    Name: 2uxh_QUE_1_INTS_M
#    Modification time : Tue Mar 25 00:24:56 2014

@<TRIPOS>MOLECULE
2uxh_QUE_1_INTS_M
   53     0     9     0     0
SMALL
NO_CHARGES


@<TRIPOS>ATOM
      1 CA         18.0725   41.3525   -3.1230 C.3       3 GLC5        0.0000 
      2 CA         17.4500   39.3530   -2.9610 C.3       9 GLL5        0.0000 
      3 CA         18.6950   43.3520   -3.2850 C.3       6 GLP5        0.0000 
      4 CA         13.8355   37.0815   -2.4890 C.3       3 GLC5        0.0000 
      5 CA         15.8370   37.0910   -2.5320 C.3       9 GLL5        0.0000 
      6 CA         11.8340   37.0720   -2.4460 C.3       6 GLP5        0.0000 
      7 CA         15.3090   38.0580    0.2650 C.3       3 GLC5        0.0000 
      8 CA         15.5940   38.2690   -1.8260 C.3       9 GLL5        0.0000 
      9 CA         15.0240   37.8470    2.3560 C.3       6 GLP5        0.0000 
     10 CA         13.6830   38.1465   -1.5355 C.3       3 GLC5        0.0000 
     11 CA         11.7720   38.0240   -1.2450 C.3       6 GLP5        0.0000 
     12 CA         13.3760   34.0610   -5.7630 C.3       3 GLC5        0.0000 
     13 CA         14.3720   32.9100   -4.1380 C.3       9 GLL5        0.0000 
     14 CA         12.3800   35.2120   -7.3880 C.3       6 GLP5        0.0000 
     15 O          12.4695   29.7395   -5.1535 O.2       1 ALC1        0.0000 
     16 O          13.5480   30.9600   -5.2290 O.2       7 ALL1        0.0000 
     17 O          11.3910   28.5190   -5.0780 O.2       4 ALP1        0.0000 
     18 N          11.1385   29.5910   -1.8175 N.am      2 SEC2        0.0000 
     19 N          12.0920   30.3380   -2.9470 N.am      8 SEL2        0.0000 
     20 N          10.1850   28.8440   -0.6880 N.am      5 SEP2        0.0000 
     21 O          11.7415   29.4285   -4.0125 O.2       1 ALC1        0.0000 
     22 O          12.0920   30.3380   -2.9470 O.2       7 ALL1        0.0000 
     23 CA         15.7430   39.2147   -4.1262 C.3       3 GLC5        0.0000 
     24 CA         17.7020   38.1920   -3.6580 C.3       9 GLL5        0.0000 
     25 CA         13.9100   39.6570   -4.9430 C.3       6 GLP5        0.0000 
     26 CA         18.7900   38.9108   -2.0713 C.3       3 GLC5        0.0000 
     27 CA         20.0040   39.0490   -0.8330 C.3       6 GLP5        0.0000 
     28 CA         17.2385   37.9633   -5.5088 C.3       3 GLC5        0.0000 
     29 CA         17.1680   38.2990   -7.4710 C.3       6 GLP5        0.0000 
     30 CA         15.1433   38.3670   -3.9632 C.3       3 GLC5        0.0000 
     31 CA         16.9160   37.0630   -3.4350 C.3       9 GLL5        0.0000 
     32 CA         17.7782   37.6010   -1.4788 C.3       3 GLC5        0.0000 
     33 CA         19.1800   38.1250    0.0260 C.3       6 GLP5        0.0000 
     34 CA         17.9095   35.9766   -2.2451 C.3       3 GLC5        0.0000 
     35 CA         19.2460   34.5940   -1.4510 C.3       6 GLP5        0.0000 
     36 CA         14.9552   39.2422   -3.4407 C.3       3 GLC5        0.0000 
     37 CA         17.5903   38.4763   -0.9563 C.3       3 GLC5        0.0000 
     38 CA         15.6053   40.4283   -0.7808 C.3       3 GLC5        0.0000 
     39 CA         16.4070   39.3860   -2.0510 C.3       9 GLL5        0.0000 
     40 CA         15.2100   42.0290    0.3770 C.3       6 GLP5        0.0000 
     41 CA         17.5185   34.7275   -2.5100 C.3       3 GLC5        0.0000 
     42 CA         15.2630   34.8830   -3.1070 C.3       9 GLL5        0.0000 
     43 CA         12.2200   33.6780   -3.0730 C.3       3 GLC5        0.0000 
     44 CA         14.4560   33.7500   -3.0170 C.3       9 GLL5        0.0000 
     45 CA         10.3470   33.7530   -3.7050 C.3       6 GLP5        0.0000 
     46 CA         13.0644   35.4791   -2.4548 C.3       3 GLC5        0.0000 
     47 CA         13.7300   33.4560   -1.8650 C.3       9 GLL5        0.0000 
     48 CA         11.9030   33.5712   -0.4300 C.3       3 GLC5        0.0000 
     49 CA         10.4680   34.2630    1.0020 C.3       6 GLP5        0.0000 
     50 CA         11.6277   32.8170   -3.0625 C.3       3 GLC5        0.0000 
     51 CA         12.9460   32.3030   -1.8590 C.3       9 GLL5        0.0000 
     52 CA         12.1655   33.0445   -3.9198 C.3       3 GLC5        0.0000 
     53 CA         13.5960   31.7620   -4.1310 C.3       9 GLL5        0.0000 
@<TRIPOS>BOND
@<TRIPOS>SUBSTRUCTURE
     1 ALC1       15 GROUP        1 X    ALC  0     ROOT ALC X 1
     2 SEC2       18 GROUP        1 X    SEC  0     **** SEC X 2
     3 GLC5        1 GROUP        1 X    GLC  0     **** GLC X 6
     4 ALP1       17 GROUP        1 Y    ALP  0     ROOT ALP Y 8
     5 SEP2       20 GROUP        1 Y    SEP  0     **** SEP Y 9
     6 GLP5        3 GROUP        1 Y    GLP  0     **** GLP Y 13
     7 ALL1       16 GROUP        1 Z    ALL  0     ROOT ALL Z 15
     8 SEL2       19 GROUP        1 Z    SEL  0     **** SEL Z 16
     9 GLL5        2 GROUP        1 Z    GLL  0     **** GLL Z 20
@<TRIPOS>SET

