#    Name: 2uxh_QUE_1_ligand
#    Modification time : Tue Mar 25 00:24:56 2014

@<TRIPOS>MOLECULE
2uxh_QUE_1_ligand
   32    34     1     0     0
SMALL
NO_CHARGES


@<TRIPOS>ATOM
      1 C1         17.4500   39.3530   -2.9610 C.ar      1 QUE1211     0.0000 
      2 C2         17.7020   38.1920   -3.6580 C.ar      1 QUE1211     0.0000 
      3 C3         16.9160   37.0630   -3.4350 C.ar      1 QUE1211     0.0000 
      4 C4         15.8370   37.0910   -2.5320 C.ar      1 QUE1211     0.0000 
      5 C5         15.5940   38.2690   -1.8260 C.ar      1 QUE1211     0.0000 
      6 C6         16.4070   39.3860   -2.0510 C.ar      1 QUE1211     0.0000 
      7 C9         17.1640   35.9230   -4.1770 C.2       1 QUE1211     0.0000 
      8 C10        16.3190   34.8390   -4.0310 C.2       1 QUE1211     0.0000 
      9 C11        15.2630   34.8830   -3.1070 C.2       1 QUE1211     0.0000 
     10 C14        14.4560   33.7500   -3.0170 C.ar      1 QUE1211     0.0000 
     11 C15        13.7300   33.4560   -1.8650 C.ar      1 QUE1211     0.0000 
     12 C16        12.9460   32.3030   -1.8590 C.ar      1 QUE1211     0.0000 
     13 C17        12.8710   31.4590   -2.9810 C.ar      1 QUE1211     0.0000 
     14 C18        13.5960   31.7620   -4.1310 C.ar      1 QUE1211     0.0000 
     15 C19        14.3720   32.9100   -4.1380 C.ar      1 QUE1211     0.0000 
     16 O12        15.0210   35.9950   -2.3200 O.3       1 QUE1211     0.0000 
     17 O13        18.0820   35.8870   -4.9940 O.2       1 QUE1211     0.0000 
     18 O23        13.5480   30.9600   -5.2290 O.3       1 QUE1211     0.0000 
     19 O24        12.0920   30.3380   -2.9470 O.3       1 QUE1211     0.0000 
     20 O27        16.5470   33.7290   -4.7900 O.3       1 QUE1211     0.0000 
     21 O29        16.2110   40.5520   -1.3990 O.3       1 QUE1211     0.0000 
     22 O30        18.7320   38.1800   -4.5390 O.3       1 QUE1211     0.0000 
     23 H          18.0284   40.1881   -3.1125 H         1 QUE1211     0.0000 
     24 H          14.8293   38.3186   -1.1496 H         1 QUE1211     0.0000 
     25 H          13.7702   34.0628   -1.0536 H         1 QUE1211     0.0000 
     26 H          12.4043   32.0581   -1.0106 H         1 QUE1211     0.0000 
     27 H          14.9083   33.1619   -4.9915 H         1 QUE1211     0.0000 
     28 H          12.7208   30.4104   -5.1120 H         1 QUE1211     0.0000 
     29 H          12.0510   30.0226   -3.8951 H         1 QUE1211     0.0000 
     30 H          17.4063   33.9138   -5.2669 H         1 QUE1211     0.0000 
     31 H          17.0944   40.7672   -0.9826 H         1 QUE1211     0.0000 
     32 H          18.9878   37.2171   -4.6248 H         1 QUE1211     0.0000 
@<TRIPOS>BOND
     1    2    1 ar   
     2    6    1 ar   
     3   23    1 1    
     4    3    2 ar   
     5   22    2 1    
     6    4    3 ar   
     7    7    3 1    
     8    5    4 ar   
     9   16    4 1    
    10    6    5 ar   
    11   24    5 1    
    12   21    6 1    
    13    8    7 1    
    14   17    7 2    
    15    9    8 2    
    16   20    8 1    
    17   10    9 1    
    18   16    9 1    
    19   11   10 ar   
    20   15   10 ar   
    21   12   11 ar   
    22   25   11 1    
    23   13   12 ar   
    24   26   12 1    
    25   14   13 ar   
    26   19   13 1    
    27   15   14 ar   
    28   18   14 1    
    29   27   15 1    
    30   28   18 1    
    31   29   19 1    
    32   30   20 1    
    33   31   21 1    
    34   32   22 1    
@<TRIPOS>SUBSTRUCTURE
     1 QUE1211     1 GROUP   
@<TRIPOS>SET

