#    Name: 1s9d_AFB_1_INTS_M
#    Modification time : Tue Mar 25 02:06:54 2014

@<TRIPOS>MOLECULE
1s9d_AFB_1_INTS_M
   84     0     6     0     0
SMALL
NO_CHARGES


@<TRIPOS>ATOM
      1 N          28.3475   10.9315   25.4145 N.am      1 SEC2        0.0000 
      2 N          28.6040    9.4920   25.9500 N.am      5 SEL2        0.0000 
      3 N          28.0910   12.3710   24.8790 N.am      3 SEP2        0.0000 
      4 N          28.3650    8.3170   25.3245 N.am      1 SEC2        0.0000 
      5 N          28.1260    7.1420   24.6990 N.am      3 SEP2        0.0000 
      6 CA         28.8205   11.5200   26.0685 C.3       2 GLC5        0.0000 
      7 CA         28.3140   10.1080   27.3490 C.3       6 GLL5        0.0000 
      8 CA         29.3270   12.9320   24.7880 C.3       4 GLP5        0.0000 
      9 CA         26.3470    7.8530   27.3680 C.3       2 GLC5        0.0000 
     10 CA         26.8220    9.8440   27.5380 C.3       6 GLL5        0.0000 
     11 CA         25.8720    5.8620   27.1980 C.3       4 GLP5        0.0000 
     12 CA         26.9895   11.5995   26.3305 C.3       2 GLC5        0.0000 
     13 CA         27.1570   13.3550   25.1230 C.3       4 GLP5        0.0000 
     14 CA         26.3975    8.9485   25.7615 C.3       2 GLC5        0.0000 
     15 CA         25.9730    8.0530   23.9850 C.3       4 GLP5        0.0000 
     16 CA         25.0055    9.3875   27.1825 C.3       2 GLC5        0.0000 
     17 CA         23.1890    8.9310   26.8270 C.3       4 GLP5        0.0000 
     18 CA         30.8010    8.5725   29.0565 C.3       2 GLC5        0.0000 
     19 CA         28.9300    9.1740   28.2920 C.3       6 GLL5        0.0000 
     20 CA         32.6720    7.9710   29.8210 C.3       4 GLP5        0.0000 
     21 CA         29.9200    7.5795   27.4275 C.3       2 GLC5        0.0000 
     22 CA         30.9100    5.9850   26.5630 C.3       4 GLP5        0.0000 
     23 CA         25.1165   10.9365   27.9515 C.3       2 GLC5        0.0000 
     24 CA         26.8360   10.2210   29.0770 C.3       6 GLL5        0.0000 
     25 CA         23.3970   11.6520   26.8260 C.3       4 GLP5        0.0000 
     26 CA         25.3755    7.8100   29.6335 C.3       2 GLC5        0.0000 
     27 CA         25.4980    9.7260   29.7630 C.3       6 GLL5        0.0000 
     28 CA         25.2530    5.8940   29.5040 C.3       4 GLP5        0.0000 
     29 CA         24.3435    9.3285   28.2950 C.3       2 GLC5        0.0000 
     30 CA         25.8960   12.3380   30.1240 C.3       2 GLC5        0.0000 
     31 CA         24.5890   10.5920   30.3680 C.3       6 GLL5        0.0000 
     32 CA         27.2030   14.0840   29.8800 C.3       4 GLP5        0.0000 
     33 CA         23.9930   11.1220   28.5970 C.3       2 GLC5        0.0000 
     34 CA         22.6765    9.4880   29.2980 C.3       2 GLC5        0.0000 
     35 CA         23.4900    9.9400   30.9870 C.3       6 GLL5        0.0000 
     36 CA         21.8630    9.0360   27.6090 C.3       4 GLP5        0.0000 
     37 CA         22.9755    8.0080   31.7890 C.3       2 GLC5        0.0000 
     38 CA         22.4610    6.0760   32.5910 C.3       4 GLP5        0.0000 
     39 CA         21.4910   10.0910   31.8965 C.3       2 GLC5        0.0000 
     40 CA         19.4920   10.2420   32.8060 C.3       4 GLP5        0.0000 
     41 CA         23.5860    8.2375   33.0730 C.3       2 GLC5        0.0000 
     42 CA         23.6040   10.1210   32.5490 C.3       6 GLL5        0.0000 
     43 CA         23.5680    6.3540   33.5970 C.3       4 GLP5        0.0000 
     44 CA         21.7300    9.7305   33.2335 C.3       2 GLC5        0.0000 
     45 CA         19.8560    9.3400   33.9180 C.3       4 GLP5        0.0000 
     46 CA         23.2950    9.9365   34.6050 C.3       2 GLC5        0.0000 
     47 CA         22.9860    9.7520   36.6610 C.3       4 GLP5        0.0000 
     48 CA         21.5250   10.9570   32.8475 C.3       2 GLC5        0.0000 
     49 CA         23.5580   11.6720   32.8890 C.3       6 GLL5        0.0000 
     50 CA         22.6445   11.7605   34.7540 C.3       2 GLC5        0.0000 
     51 CA         21.7310   11.8490   36.6190 C.3       4 GLP5        0.0000 
     52 CA         23.8505   10.8600   35.2695 C.3       2 GLC5        0.0000 
     53 CA         24.7150   11.9680   33.8780 C.3       6 GLL5        0.0000 
     54 CA         26.1185   14.5935   34.7600 C.3       2 GLC5        0.0000 
     55 CA         24.6590   13.4860   34.4880 C.3       6 GLL5        0.0000 
     56 CA         27.5780   15.7010   35.0320 C.3       4 GLP5        0.0000 
     57 CA         23.9755   14.5895   33.0315 C.3       2 GLC5        0.0000 
     58 CA         23.2920   15.6930   31.5750 C.3       4 GLP5        0.0000 
     59 CA         23.1950   12.6675   35.5535 C.3       2 GLC5        0.0000 
     60 CA         27.2475    9.1245   34.3115 C.3       2 GLC5        0.0000 
     61 CA         28.2040   10.6830   33.0960 C.3       6 GLL5        0.0000 
     62 CA         26.2910    7.5660   35.5270 C.3       4 GLP5        0.0000 
     63 CA         29.0065   11.8295   34.5865 C.3       2 GLC5        0.0000 
     64 CA         29.8090   12.9760   36.0770 C.3       4 GLP5        0.0000 
     65 CA         28.6715   12.3850   32.2225 C.3       2 GLC5        0.0000 
     66 CA         29.1390   14.0870   31.3490 C.3       4 GLP5        0.0000 
     67 CA         27.8495   12.5085   31.4415 C.3       2 GLC5        0.0000 
     68 CA         27.9230   10.8600   31.6990 C.3       6 GLL5        0.0000 
     69 CA         27.7760   14.1570   31.1840 C.3       4 GLP5        0.0000 
     70 CA         29.4020   12.1420   30.3530 C.3       2 GLC5        0.0000 
     71 CA         28.8630   10.3980   30.4750 C.3       6 GLL5        0.0000 
     72 CA         29.9410   13.8860   30.2310 C.3       4 GLP5        0.0000 
     73 N          31.3895   10.0350   30.7000 N.am      1 SEC2        0.0000 
     74 N          30.0290    9.7530   31.0300 N.am      5 SEL2        0.0000 
     75 N          32.7500   10.3170   30.3700 N.am      3 SEP2        0.0000 
     76 CA         28.0170    7.4292   28.8880 C.3       2 GLC5        0.0000 
     77 CA         28.0640    9.4490   29.5860 C.3       6 GLL5        0.0000 
     78 CA         27.5370    5.5470   28.8370 C.3       4 GLP5        0.0000 
     79 CA         27.5965   12.0092   28.5356 C.3       2 GLC5        0.0000 
     80 CA         27.9910   13.9200   28.8110 C.3       4 GLP5        0.0000 
     81 CA         23.0652   12.1045   30.5938 C.3       2 GLC5        0.0000 
     82 CA         22.0910   13.9430   30.5100 C.3       4 GLP5        0.0000 
     83 CA         23.2318   13.2575   32.4883 C.3       2 GLC5        0.0000 
     84 CA         22.3270   14.6950   31.5930 C.3       4 GLP5        0.0000 
@<TRIPOS>BOND
@<TRIPOS>SUBSTRUCTURE
     1 SEC2        1 GROUP        1 X    SEC  0     ROOT SEC X 2
     2 GLC5        6 GROUP        1 X    GLC  0     **** GLC X 6
     3 SEP2        3 GROUP        1 Y    SEP  0     ROOT SEP Y 9
     4 GLP5        8 GROUP        1 Y    GLP  0     **** GLP Y 13
     5 SEL2        2 GROUP        1 Z    SEL  0     ROOT SEL Z 16
     6 GLL5        7 GROUP        1 Z    GLL  0     **** GLL Z 20
@<TRIPOS>SET

