#    Name: 1s9d_AFB_1_ligand
#    Modification time : Tue Mar 25 02:06:54 2014

@<TRIPOS>MOLECULE
1s9d_AFB_1_ligand
   44    45     1     0     0
SMALL
NO_CHARGES


@<TRIPOS>ATOM
      1 OC7        28.6040    9.4920   25.9500 O.3       1 AFB403      0.0000 
      2 C7         28.3140   10.1080   27.3490 C.3       1 AFB403      0.0000 
      3 C8         26.8220    9.8440   27.5380 C.3       1 AFB403      0.0000 
      4 C6         28.9300    9.1740   28.2920 C.3       1 AFB403      0.0000 
      5 C5         28.0640    9.4490   29.5860 C.3       1 AFB403      0.0000 
      6 C9         26.8360   10.2210   29.0770 C.3       1 AFB403      0.0000 
      7 C10        25.4980    9.7260   29.7630 C.2       1 AFB403      0.0000 
      8 C11        24.5890   10.5920   30.3680 C.2       1 AFB403      0.0000 
      9 C12        23.4900    9.9400   30.9870 C.3       1 AFB403      0.0000 
     10 C13        23.6040   10.1210   32.5490 C.3       1 AFB403      0.0000 
     11 C14        23.5580   11.6720   32.8890 C.3       1 AFB403      0.0000 
     12 C15        24.7150   11.9680   33.8780 C.3       1 AFB403      0.0000 
     13 C16        24.6590   13.4860   34.4880 C.3       1 AFB403      0.0000 
     14 O16        26.0710   11.7200   33.2330 O.3       1 AFB403      0.0000 
     15 C1         27.1230   11.1940   33.8750 C.2       1 AFB403      0.0000 
     16 OC1        27.0930   11.2200   35.1580 O.2       1 AFB403      0.0000 
     17 C2         28.2040   10.6830   33.0960 C.2       1 AFB403      0.0000 
     18 C3         27.9230   10.8600   31.6990 C.2       1 AFB403      0.0000 
     19 C4         28.8630   10.3980   30.4750 C.3       1 AFB403      0.0000 
     20 OC4        30.0290    9.7530   31.0300 O.3       1 AFB403      0.0000 
     21 H          28.5636   11.0387   27.4204 H         1 AFB403      0.0000 
     22 H          26.6150    8.8495   27.4504 H         1 AFB403      0.0000 
     23 H          26.2643   10.5373   27.0402 H         1 AFB403      0.0000 
     24 H          29.9252    9.4281   28.5161 H         1 AFB403      0.0000 
     25 H          28.7810    8.1702   28.0176 H         1 AFB403      0.0000 
     26 H          27.8137    8.5862   30.0387 H         1 AFB403      0.0000 
     27 H          26.9679   11.2357   29.1724 H         1 AFB403      0.0000 
     28 H          25.3648    8.7137   29.7200 H         1 AFB403      0.0000 
     29 H          24.6879   11.5690   30.3731 H         1 AFB403      0.0000 
     30 H          23.4748    8.8672   30.7998 H         1 AFB403      0.0000 
     31 H          22.5292   10.3621   30.6956 H         1 AFB403      0.0000 
     32 H          24.5384    9.7243   32.8817 H         1 AFB403      0.0000 
     33 H          22.7737    9.6417   33.0200 H         1 AFB403      0.0000 
     34 H          22.6215   11.8881   33.3499 H         1 AFB403      0.0000 
     35 H          23.7028   12.2192   31.9858 H         1 AFB403      0.0000 
     36 H          24.6143   11.3025   34.7387 H         1 AFB403      0.0000 
     37 H          28.9872   10.2877   33.4420 H         1 AFB403      0.0000 
     38 H          27.0524   11.3199   31.3818 H         1 AFB403      0.0000 
     39 H          29.1044   11.2824   29.9351 H         1 AFB403      0.0000 
     40 H          25.4117   13.6590   35.1232 H         1 AFB403      0.0000 
     41 H          24.7179   14.1778   33.7684 H         1 AFB403      0.0000 
     42 H          23.8093   13.6544   34.9877 H         1 AFB403      0.0000 
     43 H          29.6008    9.4363   25.8935 H         1 AFB403      0.0000 
     44 H          29.8066    8.7781   31.0371 H         1 AFB403      0.0000 
@<TRIPOS>BOND
     1    2    1 1    
     2   43    1 1    
     3    3    2 1    
     4    4    2 1    
     5   21    2 1    
     6    6    3 1    
     7   22    3 1    
     8   23    3 1    
     9    5    4 1    
    10   24    4 1    
    11   25    4 1    
    12    6    5 1    
    13   19    5 1    
    14   26    5 1    
    15    7    6 1    
    16   27    6 1    
    17    8    7 2    
    18   28    7 1    
    19    9    8 1    
    20   29    8 1    
    21   10    9 1    
    22   30    9 1    
    23   31    9 1    
    24   11   10 1    
    25   32   10 1    
    26   33   10 1    
    27   12   11 1    
    28   34   11 1    
    29   35   11 1    
    30   13   12 1    
    31   14   12 1    
    32   36   12 1    
    33   40   13 1    
    34   41   13 1    
    35   42   13 1    
    36   15   14 1    
    37   16   15 2    
    38   17   15 1    
    39   18   17 2    
    40   37   17 1    
    41   19   18 1    
    42   38   18 1    
    43   20   19 1    
    44   39   19 1    
    45   44   20 1    
@<TRIPOS>SUBSTRUCTURE
     1 AFB403      1 GROUP   
@<TRIPOS>SET

