#    Name: 3p99_LNP_2_INTS_M
#    Modification time : Tue Mar 25 06:06:20 2014

@<TRIPOS>MOLECULE
3p99_LNP_2_INTS_M
   89     0     3     0     0
SMALL
NO_CHARGES


@<TRIPOS>ATOM
      1 CA          5.2850  -40.4365   13.6560 C.3       1 GLC5        0.0000 
      2 CA          6.8720  -40.1370   14.6380 C.3       3 GLL5        0.0000 
      3 CA          3.6980  -40.7360   12.6740 C.3       2 GLP5        0.0000 
      4 CA          5.4165  -41.1255   15.8450 C.3       1 GLC5        0.0000 
      5 CA          3.9610  -42.1140   17.0520 C.3       2 GLP5        0.0000 
      6 CA          5.0500  -40.5620   14.7765 C.3       1 GLC5        0.0000 
      7 CA          6.5700  -39.3860   15.9400 C.3       3 GLL5        0.0000 
      8 CA          3.5300  -41.7380   13.6130 C.3       2 GLP5        0.0000 
      9 CA          4.8865  -40.2055   16.3065 C.3       1 GLC5        0.0000 
     10 CA          3.2030  -41.0250   16.6730 C.3       2 GLP5        0.0000 
     11 CA          6.6760  -41.8735   12.2660 C.3       1 GLC5        0.0000 
     12 CA          8.4740  -41.4790   13.2700 C.3       3 GLL5        0.0000 
     13 CA          4.8780  -42.2680   11.2620 C.3       2 GLP5        0.0000 
     14 CA          6.4840  -40.6020   11.9845 C.3       1 GLC5        0.0000 
     15 CA          8.5950  -40.1960   12.4690 C.3       3 GLL5        0.0000 
     16 CA          4.3730  -41.0080   11.5000 C.3       2 GLP5        0.0000 
     17 CA          6.8940  -41.4075   11.1445 C.3       1 GLC5        0.0000 
     18 CA          8.9100  -40.5470   11.0270 C.3       3 GLL5        0.0000 
     19 CA          8.1175  -38.8780   10.0080 C.3       1 GLC5        0.0000 
     20 CA          7.3250  -37.2090    8.9890 C.3       2 GLP5        0.0000 
     21 CA          8.2340  -41.2285   20.0575 C.3       1 GLC5        0.0000 
     22 CA          8.8150  -39.3650   18.9850 C.3       3 GLL5        0.0000 
     23 CA          7.6530  -43.0920   21.1300 C.3       2 GLP5        0.0000 
     24 CA          8.3425  -43.0240   16.8750 C.3       1 GLC5        0.0000 
     25 CA          7.2820  -41.3550   17.2770 C.3       3 GLL5        0.0000 
     26 CA          9.4030  -44.6930   16.4730 C.3       2 GLP5        0.0000 
     27 CA          7.0655  -42.4255   18.6795 C.3       1 GLC5        0.0000 
     28 CA          6.8490  -43.4960   20.0820 C.3       2 GLP5        0.0000 
     29 CA          6.0315  -42.7925   12.4415 C.3       1 GLC5        0.0000 
     30 CA          7.3560  -42.3230   12.6740 C.3       3 GLL5        0.0000 
     31 CA          4.7070  -43.2620   12.2090 C.3       2 GLP5        0.0000 
     32 CA          7.3975  -44.5420   12.5915 C.3       1 GLC5        0.0000 
     33 CA          7.4390  -46.7610   12.5090 C.3       2 GLP5        0.0000 
     34 CA          6.5840  -41.5755   19.6730 C.3       1 GLC5        0.0000 
     35 CA          6.3190  -39.6550   19.2640 C.3       3 GLL5        0.0000 
     36 CA          5.1400  -40.8845   18.1580 C.3       1 GLC5        0.0000 
     37 CA         12.8365  -44.1250   11.8275 C.3       1 GLC5        0.0000 
     38 CA         11.8000  -42.8910   11.9490 C.3       3 GLL5        0.0000 
     39 CA         13.8730  -45.3590   11.7060 C.3       2 GLP5        0.0000 
     40 CA         13.7275  -41.9435   12.3760 C.3       1 GLC5        0.0000 
     41 CA         15.6550  -40.9960   12.8030 C.3       2 GLP5        0.0000 
     42 CA          4.1050  -39.9870   17.8085 C.3       1 GLC5        0.0000 
     43 CA          5.0070  -38.9490   18.9440 C.3       3 GLL5        0.0000 
     44 CA          7.1710  -41.2850   20.9310 C.3       1 GLC5        0.0000 
     45 CA          6.6890  -39.4780   20.7320 C.3       3 GLL5        0.0000 
     46 CA          4.2665  -37.0170   21.5300 C.3       1 GLC5        0.0000 
     47 CA          5.6380  -38.6760   21.4930 C.3       3 GLL5        0.0000 
     48 CA          2.8950  -35.3580   21.5670 C.3       2 GLP5        0.0000 
     49 CA          3.8655  -40.3260   23.7115 C.3       1 GLC5        0.0000 
     50 CA          4.4500  -38.5650   24.9700 C.3       3 GLL5        0.0000 
     51 CA          3.2810  -42.0870   22.4530 C.3       2 GLP5        0.0000 
     52 CA          2.7415  -38.2530   25.8135 C.3       1 GLC5        0.0000 
     53 CA          1.0330  -37.9410   26.6570 C.3       2 GLP5        0.0000 
     54 CA          6.6200  -35.3660   24.4330 C.3       1 GLC5        0.0000 
     55 CA          5.5410  -36.4470   24.1750 C.3       3 GLL5        0.0000 
     56 CA          7.6990  -34.2850   24.6910 C.3       2 GLP5        0.0000 
     57 CA          5.0775  -36.6450   26.0035 C.3       1 GLC5        0.0000 
     58 CA          4.6140  -36.8430   27.8320 C.3       2 GLP5        0.0000 
     59 CA          7.0030  -38.0760   23.8815 C.3       1 GLC5        0.0000 
     60 CA          8.4650  -39.7050   23.5880 C.3       2 GLP5        0.0000 
     61 CA          5.6768  -41.3630   17.1037 C.3       1 GLC5        0.0000 
     62 CA          9.8548  -43.4093   15.1037 C.3       1 GLC5        0.0000 
     63 CA          9.7640  -42.3070   13.2260 C.3       3 GLL5        0.0000 
     64 CA          9.4831  -42.7235   15.7565 C.3       1 GLC5        0.0000 
     65 CA         10.4830  -40.7050   15.0210 C.3       3 GLL5        0.0000 
     66 CA         10.1726  -39.0709   11.5687 C.3       1 GLC5        0.0000 
     67 CA         10.8250  -37.3630   11.7670 C.3       2 GLP5        0.0000 
     68 CA         10.3330  -38.1635   18.7673 C.3       1 GLC5        0.0000 
     69 CA          9.7310  -39.8690   17.8660 C.3       3 GLL5        0.0000 
     70 CA         11.3930  -36.7100   19.1090 C.3       2 GLP5        0.0000 
     71 CA         10.5930  -37.3620   17.5570 C.3       1 GLC5        0.0000 
     72 CA          9.1710  -38.1860   16.1880 C.3       3 GLL5        0.0000 
     73 CA          9.2935  -44.7689   12.3015 C.3       1 GLC5        0.0000 
     74 CA          8.7780  -46.5600   12.7920 C.3       2 GLP5        0.0000 
     75 CA          7.3142  -39.3910   22.3503 C.3       1 GLC5        0.0000 
     76 CA          4.5460  -40.3648   22.3438 C.3       1 GLC5        0.0000 
     77 CA          5.9840  -38.6090   22.9760 C.3       3 GLL5        0.0000 
     78 CA          4.0725  -36.2390   22.7665 C.3       1 GLC5        0.0000 
     79 CA          4.9590  -37.7930   23.7570 C.3       3 GLL5        0.0000 
     80 CA          4.5798  -38.4025   26.0667 C.3       1 GLC5        0.0000 
     81 CA          4.4550  -38.6260   27.7700 C.3       2 GLP5        0.0000 
     82 CA          6.7129  -39.0440   23.8781 C.3       1 GLC5        0.0000 
     83 CA         12.1275  -37.4765   17.0830 C.3       1 GLC5        0.0000 
     84 CA         11.3530  -36.7930   15.3490 C.3       3 GLL5        0.0000 
     85 CA         12.6670  -37.4220   18.6860 C.3       2 GLP5        0.0000 
     86 CA         13.5525  -36.8160   15.2840 C.3       1 GLC5        0.0000 
     87 CA         11.8230  -38.2690   15.6110 C.3       3 GLL5        0.0000 
     88 CA         15.5170  -36.1010   15.0880 C.3       2 GLP5        0.0000 
     89 CA         11.0892  -37.5781   13.6826 C.3       1 GLC5        0.0000 
@<TRIPOS>BOND
@<TRIPOS>SUBSTRUCTURE
     1 GLC5        1 GROUP        1 X    GLC  0     ROOT GLC X 6
     2 GLP5        3 GROUP        1 Y    GLP  0     ROOT GLP Y 13
     3 GLL5        2 GROUP        1 Z    GLL  0     ROOT GLL Z 20
@<TRIPOS>SET

