#    Name: 3p99_LNP_2_ligand
#    Modification time : Tue Mar 25 06:06:21 2014

@<TRIPOS>MOLECULE
3p99_LNP_2_ligand
   88    92     1     0     0
SMALL
NO_CHARGES


@<TRIPOS>ATOM
      1 CAA         6.8720  -40.1370   14.6380 C.3       1 LNP490      0.0000 
      2 CAB         8.0630  -41.1090   14.6940 C.3       1 LNP490      0.0000 
      3 CAC         9.2240  -40.4970   15.4240 C.2       1 LNP490      0.0000 
      4 CAD         8.9260  -39.6150   16.6010 C.3       1 LNP490      0.0000 
      5 CAE         7.5030  -39.8690   17.0340 C.3       1 LNP490      0.0000 
      6 CAF         6.5700  -39.3860   15.9400 C.3       1 LNP490      0.0000 
      7 CAG         8.4740  -41.4790   13.2700 C.3       1 LNP490      0.0000 
      8 CAH         9.7640  -42.3070   13.2260 C.3       1 LNP490      0.0000 
      9 CAI        10.8490  -41.9440   14.2430 C.3       1 LNP490      0.0000 
     10 CAJ        10.4830  -40.7050   15.0210 C.2       1 LNP490      0.0000 
     11 CAK         8.5950  -40.1960   12.4690 C.3       1 LNP490      0.0000 
     12 CAL         8.9100  -40.5470   11.0270 C.3       1 LNP490      0.0000 
     13 CAM        10.2880  -41.1860   10.9930 C.3       1 LNP490      0.0000 
     14 CAN        10.3440  -42.4700   11.8120 C.3       1 LNP490      0.0000 
     15 CAO         9.7310  -39.8690   17.8660 C.3       1 LNP490      0.0000 
     16 CAP         8.8150  -39.3650   18.9850 C.3       1 LNP490      0.0000 
     17 CAQ         7.4350  -39.1400   18.3670 C.3       1 LNP490      0.0000 
     18 CAR         9.1710  -38.1860   16.1880 C.2       1 LNP490      0.0000 
     19 CAS         7.2820  -41.3550   17.2770 C.3       1 LNP490      0.0000 
     20 CAT         7.3560  -42.3230   12.6740 C.3       1 LNP490      0.0000 
     21 CAV         6.3190  -39.6550   19.2640 C.3       1 LNP490      0.0000 
     22 CAW        11.8000  -42.8910   11.9490 C.3       1 LNP490      0.0000 
     23 CAX         9.5640  -43.5670   11.1030 C.3       1 LNP490      0.0000 
     24 CAY         5.0070  -38.9490   18.9440 C.3       1 LNP490      0.0000 
     25 CAZ         6.6890  -39.4780   20.7320 C.3       1 LNP490      0.0000 
     26 CBA         5.6380  -38.6760   21.4930 C.3       1 LNP490      0.0000 
     27 CBB         5.9840  -38.6090   22.9760 C.3       1 LNP490      0.0000 
     28 CBC         4.9590  -37.7930   23.7570 C.3       1 LNP490      0.0000 
     29 CBD         4.4500  -38.5650   24.9700 C.3       1 LNP490      0.0000 
     30 CBE         5.5410  -36.4470   24.1750 C.3       1 LNP490      0.0000 
     31 CBF        10.4150  -37.8420   15.8220 C.2       1 LNP490      0.0000 
     32 CBG        11.3530  -36.7930   15.3490 C.3       1 LNP490      0.0000 
     33 CBH        11.8230  -38.2690   15.6110 C.3       1 LNP490      0.0000 
     34 OBH        10.6450  -41.4630    9.6330 O.3       1 LNP490      0.0000 
     35 H           5.9690  -40.7026   14.3351 H         1 LNP490      0.0000 
     36 H           7.0579  -39.3972   13.8347 H         1 LNP490      0.0000 
     37 H           7.7454  -42.0055   15.2005 H         1 LNP490      0.0000 
     38 H           5.5414  -39.5736   16.2269 H         1 LNP490      0.0000 
     39 H           6.7146  -38.3238   15.7781 H         1 LNP490      0.0000 
     40 H           9.4408  -43.3825   13.5154 H         1 LNP490      0.0000 
     41 H          11.7902  -41.7810   13.7113 H         1 LNP490      0.0000 
     42 H          10.9840  -42.7841   14.9295 H         1 LNP490      0.0000 
     43 H          11.2592  -40.0606   15.2058 H         1 LNP490      0.0000 
     44 H           9.3932  -39.5886   12.8766 H         1 LNP490      0.0000 
     45 H           7.6600  -39.6519   12.5134 H         1 LNP490      0.0000 
     46 H           8.9126  -39.6504   10.4275 H         1 LNP490      0.0000 
     47 H           8.1780  -41.2467   10.6556 H         1 LNP490      0.0000 
     48 H          10.9956  -40.4801   11.4273 H         1 LNP490      0.0000 
     49 H          10.6228  -39.2959   17.8507 H         1 LNP490      0.0000 
     50 H           9.9010  -40.9085   17.9862 H         1 LNP490      0.0000 
     51 H           9.1939  -38.4376   19.3679 H         1 LNP490      0.0000 
     52 H           8.7480  -40.1082   19.7554 H         1 LNP490      0.0000 
     53 H           7.3207  -38.0936   18.1786 H         1 LNP490      0.0000 
     54 H           8.3775  -37.5697   16.2122 H         1 LNP490      0.0000 
     55 H           6.1903  -40.7186   19.0706 H         1 LNP490      0.0000 
     56 H           7.6523  -38.9633   20.8006 H         1 LNP490      0.0000 
     57 H           6.7954  -40.4627   21.1974 H         1 LNP490      0.0000 
     58 H           4.6659  -39.1503   21.3709 H         1 LNP490      0.0000 
     59 H           5.5928  -37.6668   21.0876 H         1 LNP490      0.0000 
     60 H           6.9709  -38.1545   23.0951 H         1 LNP490      0.0000 
     61 H           6.0214  -39.6227   23.3829 H         1 LNP490      0.0000 
     62 H           4.1074  -37.6009   23.0976 H         1 LNP490      0.0000 
     63 H          11.6537  -36.2949   16.0917 H         1 LNP490      0.0000 
     64 H          11.2750  -36.7136   14.4121 H         1 LNP490      0.0000 
     65 H          11.8955  -38.6675   14.7593 H         1 LNP490      0.0000 
     66 H          12.2742  -38.2487   16.4389 H         1 LNP490      0.0000 
     67 H           7.4553  -41.8957   16.4539 H         1 LNP490      0.0000 
     68 H           7.8853  -41.7081   17.9921 H         1 LNP490      0.0000 
     69 H           6.3436  -41.5490   17.5629 H         1 LNP490      0.0000 
     70 H           7.5608  -42.6016   11.7357 H         1 LNP490      0.0000 
     71 H           7.2005  -43.1588   13.2006 H         1 LNP490      0.0000 
     72 H           6.4884  -41.8263   12.6495 H         1 LNP490      0.0000 
     73 H          12.2352  -43.0186   11.0577 H         1 LNP490      0.0000 
     74 H          12.3389  -42.2089   12.4433 H         1 LNP490      0.0000 
     75 H          11.8919  -43.7537   12.4463 H         1 LNP490      0.0000 
     76 H           9.8992  -43.7195   10.1733 H         1 LNP490      0.0000 
     77 H           9.6298  -44.4405   11.5853 H         1 LNP490      0.0000 
     78 H           8.5918  -43.3443   11.0312 H         1 LNP490      0.0000 
     79 H           5.0741  -37.9607   19.0807 H         1 LNP490      0.0000 
     80 H           4.7284  -39.0954   17.9948 H         1 LNP490      0.0000 
     81 H           4.2592  -39.2748   19.5225 H         1 LNP490      0.0000 
     82 H           5.1902  -38.7931   25.6025 H         1 LNP490      0.0000 
     83 H           3.7738  -38.0403   25.4872 H         1 LNP490      0.0000 
     84 H           4.0141  -39.4255   24.7064 H         1 LNP490      0.0000 
     85 H           6.3442  -36.5555   24.7608 H         1 LNP490      0.0000 
     86 H           5.8256  -35.9040   23.3850 H         1 LNP490      0.0000 
     87 H           4.8785  -35.8981   24.6847 H         1 LNP490      0.0000 
     88 H           9.9865  -40.9494    9.0829 H         1 LNP490      0.0000 
@<TRIPOS>BOND
     1    2    1 1    
     2    6    1 1    
     3   35    1 1    
     4   36    1 1    
     5    3    2 1    
     6    7    2 1    
     7   37    2 1    
     8    4    3 1    
     9   10    3 2    
    10    5    4 1    
    11   15    4 1    
    12   18    4 1    
    13    6    5 1    
    14   17    5 1    
    15   19    5 1    
    16   38    6 1    
    17   39    6 1    
    18    8    7 1    
    19   11    7 1    
    20   20    7 1    
    21    9    8 1    
    22   14    8 1    
    23   40    8 1    
    24   10    9 1    
    25   41    9 1    
    26   42    9 1    
    27   43   10 1    
    28   12   11 1    
    29   44   11 1    
    30   45   11 1    
    31   13   12 1    
    32   46   12 1    
    33   47   12 1    
    34   14   13 1    
    35   34   13 1    
    36   48   13 1    
    37   22   14 1    
    38   23   14 1    
    39   16   15 1    
    40   49   15 1    
    41   50   15 1    
    42   17   16 1    
    43   51   16 1    
    44   52   16 1    
    45   21   17 1    
    46   53   17 1    
    47   31   18 2    
    48   54   18 1    
    49   67   19 1    
    50   68   19 1    
    51   69   19 1    
    52   70   20 1    
    53   71   20 1    
    54   72   20 1    
    55   24   21 1    
    56   25   21 1    
    57   55   21 1    
    58   73   22 1    
    59   74   22 1    
    60   75   22 1    
    61   76   23 1    
    62   77   23 1    
    63   78   23 1    
    64   79   24 1    
    65   80   24 1    
    66   81   24 1    
    67   26   25 1    
    68   56   25 1    
    69   57   25 1    
    70   27   26 1    
    71   58   26 1    
    72   59   26 1    
    73   28   27 1    
    74   60   27 1    
    75   61   27 1    
    76   29   28 1    
    77   30   28 1    
    78   62   28 1    
    79   82   29 1    
    80   83   29 1    
    81   84   29 1    
    82   85   30 1    
    83   86   30 1    
    84   87   30 1    
    85   32   31 1    
    86   33   31 1    
    87   33   32 1    
    88   63   32 1    
    89   64   32 1    
    90   65   33 1    
    91   66   33 1    
    92   88   34 1    
@<TRIPOS>SUBSTRUCTURE
     1 LNP490      1 GROUP   
@<TRIPOS>SET

