#    Name: 4itj_1HX_1_INTS_M
#    Modification time : Tue Mar 25 04:34:56 2014

@<TRIPOS>MOLECULE
4itj_1HX_1_INTS_M
   73     0     6     0     0
SMALL
NO_CHARGES


@<TRIPOS>ATOM
      1 CA         18.3675    2.6035   52.8160 C.3       2 GLC5        0.0000 
      2 CA         18.2780    1.0230   54.2500 C.3       6 GLL5        0.0000 
      3 CA         18.4570    4.1840   51.3820 C.3       4 GLP5        0.0000 
      4 CA         19.5885    2.4950   54.6000 C.3       2 GLC5        0.0000 
      5 CA         20.8990    3.9670   54.9500 C.3       4 GLP5        0.0000 
      6 CA         15.7325    2.0355   54.4885 C.3       2 GLC5        0.0000 
      7 CA         17.1550    0.6190   54.9480 C.3       6 GLL5        0.0000 
      8 CA         14.3100    3.4520   54.0290 C.3       4 GLP5        0.0000 
      9 CA         17.7535    1.4165   51.9215 C.3       2 GLC5        0.0000 
     10 CA         18.8540    0.1550   53.3230 C.3       6 GLL5        0.0000 
     11 CA         16.6530    2.6780   50.5200 C.3       4 GLP5        0.0000 
     12 CA         20.8445   -2.8315   51.6100 C.3       2 GLC5        0.0000 
     13 CA         18.9820   -2.0500   52.0990 C.3       6 GLL5        0.0000 
     14 CA         22.7070   -3.6130   51.1210 C.3       4 GLP5        0.0000 
     15 CA         19.3780    2.4555   51.9225 C.3       2 GLC5        0.0000 
     16 CA         20.2990    0.7270   52.4630 C.3       6 GLL5        0.0000 
     17 CA         20.5990    2.3470   53.7065 C.3       2 GLC5        0.0000 
     18 CA         21.5390    2.1200   52.1300 C.3       2 GLC5        0.0000 
     19 CA         22.7790    3.5130   51.7970 C.3       4 GLP5        0.0000 
     20 CA         21.9520    0.0980   52.8225 C.3       2 GLC5        0.0000 
     21 CA         23.6050   -0.5310   53.1820 C.3       4 GLP5        0.0000 
     22 CA         15.4335   -3.9265   54.1095 C.3       2 GLC5        0.0000 
     23 CA         16.7170   -2.7500   53.6060 C.3       6 GLL5        0.0000 
     24 CA         14.1500   -5.1030   54.6130 C.3       4 GLP5        0.0000 
     25 CA         17.1620   -3.4905   55.0455 C.3       2 GLC5        0.0000 
     26 CA         17.6070   -4.2310   56.4850 C.3       4 GLP5        0.0000 
     27 CA         16.2800   -1.8050   50.3170 C.3       2 GLC5        0.0000 
     28 CA         18.0530   -2.1470   50.8860 C.3       6 GLL5        0.0000 
     29 CA         14.5070   -1.4630   49.7480 C.3       4 GLP5        0.0000 
     30 CA         18.4400   -1.5080   49.1400 C.3       2 GLC5        0.0000 
     31 CA         18.8270   -0.8690   47.3940 C.3       4 GLP5        0.0000 
     32 N          21.6605   -1.8355   54.5315 N.am      1 SEC2        0.0000 
     33 N          20.9580   -2.7570   53.8230 N.am      5 SEL2        0.0000 
     34 N          22.3630   -0.9140   55.2400 N.am      3 SEP2        0.0000 
     35 CA         22.7050   -5.6175   53.4505 C.3       2 GLC5        0.0000 
     36 CA         20.5710   -5.0630   53.7450 C.3       6 GLL5        0.0000 
     37 CA         24.8390   -6.1720   53.1560 C.3       4 GLP5        0.0000 
     38 CA         19.0765   -7.6055   52.2775 C.3       2 GLC5        0.0000 
     39 CA         20.2170   -6.1910   52.9760 C.3       6 GLL5        0.0000 
     40 CA         17.9360   -9.0200   51.5790 C.3       4 GLP5        0.0000 
     41 CA         19.6810   -8.7730   53.6300 C.3       2 GLC5        0.0000 
     42 CA         20.7370   -7.3210   53.5840 C.3       6 GLL5        0.0000 
     43 CA         18.6250  -10.2250   53.6760 C.3       4 GLP5        0.0000 
     44 CA         23.1020   -6.4805   53.9280 C.3       2 GLC5        0.0000 
     45 CA         21.3650   -6.7890   54.7000 C.3       6 GLL5        0.0000 
     46 CA         21.3125   -9.1350   56.4725 C.3       2 GLC5        0.0000 
     47 CA         22.0410   -7.5100   55.6050 C.3       6 GLL5        0.0000 
     48 CA         20.5840  -10.7600   57.3400 C.3       4 GLP5        0.0000 
     49 CA         23.0390   -8.1645   54.1245 C.3       2 GLC5        0.0000 
     50 CA         24.0370   -8.8190   52.6440 C.3       4 GLP5        0.0000 
     51 CA         23.3660   -5.4170   54.5370 C.3       2 GLC5        0.0000 
     52 CA         21.8930   -4.6620   55.9180 C.3       6 GLL5        0.0000 
     53 CA         21.9245   -2.6520   56.2705 C.3       2 GLC5        0.0000 
     54 CA         21.9560   -0.6420   56.6230 C.3       4 GLP5        0.0000 
     55 CA         23.2925   -3.6870   57.1050 C.3       2 GLC5        0.0000 
     56 CA         24.6920   -2.7120   58.2920 C.3       4 GLP5        0.0000 
     57 CA         21.2610   -5.0225   57.8325 C.3       2 GLC5        0.0000 
     58 CA         20.6290   -5.3830   59.7470 C.3       4 GLP5        0.0000 
     59 CA         19.7500   -4.4465   56.2015 C.3       2 GLC5        0.0000 
     60 CA         15.4923   -0.2193   53.4300 C.3       2 GLC5        0.0000 
     61 CA         16.6520   -0.6520   54.7080 C.3       6 GLL5        0.0000 
     62 CA         14.0810   -0.4220   52.0320 C.3       4 GLP5        0.0000 
     63 CA         16.3658    0.1943   56.5750 C.3       2 GLC5        0.0000 
     64 CA         15.8280    0.4050   58.3220 C.3       4 GLP5        0.0000 
     65 CA         15.8171   -1.4601   55.4650 C.3       2 GLC5        0.0000 
     66 CA         14.5610   -2.1500   56.6150 C.3       4 GLP5        0.0000 
     67 CA         15.6701   -1.2291   52.7789 C.3       2 GLC5        0.0000 
     68 CA         17.2430   -1.5240   53.8020 C.3       6 GLL5        0.0000 
     69 CA         21.5505   -4.6200   52.2408 C.3       2 GLC5        0.0000 
     70 CA         22.2985   -7.0865   52.6495 C.3       2 GLC5        0.0000 
     71 CA         24.1200   -7.4170   52.0190 C.3       4 GLP5        0.0000 
     72 CA         19.0895   -0.4808   55.3844 C.3       2 GLC5        0.0000 
     73 CA         20.4230   -0.7120   56.7500 C.3       4 GLP5        0.0000 
@<TRIPOS>BOND
@<TRIPOS>SUBSTRUCTURE
     1 SEC2       32 GROUP        1 X    SEC  0     ROOT SEC X 2
     2 GLC5        1 GROUP        1 X    GLC  0     **** GLC X 6
     3 SEP2       34 GROUP        1 Y    SEP  0     ROOT SEP Y 9
     4 GLP5        3 GROUP        1 Y    GLP  0     **** GLP Y 13
     5 SEL2       33 GROUP        1 Z    SEL  0     ROOT SEL Z 16
     6 GLL5        2 GROUP        1 Z    GLL  0     **** GLL Z 20
@<TRIPOS>SET

