#    Name: 4itj_1HX_1_ligand
#    Modification time : Tue Mar 25 04:34:56 2014

@<TRIPOS>MOLECULE
4itj_1HX_1_ligand
   34    35     1     0     0
SMALL
NO_CHARGES


@<TRIPOS>ATOM
      1 C4         18.3600   -1.1210   53.0890 C.ar      1 1HX301      0.0000 
      2 C6         18.2780    1.0230   54.2500 C.ar      1 1HX301      0.0000 
      3 C1         17.1550    0.6190   54.9480 C.ar      1 1HX301      0.0000 
      4 C3         17.2430   -1.5240   53.8020 C.ar      1 1HX301      0.0000 
      5 C2         16.6520   -0.6520   54.7080 C.ar      1 1HX301      0.0000 
      6 C5         18.8540    0.1550   53.3230 C.ar      1 1HX301      0.0000 
      7 C7         18.9820   -2.0500   52.0990 C.3       1 1HX301      0.0000 
      8 C9         20.2240   -3.6450   53.4150 C.2       1 1HX301      0.0000 
      9 CL2        20.2990    0.7270   52.4630 Cl        1 1HX301      0.0000 
     10 F20        16.7170   -2.7500   53.6060 F         1 1HX301      0.0000 
     11 C10        18.0530   -2.1470   50.8860 C.3       1 1HX301      0.0000 
     12 N8         19.1540   -3.3660   52.6790 N.am      1 1HX301      0.0000 
     13 O11        20.9580   -2.7570   53.8230 O.2       1 1HX301      0.0000 
     14 C12        20.5710   -5.0630   53.7450 C.2       1 1HX301      0.0000 
     15 C16        20.2170   -6.1910   52.9760 C.2       1 1HX301      0.0000 
     16 C15        20.7370   -7.3210   53.5840 C.2       1 1HX301      0.0000 
     17 C14        21.3650   -6.7890   54.7000 C.2       1 1HX301      0.0000 
     18 C18        22.0410   -7.5100   55.6050 C.1       1 1HX301      0.0000 
     19 N19        22.6710   -8.1500   56.3500 N.1       1 1HX301      0.0000 
     20 N13        21.2970   -5.4660   54.8060 N.pl3     1 1HX301      0.0000 
     21 C17        21.8930   -4.6620   55.9180 C.3       1 1HX301      0.0000 
     22 H          18.6865    1.9486   54.4082 H         1 1HX301      0.0000 
     23 H          16.7063    1.2369   55.6220 H         1 1HX301      0.0000 
     24 H          15.8002   -0.9643   55.2257 H         1 1HX301      0.0000 
     25 H          19.9174   -1.6451   51.7680 H         1 1HX301      0.0000 
     26 H          18.4085   -4.0570   52.4878 H         1 1HX301      0.0000 
     27 H          19.7069   -6.1645   52.1771 H         1 1HX301      0.0000 
     28 H          20.6816   -8.1915   53.3197 H         1 1HX301      0.0000 
     29 H          17.9160   -1.2570   50.4510 H         1 1HX301      0.0000 
     30 H          18.4180   -2.7618   50.1869 H         1 1HX301      0.0000 
     31 H          17.1489   -2.4927   51.1373 H         1 1HX301      0.0000 
     32 H          22.3804   -5.2388   56.5735 H         1 1HX301      0.0000 
     33 H          22.5476   -3.9866   55.5785 H         1 1HX301      0.0000 
     34 H          21.1948   -4.1618   56.4302 H         1 1HX301      0.0000 
@<TRIPOS>BOND
     1    4    1 ar   
     2    6    1 ar   
     3    7    1 1    
     4    3    2 ar   
     5    6    2 ar   
     6   22    2 1    
     7    5    3 ar   
     8   23    3 1    
     9    5    4 ar   
    10   10    4 1    
    11   24    5 1    
    12    9    6 1    
    13   11    7 1    
    14   12    7 1    
    15   25    7 1    
    16   12    8 am   
    17   13    8 2    
    18   14    8 1    
    19   29   11 1    
    20   30   11 1    
    21   31   11 1    
    22   26   12 1    
    23   15   14 2    
    24   20   14 1    
    25   16   15 1    
    26   27   15 1    
    27   17   16 2    
    28   28   16 1    
    29   18   17 1    
    30   20   17 1    
    31   19   18 3    
    32   21   20 1    
    33   32   21 1    
    34   33   21 1    
    35   34   21 1    
@<TRIPOS>SUBSTRUCTURE
     1 1HX301      1 GROUP   
@<TRIPOS>SET

