#    Name: 2oh0_2PY_1_INTS_M
#    Modification time : Tue Mar 25 22:33:04 2014

@<TRIPOS>MOLECULE
2oh0_2PY_1_INTS_M
   55     0    12     0     0
SMALL
NO_CHARGES


@<TRIPOS>ATOM
      1 N           1.9845    9.7660    5.1865 N.am      2 SEC2        0.0000 
      2 N           3.3250   10.2010    4.8580 N.am     10 SEL2        0.0000 
      3 N           0.6440    9.3310    5.5150 N.am      6 SEP2        0.0000 
      4 CA          7.1010   12.0820    3.2935 C.3       4 GLC5        0.0000 
      5 CA          6.4860   10.1420    3.0590 C.3      12 GLL5        0.0000 
      6 CA          7.7160   14.0220    3.5280 C.3       8 GLP5        0.0000 
      7 O           1.7445   10.1760    2.8060 O.2       1 ALC1        0.0000 
      8 O           2.9580   10.1020    3.5760 O.2       9 ALL1        0.0000 
      9 O           0.5310   10.2500    2.0360 O.2       5 ALP1        0.0000 
     10 CA         10.7615   11.3740   -1.7290 C.3       4 GLC5        0.0000 
     11 CA         10.5650    9.9710   -0.2860 C.3      12 GLL5        0.0000 
     12 CA         10.9580   12.7770   -3.1720 C.3       8 GLP5        0.0000 
     13 CA          8.9680   11.9270   -1.4505 C.3       4 GLC5        0.0000 
     14 CA          8.2920   10.5480   -0.2800 C.3      12 GLL5        0.0000 
     15 CA          9.6440   13.3060   -2.6210 C.3       8 GLP5        0.0000 
     16 CA          6.7590   11.5750   -1.0480 C.3       4 GLC5        0.0000 
     17 CA          5.2260   12.6020   -1.8160 C.3       8 GLP5        0.0000 
     18 OD1        13.3755    7.3025    0.0190 O.co2     3 ASC3        0.0000 
     19 OD1        13.5810    7.0080    1.5440 O.co2    11 ASL3        0.0000 
     20 OD1        13.1700    7.5970   -1.5060 O.co2     7 ASP3        0.0000 
     21 O          12.9525    5.8800    1.3155 O.2       1 ALC1        0.0000 
     22 O          13.5810    7.0080    1.5440 O.2       9 ALL1        0.0000 
     23 O          12.3240    4.7520    1.0870 O.2       5 ALP1        0.0000 
     24 O          13.3755    7.3025    0.0190 O.2       1 ALC1        0.0000 
     25 O          13.1700    7.5970   -1.5060 O.2       5 ALP1        0.0000 
     26 CA          4.2793    8.3300    3.0075 C.3       4 GLC5        0.0000 
     27 CA          4.0270   10.0650    2.7230 C.3      12 GLL5        0.0000 
     28 CA          4.4400    6.6420    3.9780 C.3       8 GLP5        0.0000 
     29 CA          4.9013    8.1970    1.4715 C.3       4 GLC5        0.0000 
     30 CA          5.6840    6.3760    0.9060 C.3       8 GLP5        0.0000 
     31 CA          4.1050    8.5727   -0.3772 C.3       4 GLC5        0.0000 
     32 CA          4.2100    9.9710    1.3510 C.3      12 GLL5        0.0000 
     33 CA          3.3420    7.1800   -1.8350 C.3       8 GLP5        0.0000 
     34 CA          5.0470   11.2838   -0.3678 C.3       4 GLC5        0.0000 
     35 CA          4.2266   11.6770    2.2298 C.3       4 GLC5        0.0000 
     36 CA          5.5260    9.9600    0.8100 C.3      12 GLL5        0.0000 
     37 CA          3.6310   13.3650    3.0360 C.3       8 GLP5        0.0000 
     38 CA         13.0015   15.2172    1.6572 C.3       4 GLC5        0.0000 
     39 CA         12.8190   13.1790    1.5080 C.3      12 GLL5        0.0000 
     40 CA         12.8690   17.0730    2.4210 C.3       8 GLP5        0.0000 
     41 CA         12.4413   12.9417   -1.6013 C.3       4 GLC5        0.0000 
     42 CA         13.4490   13.5440    0.2790 C.3      12 GLL5        0.0000 
     43 CA          8.6988   12.1620    0.9525 C.3       4 GLC5        0.0000 
     44 CA          9.2150   14.0460    1.5420 C.3       8 GLP5        0.0000 
     45 CA         10.7540    8.2193   -0.8312 C.3       4 GLC5        0.0000 
     46 CA         10.4730    9.3980    0.9970 C.3      12 GLL5        0.0000 
     47 CA         10.9890    6.7540   -2.0180 C.3       8 GLP5        0.0000 
     48 CA          4.7320   11.7565    3.1843 C.3       4 GLC5        0.0000 
     49 CA          5.1365    8.3950    3.6553 C.3       4 GLC5        0.0000 
     50 CA          5.1800   10.1540    3.6060 C.3      12 GLL5        0.0000 
     51 CA          5.9911    8.2240    1.5239 C.3       4 GLC5        0.0000 
     52 CA         11.1732   13.3476    1.5271 C.3       4 GLC5        0.0000 
     53 CA         13.1290   11.9370    2.1310 C.3      12 GLL5        0.0000 
     54 CA          7.7237    8.2575    0.3283 C.3       4 GLC5        0.0000 
     55 CA          6.9840    6.3830    0.1340 C.3       8 GLP5        0.0000 
@<TRIPOS>BOND
@<TRIPOS>SUBSTRUCTURE
     1 ALC1        7 GROUP        1 X    ALC  0     ROOT ALC X 1
     2 SEC2        1 GROUP        1 X    SEC  0     **** SEC X 2
     3 ASC3       18 GROUP        1 X    ASC  0     **** ASC X 3
     4 GLC5        4 GROUP        1 X    GLC  0     **** GLC X 6
     5 ALP1        9 GROUP        1 Y    ALP  0     ROOT ALP Y 8
     6 SEP2        3 GROUP        1 Y    SEP  0     **** SEP Y 9
     7 ASP3       20 GROUP        1 Y    ASP  0     **** ASP Y 10
     8 GLP5        6 GROUP        1 Y    GLP  0     **** GLP Y 13
     9 ALL1        8 GROUP        1 Z    ALL  0     ROOT ALL Z 15
    10 SEL2        2 GROUP        1 Z    SEL  0     **** SEL Z 16
    11 ASL3       19 GROUP        1 Z    ASL  0     **** ASL Z 17
    12 GLL5        5 GROUP        1 Z    GLL  0     **** GLL Z 20
@<TRIPOS>SET

