#    Name: 2oh0_2PY_1_ligand
#    Modification time : Tue Mar 25 22:33:04 2014

@<TRIPOS>MOLECULE
2oh0_2PY_1_ligand
   51    55     1     0     0
SMALL
NO_CHARGES


@<TRIPOS>ATOM
      1 N1          3.3250   10.2010    4.8580 N.2       1 2PY351      0.0000 
      2 N3          9.5060   10.5300   -0.9050 N.ar      1 2PY351      0.0000 
      3 C4          4.0270   10.0650    2.7230 C.ar      1 2PY351      0.0000 
      4 C5          4.2100    9.9710    1.3510 C.ar      1 2PY351      0.0000 
      5 C6          5.5260    9.9600    0.8100 C.ar      1 2PY351      0.0000 
      6 C8          4.6670   10.2380    4.9680 C.2       1 2PY351      0.0000 
      7 C10        13.4490   13.5440    0.2790 C.ar      1 2PY351      0.0000 
      8 C13        14.1020   11.0450    1.4890 C.ar      1 2PY351      0.0000 
      9 C15        12.8190   13.1790    1.5080 C.ar      1 2PY351      0.0000 
     10 C17        14.6510    9.7490    1.8010 C.2       1 2PY351      0.0000 
     11 C20         8.0730   10.0080    1.0060 C.ar      1 2PY351      0.0000 
     12 C21         9.1970    9.4240    1.6440 C.ar      1 2PY351      0.0000 
     13 C22        10.4730    9.3980    0.9970 C.ar      1 2PY351      0.0000 
     14 C24        11.8040    8.2200    2.7230 C.3       1 2PY351      0.0000 
     15 C1          6.6950   10.0440    1.6390 C.ar      1 2PY351      0.0000 
     16 C2          6.4860   10.1420    3.0590 C.ar      1 2PY351      0.0000 
     17 C3          5.1800   10.1540    3.6060 C.ar      1 2PY351      0.0000 
     18 N5          2.9580   10.1020    3.5760 N.pl3     1 2PY351      0.0000 
     19 C11        14.4000   12.6690   -0.3400 C.ar      1 2PY351      0.0000 
     20 C12        14.7040   11.4490    0.2720 C.ar      1 2PY351      0.0000 
     21 C14        13.1290   11.9370    2.1310 C.ar      1 2PY351      0.0000 
     22 N2         15.5800   10.4480   -0.1330 N.pl3     1 2PY351      0.0000 
     23 C16        15.5430    9.4320    0.7880 C.2       1 2PY351      0.0000 
     24 C18        10.5650    9.9710   -0.2860 C.ar      1 2PY351      0.0000 
     25 C19         8.2920   10.5480   -0.2800 C.ar      1 2PY351      0.0000 
     26 O1         11.6750    8.8550    1.4630 O.3       1 2PY351      0.0000 
     27 C23        13.2770    7.7430    2.7970 C.3       1 2PY351      0.0000 
     28 C25        14.3050    8.8880    3.0220 C.3       1 2PY351      0.0000 
     29 N4         13.5810    7.0080    1.5440 N.4       1 2PY351      0.0000 
     30 H           3.4105    9.9090    0.7160 H         1 2PY351      0.0000 
     31 H           5.6498    9.8895   -0.2116 H         1 2PY351      0.0000 
     32 H           5.2121   10.3023    5.7182 H         1 2PY351      0.0000 
     33 H          13.2215   14.4336   -0.1627 H         1 2PY351      0.0000 
     34 H          12.1463   13.8106    1.9382 H         1 2PY351      0.0000 
     35 H           9.1002    9.0158    2.5761 H         1 2PY351      0.0000 
     36 H          11.1774    7.3474    2.8181 H         1 2PY351      0.0000 
     37 H          11.6413    8.8932    3.5496 H         1 2PY351      0.0000 
     38 H           7.3008   10.2036    3.6756 H         1 2PY351      0.0000 
     39 H           2.0183   10.0590    3.2611 H         1 2PY351      0.0000 
     40 H          14.8390   12.9455   -1.2117 H         1 2PY351      0.0000 
     41 H          12.7011   11.6583    2.9931 H         1 2PY351      0.0000 
     42 H          16.1147   10.4737   -0.9241 H         1 2PY351      0.0000 
     43 H          16.0560    8.6181    0.7449 H         1 2PY351      0.0000 
     44 H          11.5031    9.9494   -0.7561 H         1 2PY351      0.0000 
     45 H           7.4653   10.9823   -0.7660 H         1 2PY351      0.0000 
     46 H          13.3553    7.0478    3.6343 H         1 2PY351      0.0000 
     47 H          13.9164    9.5462    3.8279 H         1 2PY351      0.0000 
     48 H          15.2388    8.4387    3.4217 H         1 2PY351      0.0000 
     49 H          13.0456    7.3519    0.7725 H         1 2PY351      0.0000 
     50 H          14.5451    7.0885    1.2909 H         1 2PY351      0.0000 
     51 H          13.3806    6.0319    1.6280 H         1 2PY351      0.0000 
@<TRIPOS>BOND
     1    6    1 2    
     2   18    1 1    
     3   24    2 ar   
     4   25    2 ar   
     5    4    3 ar   
     6   17    3 ar   
     7   18    3 1    
     8    5    4 ar   
     9   30    4 1    
    10   15    5 ar   
    11   31    5 1    
    12   17    6 1    
    13   32    6 1    
    14    9    7 ar   
    15   19    7 ar   
    16   33    7 1    
    17   10    8 1    
    18   20    8 ar   
    19   21    8 ar   
    20   21    9 ar   
    21   34    9 1    
    22   23   10 2    
    23   28   10 1    
    24   12   11 ar   
    25   15   11 1    
    26   25   11 ar   
    27   13   12 ar   
    28   35   12 1    
    29   24   13 ar   
    30   26   13 1    
    31   26   14 1    
    32   27   14 1    
    33   36   14 1    
    34   37   14 1    
    35   16   15 ar   
    36   17   16 ar   
    37   38   16 1    
    38   39   18 1    
    39   20   19 ar   
    40   40   19 1    
    41   22   20 1    
    42   41   21 1    
    43   23   22 1    
    44   42   22 1    
    45   43   23 1    
    46   44   24 1    
    47   45   25 1    
    48   28   27 1    
    49   29   27 1    
    50   46   27 1    
    51   47   28 1    
    52   48   28 1    
    53   49   29 1    
    54   50   29 1    
    55   51   29 1    
@<TRIPOS>SUBSTRUCTURE
     1 2PY351      1 GROUP   
@<TRIPOS>SET

