#    Name: 4d89_BXD_1_INTS_M
#    Modification time : Tue Mar 25 09:25:21 2014

@<TRIPOS>MOLECULE
4d89_BXD_1_INTS_M
   81     0     9     0     0
SMALL
NO_CHARGES


@<TRIPOS>ATOM
      1 CA         25.8135   78.1315   19.4235 C.3       3 GLC5        0.0000 
      2 CA         27.4650   78.4900   17.9980 C.3       9 GLL5        0.0000 
      3 CA         24.1620   77.7730   20.8490 C.3       6 GLP5        0.0000 
      4 CA         26.2865   76.8435   20.1485 C.3       3 GLC5        0.0000 
      5 CA         26.7450   77.6650   18.8020 C.3       9 GLL5        0.0000 
      6 CA         25.8280   76.0220   21.4950 C.3       6 GLP5        0.0000 
      7 CA         25.6635   75.8955   18.1735 C.3       3 GLC5        0.0000 
      8 CA         24.5820   74.1260   17.5450 C.3       6 GLP5        0.0000 
      9 CA         31.6195   72.1235   20.2595 C.3       3 GLC5        0.0000 
     10 CA         30.4460   73.8460   20.5280 C.3       9 GLL5        0.0000 
     11 CA         32.7930   70.4010   19.9910 C.3       6 GLP5        0.0000 
     12 CA         26.4640   73.4600   18.4965 C.3       3 GLC5        0.0000 
     13 CA         28.3460   72.7940   19.4480 C.3       9 GLL5        0.0000 
     14 CA         28.0790   71.5740   14.6005 C.3       3 GLC5        0.0000 
     15 CA         29.3610   70.1570   15.7750 C.3       9 GLL5        0.0000 
     16 CA         26.7970   72.9910   13.4260 C.3       6 GLP5        0.0000 
     17 CA         27.9420   73.4215   15.6720 C.3       3 GLC5        0.0000 
     18 CA         29.3700   72.5900   17.0750 C.3       9 GLL5        0.0000 
     19 CA         26.5140   74.2530   14.2690 C.3       6 GLP5        0.0000 
     20 N          32.7785   70.2665   17.1710 N.am      2 SEC2        0.0000 
     21 N          31.5760   71.0990   16.9150 N.am      8 SEL2        0.0000 
     22 N          33.9810   69.4340   17.4270 N.am      5 SEP2        0.0000 
     23 CA         27.8900   65.3345   16.5380 C.3       3 GLC5        0.0000 
     24 CA         28.5550   67.1190   16.2530 C.3       9 GLL5        0.0000 
     25 CA         27.2250   63.5500   16.8230 C.3       6 GLP5        0.0000 
     26 CA         27.1020   66.5680   14.9050 C.3       3 GLC5        0.0000 
     27 CA         25.6490   66.0170   13.5570 C.3       6 GLP5        0.0000 
     28 CA         33.4775   67.9335   16.8045 C.3       3 GLC5        0.0000 
     29 CA         32.1590   66.2370   17.3760 C.3       9 GLL5        0.0000 
     30 CA         34.7960   69.6300   16.2330 C.3       6 GLP5        0.0000 
     31 CA         27.9310   62.5335   20.7695 C.3       3 GLC5        0.0000 
     32 CA         29.1740   64.0390   20.5720 C.3       9 GLL5        0.0000 
     33 CA         26.6880   61.0280   20.9670 C.3       6 GLP5        0.0000 
     34 CA         28.1995   63.7945   18.6975 C.3       3 GLC5        0.0000 
     35 CA         31.6680   65.9715   22.9055 C.3       3 GLC5        0.0000 
     36 CA         31.5130   64.4610   21.3870 C.3       9 GLL5        0.0000 
     37 CA         31.8230   67.4820   24.4240 C.3       6 GLP5        0.0000 
     38 CA         28.1110   67.0055   21.7175 C.3       3 GLC5        0.0000 
     39 CA         29.8140   66.2690   21.6120 C.3       9 GLL5        0.0000 
     40 CA         26.4080   67.7420   21.8230 C.3       6 GLP5        0.0000 
     41 CA         30.8185   66.8755   23.0180 C.3       3 GLC5        0.0000 
     42 CA         29.8050   68.0760   21.9565 C.3       3 GLC5        0.0000 
     43 CA         29.7960   69.8830   22.3010 C.3       6 GLP5        0.0000 
     44 O          26.6870   70.3005   19.9435 O.2       1 ALC1        0.0000 
     45 O          27.6960   69.8560   19.1940 O.2       7 ALL1        0.0000 
     46 O          25.6780   70.7450   20.6930 O.2       4 ALP1        0.0000 
     47 CA         32.3660   72.8890   21.9535 C.3       3 GLC5        0.0000 
     48 CA         32.3840   74.8390   21.4850 C.3       9 GLL5        0.0000 
     49 CA         32.3480   70.9390   22.4220 C.3       6 GLP5        0.0000 
     50 CA         34.1975   74.3185   21.2800 C.3       3 GLC5        0.0000 
     51 CA         36.0110   73.7980   21.0750 C.3       6 GLP5        0.0000 
     52 CA         32.1870   74.7365   22.9580 C.3       3 GLC5        0.0000 
     53 CA         31.9900   74.6340   24.4310 C.3       6 GLP5        0.0000 
     54 O          32.1030   77.7310   21.7720 O.2       1 ALC1        0.0000 
     55 O          31.7010   77.3250   20.5020 O.2       7 ALL1        0.0000 
     56 O          32.5050   78.1370   23.0420 O.2       4 ALP1        0.0000 
     57 CA         32.5195   79.5690   18.4380 C.3       3 GLC5        0.0000 
     58 CA         32.0740   78.0920   16.8680 C.3       9 GLL5        0.0000 
     59 CA         32.9650   81.0460   20.0080 C.3       6 GLP5        0.0000 
     60 CA         34.6200   76.3195   16.4980 C.3       3 GLC5        0.0000 
     61 CA         33.0780   77.0870   16.2440 C.3       9 GLL5        0.0000 
     62 CA         36.1620   75.5520   16.7520 C.3       6 GLP5        0.0000 
     63 CA         27.6595   78.7895   20.4461 C.3       3 GLC5        0.0000 
     64 CA         28.1630   79.2120   22.3230 C.3       6 GLP5        0.0000 
     65 CA         26.9838   80.7300   17.5846 C.3       3 GLC5        0.0000 
     66 CA         26.8050   82.5670   17.5720 C.3       6 GLP5        0.0000 
     67 CA         25.4790   79.3075   17.8918 C.3       3 GLC5        0.0000 
     68 CA         27.6690   79.6480   18.6750 C.3       9 GLL5        0.0000 
     69 CA         24.0010   80.0730   18.0700 C.3       6 GLP5        0.0000 
     70 CA         27.5607   75.4650   20.5314 C.3       3 GLC5        0.0000 
     71 CA         29.7380   76.3890   19.4990 C.3       9 GLL5        0.0000 
     72 CA         27.8188   73.0200   21.4055 C.3       3 GLC5        0.0000 
     73 CA         29.2610   73.9900   19.7600 C.3       9 GLL5        0.0000 
     74 CA         26.8340   72.6480   23.2070 C.3       6 GLP5        0.0000 
     75 CA         29.6345   71.0917   20.0455 C.3       3 GLC5        0.0000 
     76 CA         30.6160   69.8730   21.1780 C.3       6 GLP5        0.0000 
     77 CA         29.5213   69.9785   19.3700 C.3       3 GLC5        0.0000 
     78 CA         28.0610   70.6010   18.0200 C.3       9 GLL5        0.0000 
     79 CA         32.8257   67.5545   18.9232 C.3       3 GLC5        0.0000 
     80 CA         31.9080   65.7370   18.6770 C.3       9 GLL5        0.0000 
     81 CA         33.6180   69.1220   19.8200 C.3       6 GLP5        0.0000 
@<TRIPOS>BOND
@<TRIPOS>SUBSTRUCTURE
     1 ALC1       44 GROUP        1 X    ALC  0     ROOT ALC X 1
     2 SEC2       20 GROUP        1 X    SEC  0     **** SEC X 2
     3 GLC5        1 GROUP        1 X    GLC  0     **** GLC X 6
     4 ALP1       46 GROUP        1 Y    ALP  0     ROOT ALP Y 8
     5 SEP2       22 GROUP        1 Y    SEP  0     **** SEP Y 9
     6 GLP5        3 GROUP        1 Y    GLP  0     **** GLP Y 13
     7 ALL1       45 GROUP        1 Z    ALL  0     ROOT ALL Z 15
     8 SEL2       21 GROUP        1 Z    SEL  0     **** SEL Z 16
     9 GLL5        2 GROUP        1 Z    GLL  0     **** GLL Z 20
@<TRIPOS>SET

