#    Name: 4d89_BXD_1_ligand
#    Modification time : Tue Mar 25 09:25:21 2014

@<TRIPOS>MOLECULE
4d89_BXD_1_ligand
   77    79     1     0     0
SMALL
NO_CHARGES


@<TRIPOS>ATOM
      1 F1         27.6690   79.6480   18.6750 F         1 BXD501      0.0000 
      2 C2         27.4650   78.4900   17.9980 C.3       1 BXD501      0.0000 
      3 F3         26.7450   77.6650   18.8020 F         1 BXD501      0.0000 
      4 F4         26.7580   78.7170   16.8580 F         1 BXD501      0.0000 
      5 C5         28.8370   77.8370   17.7010 C.3       1 BXD501      0.0000 
      6 O7         29.4310   77.6620   19.0060 O.3       1 BXD501      0.0000 
      7 C8         29.7380   76.3890   19.4990 C.ar      1 BXD501      0.0000 
      8 C9         30.9170   76.2430   20.2650 C.ar      1 BXD501      0.0000 
      9 C10        31.2690   74.9710   20.7750 C.ar      1 BXD501      0.0000 
     10 C11        30.4460   73.8460   20.5280 C.ar      1 BXD501      0.0000 
     11 C13        29.2610   73.9900   19.7600 C.ar      1 BXD501      0.0000 
     12 C14        28.9140   75.2630   19.2520 C.ar      1 BXD501      0.0000 
     13 C16        28.3460   72.7940   19.4480 C.3       1 BXD501      0.0000 
     14 C19        28.9600   71.8270   18.3780 C.3       1 BXD501      0.0000 
     15 C21        28.0610   70.6010   18.0200 C.3       1 BXD501      0.0000 
     16 C23        28.7920   69.5670   17.1040 C.3       1 BXD501      0.0000 
     17 C25        29.3610   70.1570   15.7750 C.3       1 BXD501      0.0000 
     18 S28        30.4570   71.5420   16.1090 S.o2      1 BXD501      0.0000 
     19 C29        29.3700   72.5900   17.0750 C.3       1 BXD501      0.0000 
     20 O32        30.7420   72.1990   14.8430 O.2       1 BXD501      0.0000 
     21 O33        31.5760   71.0990   16.9150 O.2       1 BXD501      0.0000 
     22 N34        27.9650   68.3520   16.8500 N.3       1 BXD501      0.0000 
     23 C36        28.5550   67.1190   16.2530 C.3       1 BXD501      0.0000 
     24 C39        29.7600   66.6350   17.0790 C.ar      1 BXD501      0.0000 
     25 C40        29.5340   66.1300   18.3810 C.ar      1 BXD501      0.0000 
     26 C42        30.5910   65.6670   19.2200 C.ar      1 BXD501      0.0000 
     27 C43        31.9080   65.7370   18.6770 C.ar      1 BXD501      0.0000 
     28 C45        32.1590   66.2370   17.3760 C.ar      1 BXD501      0.0000 
     29 C47        31.0840   66.6870   16.5750 C.ar      1 BXD501      0.0000 
     30 C49        30.2920   65.1190   20.6620 C.3       1 BXD501      0.0000 
     31 C50        29.1740   64.0390   20.5720 C.3       1 BXD501      0.0000 
     32 C54        31.5130   64.4610   21.3870 C.3       1 BXD501      0.0000 
     33 C58        29.8140   66.2690   21.6120 C.3       1 BXD501      0.0000 
     34 O62        27.6960   69.8560   19.1940 O.3       1 BXD501      0.0000 
     35 F64        32.3840   74.8390   21.4850 F         1 BXD501      0.0000 
     36 N65        31.7010   77.3250   20.5020 N.pl3     1 BXD501      0.0000 
     37 C68        29.7390   78.7500   16.8170 C.3       1 BXD501      0.0000 
     38 O71        30.7930   77.9750   16.2020 O.3       1 BXD501      0.0000 
     39 C72        32.0740   78.0920   16.8680 C.3       1 BXD501      0.0000 
     40 C75        33.0780   77.0870   16.2440 C.3       1 BXD501      0.0000 
     41 H          28.6752   76.9122   17.2206 H         1 BXD501      0.0000 
     42 H          30.7025   72.9330   20.9004 H         1 BXD501      0.0000 
     43 H          28.0581   75.3739   18.6994 H         1 BXD501      0.0000 
     44 H          27.3881   73.1572   19.0719 H         1 BXD501      0.0000 
     45 H          28.1672   72.2247   20.3617 H         1 BXD501      0.0000 
     46 H          29.9010   71.4221   18.8045 H         1 BXD501      0.0000 
     47 H          27.1934   70.9398   17.4936 H         1 BXD501      0.0000 
     48 H          29.6962   69.2263   17.6923 H         1 BXD501      0.0000 
     49 H          28.6075   70.5837   15.1623 H         1 BXD501      0.0000 
     50 H          29.9838   69.4716   15.2579 H         1 BXD501      0.0000 
     51 H          29.9580   73.4399   17.2724 H         1 BXD501      0.0000 
     52 H          28.5545   72.7588   16.4319 H         1 BXD501      0.0000 
     53 H          28.8923   67.3155   15.2337 H         1 BXD501      0.0000 
     54 H          27.8128   66.3192   16.2246 H         1 BXD501      0.0000 
     55 H          28.5636   66.0928   18.7445 H         1 BXD501      0.0000 
     56 H          32.7006   65.4119   19.2540 H         1 BXD501      0.0000 
     57 H          33.1128   66.2721   17.0186 H         1 BXD501      0.0000 
     58 H          31.2588   67.0476   15.6388 H         1 BXD501      0.0000 
     59 H          31.8177   77.5822   21.4613 H         1 BXD501      0.0000 
     60 H          32.0928   77.7694   19.6964 H         1 BXD501      0.0000 
     61 H          30.1385   79.5357   17.4647 H         1 BXD501      0.0000 
     62 H          29.0921   79.2193   16.0701 H         1 BXD501      0.0000 
     63 H          31.9976   77.8626   17.9314 H         1 BXD501      0.0000 
     64 H          32.4966   79.0910   16.7558 H         1 BXD501      0.0000 
     65 H          29.4440   63.2726   19.9892 H         1 BXD501      0.0000 
     66 H          28.9507   63.6599   21.4700 H         1 BXD501      0.0000 
     67 H          28.3272   64.4117   20.1924 H         1 BXD501      0.0000 
     68 H          31.8723   63.6805   20.8753 H         1 BXD501      0.0000 
     69 H          32.2674   65.1069   21.5044 H         1 BXD501      0.0000 
     70 H          31.2686   64.1272   22.2974 H         1 BXD501      0.0000 
     71 H          30.5047   66.9864   21.7034 H         1 BXD501      0.0000 
     72 H          28.9800   66.7062   21.2754 H         1 BXD501      0.0000 
     73 H          29.6173   65.9324   22.5329 H         1 BXD501      0.0000 
     74 H          33.9759   77.1393   16.6810 H         1 BXD501      0.0000 
     75 H          32.7626   76.1424   16.3344 H         1 BXD501      0.0000 
     76 H          33.2165   77.2577   15.2684 H         1 BXD501      0.0000 
     77 H          26.9232   70.3545   19.5868 H         1 BXD501      0.0000 
@<TRIPOS>BOND
     1    2    1 1    
     2    3    2 1    
     3    4    2 1    
     4    5    2 1    
     5    6    5 1    
     6   37    5 1    
     7   41    5 1    
     8    7    6 1    
     9    8    7 ar   
    10   12    7 ar   
    11    9    8 ar   
    12   36    8 1    
    13   10    9 ar   
    14   35    9 1    
    15   11   10 ar   
    16   42   10 1    
    17   12   11 ar   
    18   13   11 1    
    19   43   12 1    
    20   14   13 1    
    21   44   13 1    
    22   45   13 1    
    23   15   14 1    
    24   19   14 1    
    25   46   14 1    
    26   16   15 1    
    27   34   15 1    
    28   47   15 1    
    29   17   16 1    
    30   22   16 1    
    31   48   16 1    
    32   18   17 1    
    33   49   17 1    
    34   50   17 1    
    35   19   18 1    
    36   20   18 2    
    37   21   18 2    
    38   51   19 1    
    39   52   19 1    
    40   23   22 1    
    41   24   23 1    
    42   53   23 1    
    43   54   23 1    
    44   25   24 ar   
    45   29   24 ar   
    46   26   25 ar   
    47   55   25 1    
    48   27   26 ar   
    49   30   26 1    
    50   28   27 ar   
    51   56   27 1    
    52   29   28 ar   
    53   57   28 1    
    54   58   29 1    
    55   31   30 1    
    56   32   30 1    
    57   33   30 1    
    58   65   31 1    
    59   66   31 1    
    60   67   31 1    
    61   68   32 1    
    62   69   32 1    
    63   70   32 1    
    64   71   33 1    
    65   72   33 1    
    66   73   33 1    
    67   77   34 1    
    68   59   36 1    
    69   60   36 1    
    70   38   37 1    
    71   61   37 1    
    72   62   37 1    
    73   39   38 1    
    74   40   39 1    
    75   63   39 1    
    76   64   39 1    
    77   74   40 1    
    78   75   40 1    
    79   76   40 1    
@<TRIPOS>SUBSTRUCTURE
     1 BXD501      1 GROUP   
@<TRIPOS>SET

