#    Name: 3d78_NBB_3_INTS_M
#    Modification time : Mon Mar 24 22:48:11 2014

@<TRIPOS>MOLECULE
3d78_NBB_3_INTS_M
   24     0     6     0     0
SMALL
NO_CHARGES


@<TRIPOS>ATOM
      1 O          26.2500   31.8485  -20.9410 O.2       1 ALC1        0.0000 
      2 O          25.1500   32.7380  -21.4270 O.2       5 ALL1        0.0000 
      3 O          27.3500   30.9590  -20.4550 O.2       3 ALP1        0.0000 
      4 CA         26.5795   31.7215  -22.9675 C.3       2 GLC5        0.0000 
      5 CA         25.3920   33.4270  -22.6960 C.3       6 GLL5        0.0000 
      6 CA         27.7670   30.0160  -23.2390 C.3       4 GLP5        0.0000 
      7 CA         28.0305   32.8365  -23.4705 C.3       2 GLC5        0.0000 
      8 CA         26.7410   34.1340  -22.5510 C.3       6 GLL5        0.0000 
      9 CA         29.3200   31.5390  -24.3900 C.3       4 GLP5        0.0000 
     10 CA         25.0054   35.4069  -22.2904 C.3       2 GLC5        0.0000 
     11 CA         23.6000   36.1290  -21.7720 C.3       4 GLP5        0.0000 
     12 CA         26.8492   36.5010  -25.0610 C.3       2 GLC5        0.0000 
     13 CA         26.7550   35.5890  -22.9940 C.3       6 GLL5        0.0000 
     14 CA         26.2950   37.2580  -26.7690 C.3       4 GLP5        0.0000 
     15 CA         23.7525   26.8667  -24.1440 C.3       2 GLC5        0.0000 
     16 CA         23.0430   28.9540  -24.2600 C.3       6 GLL5        0.0000 
     17 CA         24.0090   24.8880  -24.5440 C.3       4 GLP5        0.0000 
     18 CA         25.8280   29.7796  -22.9996 C.3       2 GLC5        0.0000 
     19 CA         23.9490   28.7370  -23.2280 C.3       6 GLL5        0.0000 
     20 CA         23.6805   28.7306  -21.0116 C.3       2 GLC5        0.0000 
     21 CA         24.1530   29.7330  -22.2770 C.3       6 GLL5        0.0000 
     22 CA         23.4720   27.9180  -19.2630 C.3       4 GLP5        0.0000 
     23 CA         23.4893   28.8099  -25.8428 C.3       2 GLC5        0.0000 
     24 CA         24.0440   28.1140  -27.6610 C.3       4 GLP5        0.0000 
@<TRIPOS>BOND
@<TRIPOS>SUBSTRUCTURE
     1 ALC1        1 GROUP        1 X    ALC  0     ROOT ALC X 1
     2 GLC5        4 GROUP        1 X    GLC  0     **** GLC X 6
     3 ALP1        3 GROUP        1 Y    ALP  0     ROOT ALP Y 8
     4 GLP5        6 GROUP        1 Y    GLP  0     **** GLP Y 13
     5 ALL1        2 GROUP        1 Z    ALL  0     ROOT ALL Z 15
     6 GLL5        5 GROUP        1 Z    GLL  0     **** GLL Z 20
@<TRIPOS>SET

