#    Name: 3d78_NBB_3_ligand
#    Modification time : Mon Mar 24 22:48:11 2014

@<TRIPOS>MOLECULE
3d78_NBB_3_ligand
   29    29     1     0     0
SMALL
NO_CHARGES


@<TRIPOS>ATOM
      1 O1S        22.7290   33.1790  -21.3370 O.2       1 NBB121      0.0000 
      2 S          23.7570   32.1310  -21.1740 S.o2      1 NBB121      0.0000 
      3 O2S        23.8960   31.4620  -19.8720 O.2       1 NBB121      0.0000 
      4 N10        25.1500   32.7380  -21.4270 N.pl3     1 NBB121      0.0000 
      5 C11        25.3920   33.4270  -22.6960 C.3       1 NBB121      0.0000 
      6 C12        26.7410   34.1340  -22.5510 C.3       1 NBB121      0.0000 
      7 C13        26.7550   35.5890  -22.9940 C.3       1 NBB121      0.0000 
      8 C14        28.0520   35.8990  -23.7120 C.3       1 NBB121      0.0000 
      9 C4         23.5050   30.9660  -22.3080 C.ar      1 NBB121      0.0000 
     10 C5         24.1530   29.7330  -22.2770 C.ar      1 NBB121      0.0000 
     11 C6         23.9490   28.7370  -23.2280 C.ar      1 NBB121      0.0000 
     12 C1         23.0430   28.9540  -24.2600 C.ar      1 NBB121      0.0000 
     13 C2         22.3730   30.1660  -24.3050 C.ar      1 NBB121      0.0000 
     14 C3         22.6010   31.1580  -23.3540 C.ar      1 NBB121      0.0000 
     15 H          25.8360   32.6468  -20.7326 H         1 NBB121      0.0000 
     16 H          24.6345   34.1686  -22.8889 H         1 NBB121      0.0000 
     17 H          25.4564   32.7286  -23.5140 H         1 NBB121      0.0000 
     18 H          27.4987   33.5732  -23.1323 H         1 NBB121      0.0000 
     19 H          27.0583   34.0770  -21.4915 H         1 NBB121      0.0000 
     20 H          26.6594   36.2312  -22.1217 H         1 NBB121      0.0000 
     21 H          25.9167   35.7691  -23.6628 H         1 NBB121      0.0000 
     22 H          24.8306   29.5456  -21.4953 H         1 NBB121      0.0000 
     23 H          24.4619   27.8530  -23.1673 H         1 NBB121      0.0000 
     24 H          22.8773   28.2382  -24.9647 H         1 NBB121      0.0000 
     25 H          21.6850   30.3418  -25.0632 H         1 NBB121      0.0000 
     26 H          22.0899   32.0567  -23.4235 H         1 NBB121      0.0000 
     27 H          28.8471   35.7472  -23.1248 H         1 NBB121      0.0000 
     28 H          28.1733   35.3270  -24.5232 H         1 NBB121      0.0000 
     29 H          28.0898   36.8509  -24.0162 H         1 NBB121      0.0000 
@<TRIPOS>BOND
     1    2    1 2    
     2    3    2 2    
     3    4    2 1    
     4    9    2 1    
     5    5    4 1    
     6   15    4 1    
     7    6    5 1    
     8   16    5 1    
     9   17    5 1    
    10    7    6 1    
    11   18    6 1    
    12   19    6 1    
    13    8    7 1    
    14   20    7 1    
    15   21    7 1    
    16   27    8 1    
    17   28    8 1    
    18   29    8 1    
    19   10    9 ar   
    20   14    9 ar   
    21   11   10 ar   
    22   22   10 1    
    23   12   11 ar   
    24   23   11 1    
    25   13   12 ar   
    26   24   12 1    
    27   14   13 ar   
    28   25   13 1    
    29   26   14 1    
@<TRIPOS>SUBSTRUCTURE
     1 NBB121      1 GROUP   
@<TRIPOS>SET

