#    Name: 3pln_U5P_1_INTS_M
#    Modification time : Tue Mar 25 08:09:21 2014

@<TRIPOS>MOLECULE
3pln_U5P_1_INTS_M
   44     0    12     0     0
SMALL
NO_CHARGES


@<TRIPOS>ATOM
      1 O          25.2995   19.0680   40.8085 O.2       1 ALC1        0.0000 
      2 O          26.1860   18.7590   41.8510 O.2       9 ALL1        0.0000 
      3 O          24.4130   19.3770   39.7660 O.2       5 ALP1        0.0000 
      4 CA         29.4370   16.9735   42.9140 C.3       4 GLC5        0.0000 
      5 CA         27.6550   17.2210   43.0060 C.3      12 GLL5        0.0000 
      6 CA         31.2190   16.7260   42.8220 C.3       8 GLP5        0.0000 
      7 CA         29.4530   17.2955   44.1735 C.3       4 GLC5        0.0000 
      8 CA         27.7160   18.0980   44.0830 C.3      12 GLL5        0.0000 
      9 CA         31.1900   16.4930   44.2640 C.3       8 GLP5        0.0000 
     10 N          24.9600   21.8600   42.5795 N.am      2 SEC2        0.0000 
     11 N          25.6590   20.7230   42.8930 N.am     10 SEL2        0.0000 
     12 N          24.2610   22.9970   42.2660 N.am      6 SEP2        0.0000 
     13 N          26.2670   16.9720   39.6055 N.am      2 SEC2        0.0000 
     14 N          26.8050   16.7700   40.9480 N.am     10 SEL2        0.0000 
     15 N          25.7290   17.1740   38.2630 N.am      6 SEP2        0.0000 
     16 CA         28.3655   20.3815   43.5990 C.3       4 GLC5        0.0000 
     17 CA         27.0100   20.1900   45.2360 C.3      12 GLL5        0.0000 
     18 CA         29.7210   20.5730   41.9620 C.3       8 GLP5        0.0000 
     19 CA         27.4200   22.3350   45.2525 C.3       4 GLC5        0.0000 
     20 CA         27.8300   24.4800   45.2690 C.3       8 GLP5        0.0000 
     21 CA         27.1055   22.3120   48.2970 C.3       4 GLC5        0.0000 
     22 CA         26.9800   20.2110   47.5820 C.3      12 GLL5        0.0000 
     23 CA         27.2310   24.4130   49.0120 C.3       8 GLP5        0.0000 
     24 N          26.8960   22.7615   47.7015 N.am      2 SEC2        0.0000 
     25 N          26.3830   21.4960   47.7890 N.am     10 SEL2        0.0000 
     26 N          27.4090   24.0270   47.6140 N.am      6 SEP2        0.0000 
     27 NZ         30.0970   15.7800   49.4860 N.4       3 LYC4        0.0000 
     28 NZ         29.0670   17.0200   49.6480 N.4      11 LYL4        0.0000 
     29 NZ         30.8100   14.2910   50.5890 N.4       7 LYP4        0.0000 
     30 N          29.5015   16.0420   50.4490 N.am      2 SEC2        0.0000 
     31 N          29.0670   17.0200   49.6480 N.am     10 SEL2        0.0000 
     32 N          29.9360   15.0640   51.2500 N.am      6 SEP2        0.0000 
     33 N          30.0970   15.7800   49.4860 N.am      2 SEC2        0.0000 
     34 N          31.1270   14.5400   49.3240 N.am      6 SEP2        0.0000 
     35 NZ         30.8805   15.5015   48.5345 N.4       3 LYC4        0.0000 
     36 NZ         30.6340   16.4630   47.7450 N.4      11 LYL4        0.0000 
     37 N          30.8805   15.5015   48.5345 N.am      2 SEC2        0.0000 
     38 N          30.6340   16.4630   47.7450 N.am     10 SEL2        0.0000 
     39 N          30.9240   15.5935   46.8995 N.am      2 SEC2        0.0000 
     40 N          31.2140   14.7240   46.0540 N.am      6 SEP2        0.0000 
     41 CA         28.7033   19.1163   42.7533 C.3       4 GLC5        0.0000 
     42 CA         30.5172   20.7105   46.9205 C.3       4 GLC5        0.0000 
     43 CA         28.4210   20.3940   47.1030 C.3      12 GLL5        0.0000 
     44 CA         32.1570   21.5880   46.4860 C.3       8 GLP5        0.0000 
@<TRIPOS>BOND
@<TRIPOS>SUBSTRUCTURE
     1 ALC1        1 GROUP        1 X    ALC  0     ROOT ALC X 1
     2 SEC2       10 GROUP        1 X    SEC  0     **** SEC X 2
     3 LYC4       27 GROUP        1 X    LYC  0     **** LYC X 4
     4 GLC5        4 GROUP        1 X    GLC  0     **** GLC X 6
     5 ALP1        3 GROUP        1 Y    ALP  0     ROOT ALP Y 8
     6 SEP2       12 GROUP        1 Y    SEP  0     **** SEP Y 9
     7 LYP4       29 GROUP        1 Y    LYP  0     **** LYP Y 11
     8 GLP5        6 GROUP        1 Y    GLP  0     **** GLP Y 13
     9 ALL1        2 GROUP        1 Z    ALL  0     ROOT ALL Z 15
    10 SEL2       11 GROUP        1 Z    SEL  0     **** SEL Z 16
    11 LYL4       28 GROUP        1 Z    LYL  0     **** LYL Z 18
    12 GLL5        5 GROUP        1 Z    GLL  0     **** GLL Z 20
@<TRIPOS>SET

