#    Name: 3pln_U5P_1_ligand
#    Modification time : Tue Mar 25 08:09:21 2014

@<TRIPOS>MOLECULE
3pln_U5P_1_ligand
   32    33     1     0     0
SMALL
NO_CHARGES


@<TRIPOS>ATOM
      1 N1         27.0040   19.3010   44.0540 N.am      1 U5P901      0.0000 
      2 C2         26.2430   19.6430   42.9310 C.2       1 U5P901      0.0000 
      3 N3         26.1860   18.7590   41.8510 N.am      1 U5P901      0.0000 
      4 C4         26.8860   17.5500   41.8950 C.2       1 U5P901      0.0000 
      5 C5         27.6550   17.2210   43.0060 C.2       1 U5P901      0.0000 
      6 C6         27.7160   18.0980   44.0830 C.2       1 U5P901      0.0000 
      7 O2         25.6590   20.7230   42.8930 O.2       1 U5P901      0.0000 
      8 O4         26.8050   16.7700   40.9480 O.2       1 U5P901      0.0000 
      9 C1'        27.0100   20.1900   45.2360 C.3       1 U5P901      0.0000 
     10 C2'        26.3280   19.4870   46.4070 C.3       1 U5P901      0.0000 
     11 O2'        24.9150   19.7050   46.3190 O.3       1 U5P901      0.0000 
     12 C3'        26.9800   20.2110   47.5820 C.3       1 U5P901      0.0000 
     13 C4'        28.4210   20.3940   47.1030 C.3       1 U5P901      0.0000 
     14 O3'        26.3830   21.4960   47.7890 O.3       1 U5P901      0.0000 
     15 O4'        28.3720   20.3640   45.6610 O.3       1 U5P901      0.0000 
     16 C5'        29.3340   19.2720   47.6070 C.3       1 U5P901      0.0000 
     17 O5'        28.7210   18.0070   47.3320 O.3       1 U5P901      0.0000 
     18 P          29.2080   16.6690   48.0830 P.3       1 U5P901      0.0000 
     19 O1P        29.0670   17.0200   49.6480 O.co2     1 U5P901      0.0000 
     20 O2P        30.6340   16.4630   47.7450 O.co2     1 U5P901      0.0000 
     21 O3P        28.2200   15.6380   47.6950 O.co2     1 U5P901      0.0000 
     22 H          25.6282   18.9977   41.0220 H         1 U5P901      0.0000 
     23 H          28.1739   16.3368   43.0305 H         1 U5P901      0.0000 
     24 H          28.2867   17.8640   44.9068 H         1 U5P901      0.0000 
     25 H          26.5353   21.0981   45.0494 H         1 U5P901      0.0000 
     26 H          26.6277   18.4877   46.4066 H         1 U5P901      0.0000 
     27 H          26.9789   19.5871   48.4177 H         1 U5P901      0.0000 
     28 H          28.7821   21.3335   47.4525 H         1 U5P901      0.0000 
     29 H          29.4890   19.4236   48.6782 H         1 U5P901      0.0000 
     30 H          30.2981   19.3741   47.1024 H         1 U5P901      0.0000 
     31 H          24.7613   20.0320   45.3865 H         1 U5P901      0.0000 
     32 H          25.4266   21.3833   47.5197 H         1 U5P901      0.0000 
@<TRIPOS>BOND
     1    2    1 1    
     2    6    1 1    
     3    9    1 1    
     4    3    2 1    
     5    7    2 2    
     6    4    3 1    
     7   22    3 1    
     8    5    4 1    
     9    8    4 2    
    10    6    5 2    
    11   23    5 1    
    12   24    6 1    
    13   10    9 1    
    14   15    9 1    
    15   25    9 1    
    16   11   10 1    
    17   12   10 1    
    18   26   10 1    
    19   31   11 1    
    20   13   12 1    
    21   14   12 1    
    22   27   12 1    
    23   15   13 1    
    24   16   13 1    
    25   28   13 1    
    26   32   14 1    
    27   17   16 1    
    28   29   16 1    
    29   30   16 1    
    30   18   17 1    
    31   19   18 ar   
    32   20   18 ar   
    33   21   18 ar   
@<TRIPOS>SUBSTRUCTURE
     1 U5P901      1 GROUP   
@<TRIPOS>SET

