#    Name: 4anw_O92_1_INTS_M
#    Modification time : Tue Mar 25 05:51:57 2014

@<TRIPOS>MOLECULE
4anw_O92_1_INTS_M
   64     0     9     0     0
SMALL
NO_CHARGES


@<TRIPOS>ATOM
      1 CA         47.2150   16.4200   33.9990 C.3       3 GLC5        0.0000 
      2 CA         47.5780   17.6520   32.5630 C.3       9 GLL5        0.0000 
      3 CA         46.8520   15.1880   35.4350 C.3       6 GLP5        0.0000 
      4 CA         46.8440   13.0110   32.4755 C.3       3 GLC5        0.0000 
      5 CA         47.6430   14.2350   30.8340 C.3       9 GLL5        0.0000 
      6 CA         46.0450   11.7870   34.1170 C.3       6 GLP5        0.0000 
      7 CA         49.9315   11.8105   30.7685 C.3       3 GLC5        0.0000 
      8 CA         48.4500   13.2700   30.2020 C.3       9 GLL5        0.0000 
      9 CA         51.4130   10.3510   31.3350 C.3       6 GLP5        0.0000 
     10 O          50.4940   12.7595   29.0295 O.2       1 ALC1        0.0000 
     11 O          49.7520   13.4990   30.0030 O.2       7 ALL1        0.0000 
     12 O          51.2360   12.0200   28.0560 O.2       4 ALP1        0.0000 
     13 N          48.6555   10.9430   29.1500 N.am      2 SEC2        0.0000 
     14 N          47.8990   12.0940   29.8050 N.am      8 SEL2        0.0000 
     15 N          49.4120    9.7920   28.4950 N.am      5 SEP2        0.0000 
     16 CA         47.9645   10.4195   30.3870 C.3       3 GLC5        0.0000 
     17 CA         46.6120   11.8420   29.9970 C.3       9 GLL5        0.0000 
     18 CA         49.3170    8.9970   30.7770 C.3       6 GLP5        0.0000 
     19 CA         43.1435   12.7700   28.5480 C.3       3 GLC5        0.0000 
     20 CA         43.6370   11.9230   29.9850 C.3       9 GLL5        0.0000 
     21 CA         42.6500   13.6170   27.1110 C.3       6 GLP5        0.0000 
     22 CA         41.8540   12.9520   29.0675 C.3       3 GLC5        0.0000 
     23 CA         42.2880   11.7840   30.2720 C.3       9 GLL5        0.0000 
     24 CA         41.4200   14.1200   27.8630 C.3       6 GLP5        0.0000 
     25 CA         40.6255   10.6165   32.8230 C.3       3 GLC5        0.0000 
     26 CA         40.0550   12.1140   31.6980 C.3       9 GLL5        0.0000 
     27 CA         41.1960    9.1190   33.9480 C.3       6 GLP5        0.0000 
     28 CA         41.8555   11.0960   33.1400 C.3       3 GLC5        0.0000 
     29 CA         42.5150   13.0730   32.3320 C.3       9 GLL5        0.0000 
     30 N          40.0445   12.4490   34.8125 N.am      2 SEC2        0.0000 
     31 N          41.1050   12.8370   34.6690 N.am      8 SEL2        0.0000 
     32 N          38.9840   12.0610   34.9560 N.am      5 SEP2        0.0000 
     33 CA         42.9275   17.1975   31.1225 C.3       3 GLC5        0.0000 
     34 CA         43.7160   18.6900   32.5670 C.3       9 GLL5        0.0000 
     35 CA         42.1390   15.7050   29.6780 C.3       6 GLP5        0.0000 
     36 CA         47.8188   15.0457   29.3050 C.3       3 GLC5        0.0000 
     37 CA         47.5910   16.3390   28.0920 C.3       6 GLP5        0.0000 
     38 CA         46.1258   12.0563   32.2120 C.3       3 GLC5        0.0000 
     39 CA         45.8010   12.8090   30.6170 C.3       9 GLL5        0.0000 
     40 CA         46.0637   14.0457   29.1475 C.3       3 GLC5        0.0000 
     41 CA         45.9210   15.7660   27.9880 C.3       6 GLP5        0.0000 
     42 CA         43.7968   10.4647   31.0505 C.3       3 GLC5        0.0000 
     43 CA         44.4360   12.6380   30.8690 C.3       9 GLL5        0.0000 
     44 CA         43.5570    8.6490   31.6740 C.3       6 GLP5        0.0000 
     45 CA         43.1472   14.3133   30.5628 C.3       3 GLC5        0.0000 
     46 CA         42.7828   10.3560   31.2610 C.3       3 GLC5        0.0000 
     47 CA         41.7290   12.3420   31.4240 C.3       9 GLL5        0.0000 
     48 CA         42.1305   14.2063   30.7780 C.3       3 GLC5        0.0000 
     49 CA         39.2835   12.8855   30.7510 C.3       3 GLC5        0.0000 
     50 CA         37.6750   13.5430   29.9410 C.3       6 GLP5        0.0000 
     51 CA         44.6901   12.3921   33.0034 C.3       3 GLC5        0.0000 
     52 CA         45.3267   15.5675   35.3328 C.3       3 GLC5        0.0000 
     53 CA         43.5160   15.6840   34.6300 C.3       9 GLL5        0.0000 
     54 CA         43.2848   14.9790   36.9323 C.3       3 GLC5        0.0000 
     55 CA         44.0870   16.2100   35.8310 C.3       9 GLL5        0.0000 
     56 CA         42.7680   14.0110   38.6340 C.3       6 GLP5        0.0000 
     57 CA         45.6762   16.5883   35.4120 C.3       3 GLC5        0.0000 
     58 CA         44.5750   17.5880   35.9520 C.3       9 GLL5        0.0000 
     59 CA         43.2017   17.9465   36.8479 C.3       3 GLC5        0.0000 
     60 CA         42.0250   18.2490   38.3370 C.3       6 GLP5        0.0000 
     61 CA         45.2445   16.2077   34.5160 C.3       3 GLC5        0.0000 
     62 CA         43.8560   17.8860   33.6480 C.3       9 GLL5        0.0000 
     63 CA         42.6430   16.0478   31.3180 C.3       3 GLC5        0.0000 
     64 CA         43.4180   16.5690   33.5460 C.3       9 GLL5        0.0000 
@<TRIPOS>BOND
@<TRIPOS>SUBSTRUCTURE
     1 ALC1       10 GROUP        1 X    ALC  0     ROOT ALC X 1
     2 SEC2       13 GROUP        1 X    SEC  0     **** SEC X 2
     3 GLC5        1 GROUP        1 X    GLC  0     **** GLC X 6
     4 ALP1       12 GROUP        1 Y    ALP  0     ROOT ALP Y 8
     5 SEP2       15 GROUP        1 Y    SEP  0     **** SEP Y 9
     6 GLP5        3 GROUP        1 Y    GLP  0     **** GLP Y 13
     7 ALL1       11 GROUP        1 Z    ALL  0     ROOT ALL Z 15
     8 SEL2       14 GROUP        1 Z    SEL  0     **** SEL Z 16
     9 GLL5        2 GROUP        1 Z    GLL  0     **** GLL Z 20
@<TRIPOS>SET

