#    Name: 4anw_O92_1_ligand
#    Modification time : Tue Mar 25 05:51:57 2014

@<TRIPOS>MOLECULE
4anw_O92_1_ligand
   44    46     1     0     0
SMALL
NO_CHARGES


@<TRIPOS>ATOM
      1 C12        47.5780   17.6520   32.5630 C.3       1 O921189     0.0000 
      2 N3         47.2490   16.3180   32.0220 N.am      1 O921189     0.0000 
      3 C6         48.1620   15.6060   31.3230 C.2       1 O921189     0.0000 
      4 O1         49.3120   15.9660   31.0550 O.2       1 O921189     0.0000 
      5 C4         47.6430   14.2350   30.8340 C.ar      1 O921189     0.0000 
      6 N2         46.3420   13.9730   31.0110 N.ar      1 O921189     0.0000 
      7 C3         48.4500   13.2700   30.2020 C.ar      1 O921189     0.0000 
      8 N4         49.7520   13.4990   30.0030 N.pl3     1 O921189     0.0000 
      9 N1         47.8990   12.0940   29.8050 N.ar      1 O921189     0.0000 
     10 C2         46.6120   11.8420   29.9970 C.ar      1 O921189     0.0000 
     11 C1         45.8010   12.8090   30.6170 C.ar      1 O921189     0.0000 
     12 C5         44.4360   12.6380   30.8690 C.ar      1 O921189     0.0000 
     13 C11        43.8750   13.2050   32.0260 C.ar      1 O921189     0.0000 
     14 C7         43.6370   11.9230   29.9850 C.ar      1 O921189     0.0000 
     15 C8         42.2880   11.7840   30.2720 C.ar      1 O921189     0.0000 
     16 C9         41.7290   12.3420   31.4240 C.ar      1 O921189     0.0000 
     17 CL1        40.0550   12.1140   31.6980 Cl        1 O921189     0.0000 
     18 C10        42.5150   13.0730   32.3320 C.ar      1 O921189     0.0000 
     19 S1         41.8480   13.8400   33.8570 S.o2      1 O921189     0.0000 
     20 O2         40.8990   14.9740   33.5160 O.2       1 O921189     0.0000 
     21 O3         41.1050   12.8370   34.6690 O.2       1 O921189     0.0000 
     22 N5         43.1300   14.3940   34.6740 N.pl3     1 O921189     0.0000 
     23 C14        43.5160   15.6840   34.6300 C.ar      1 O921189     0.0000 
     24 C17        44.0870   16.2100   35.8310 C.ar      1 O921189     0.0000 
     25 C18        44.5750   17.5880   35.9520 C.ar      1 O921189     0.0000 
     26 C15        44.4260   18.3890   34.8260 C.ar      1 O921189     0.0000 
     27 C16        43.8560   17.8860   33.6480 C.ar      1 O921189     0.0000 
     28 F2         43.7160   18.6900   32.5670 F         1 O921189     0.0000 
     29 C13        43.4180   16.5690   33.5460 C.ar      1 O921189     0.0000 
     30 F1         42.8760   16.2120   32.3700 F         1 O921189     0.0000 
     31 H          46.2981   15.9728   32.2083 H         1 O921189     0.0000 
     32 H          50.2583   12.7780   29.5299 H         1 O921189     0.0000 
     33 H          50.1028   14.3708   30.3451 H         1 O921189     0.0000 
     34 H          46.1727   10.9522   29.7063 H         1 O921189     0.0000 
     35 H          44.4892   13.7374   32.6720 H         1 O921189     0.0000 
     36 H          44.0364   11.5096   29.1427 H         1 O921189     0.0000 
     37 H          41.6773   11.2556   29.6208 H         1 O921189     0.0000 
     38 H          43.5894   13.6523   35.2095 H         1 O921189     0.0000 
     39 H          44.1663   15.6020   36.6619 H         1 O921189     0.0000 
     40 H          44.9801   17.8931   36.8000 H         1 O921189     0.0000 
     41 H          44.7396   19.3747   34.8523 H         1 O921189     0.0000 
     42 H          48.3467   17.6146   33.2015 H         1 O921189     0.0000 
     43 H          47.8292   18.2947   31.8392 H         1 O921189     0.0000 
     44 H          46.8063   18.0533   33.0565 H         1 O921189     0.0000 
@<TRIPOS>BOND
     1    2    1 1    
     2   42    1 1    
     3   43    1 1    
     4   44    1 1    
     5    3    2 am   
     6   31    2 1    
     7    4    3 2    
     8    5    3 1    
     9    6    5 ar   
    10    7    5 ar   
    11   11    6 ar   
    12    8    7 1    
    13    9    7 ar   
    14   32    8 1    
    15   33    8 1    
    16   10    9 ar   
    17   11   10 ar   
    18   34   10 1    
    19   12   11 1    
    20   13   12 ar   
    21   14   12 ar   
    22   18   13 ar   
    23   35   13 1    
    24   15   14 ar   
    25   36   14 1    
    26   16   15 ar   
    27   37   15 1    
    28   17   16 1    
    29   18   16 ar   
    30   19   18 1    
    31   20   19 2    
    32   21   19 2    
    33   22   19 1    
    34   23   22 1    
    35   38   22 1    
    36   24   23 ar   
    37   29   23 ar   
    38   25   24 ar   
    39   39   24 1    
    40   26   25 ar   
    41   40   25 1    
    42   27   26 ar   
    43   41   26 1    
    44   28   27 1    
    45   29   27 ar   
    46   30   29 1    
@<TRIPOS>SUBSTRUCTURE
     1 O921189     1 GROUP   
@<TRIPOS>SET

