#    Name: 1h69_ARH_4_INTS_M
#    Modification time : Tue Mar 25 04:47:54 2014

@<TRIPOS>MOLECULE
1h69_ARH_4_INTS_M
   53     0     9     0     0
SMALL
NO_CHARGES


@<TRIPOS>ATOM
      1 CA        -43.5995  -53.5620  -46.8010 C.3       3 GLC5        0.0000 
      2 CA        -45.4690  -53.3810  -45.7670 C.3       9 GLL5        0.0000 
      3 CA        -41.7300  -53.7430  -47.8350 C.3       6 GLP5        0.0000 
      4 CA        -44.2215  -53.2120  -42.9385 C.3       3 GLC5        0.0000 
      5 CA        -45.7010  -53.7950  -44.4250 C.3       9 GLL5        0.0000 
      6 CA        -42.7420  -52.6290  -41.4520 C.3       6 GLP5        0.0000 
      7 CA        -44.3185  -52.0185  -42.5620 C.3       3 GLC5        0.0000 
      8 CA        -45.8950  -51.4080  -43.6720 C.3       9 GLL5        0.0000 
      9 N         -44.3875  -50.2540  -47.6160 N.am      2 SEC2        0.0000 
     10 N         -45.2090  -51.5620  -47.2400 N.am      8 SEL2        0.0000 
     11 N         -43.5660  -48.9460  -47.9920 N.am      5 SEP2        0.0000 
     12 CA        -44.9110  -50.8895  -40.1780 C.3       3 GLC5        0.0000 
     13 CA        -45.9060  -49.8950  -41.3610 C.3       9 GLL5        0.0000 
     14 CA        -43.9160  -51.8840  -38.9950 C.3       6 GLP5        0.0000 
     15 CA        -47.5305  -48.4015  -43.3395 C.3       3 GLC5        0.0000 
     16 CA        -46.1750  -49.0460  -42.5040 C.3       9 GLL5        0.0000 
     17 CA        -48.8860  -47.7570  -44.1750 C.3       6 GLP5        0.0000 
     18 CA        -46.6315  -48.3530  -44.2340 C.3       3 GLC5        0.0000 
     19 CA        -44.9930  -48.4170  -43.1830 C.3       9 GLL5        0.0000 
     20 CA        -48.2700  -48.2890  -45.2850 C.3       6 GLP5        0.0000 
     21 CA        -45.9055  -55.2575  -49.9360 C.3       3 GLC5        0.0000 
     22 CA        -45.0770  -54.4580  -48.0710 C.3       9 GLL5        0.0000 
     23 CA        -46.7340  -56.0570  -51.8010 C.3       6 GLP5        0.0000 
     24 CA        -43.4035  -54.1005  -47.9530 C.3       3 GLC5        0.0000 
     25 CA        -44.2975  -53.1860  -49.4045 C.3       3 GLC5        0.0000 
     26 CA        -43.5180  -51.9140  -50.7380 C.3       6 GLP5        0.0000 
     27 CA        -46.8980  -56.8295  -41.3040 C.3       3 GLC5        0.0000 
     28 CA        -45.9020  -56.0290  -43.0880 C.3       9 GLL5        0.0000 
     29 CA        -47.8940  -57.6300  -39.5200 C.3       6 GLP5        0.0000 
     30 CA        -47.7105  -55.2105  -43.9810 C.3       3 GLC5        0.0000 
     31 CA        -49.5190  -54.3920  -44.8740 C.3       6 GLP5        0.0000 
     32 CA        -43.9550  -56.0710  -43.9940 C.3       3 GLC5        0.0000 
     33 CA        -42.0080  -56.1130  -44.9000 C.3       6 GLP5        0.0000 
     34 O         -48.2015  -55.4035  -43.1475 O.2       1 ALC1        0.0000 
     35 O         -47.2550  -56.0220  -42.6860 O.2       7 ALL1        0.0000 
     36 O         -49.1480  -54.7850  -43.6090 O.2       4 ALP1        0.0000 
     37 CA        -44.4222  -55.3343  -42.3610 C.3       3 GLC5        0.0000 
     38 CA        -45.6930  -55.2060  -44.3880 C.3       9 GLL5        0.0000 
     39 CA        -43.0470  -55.0510  -40.9840 C.3       6 GLP5        0.0000 
     40 CA        -44.5035  -47.2923  -43.1013 C.3       3 GLC5        0.0000 
     41 CA        -43.4230  -45.8530  -43.3590 C.3       6 GLP5        0.0000 
     42 CA        -46.4439  -47.6779  -41.5209 C.3       3 GLC5        0.0000 
     43 CA        -47.3710  -46.4120  -40.4840 C.3       6 GLP5        0.0000 
     44 CA        -44.6010  -60.3760  -48.7392 C.3       3 GLC5        0.0000 
     45 CA        -45.1100  -58.9310  -47.8980 C.3       9 GLL5        0.0000 
     46 CA        -44.0120  -61.3090  -50.0650 C.3       6 GLP5        0.0000 
     47 CA        -43.7445  -60.9635  -45.7780 C.3       3 GLC5        0.0000 
     48 CA        -45.2700  -59.9550  -46.9290 C.3       9 GLL5        0.0000 
     49 CA        -42.1080  -62.1510  -45.2990 C.3       6 GLP5        0.0000 
     50 CA        -43.7129  -56.9532  -45.4679 C.3       3 GLC5        0.0000 
     51 CA        -45.5520  -58.2250  -45.2240 C.3       9 GLL5        0.0000 
     52 CA        -43.7951  -55.3110  -44.9907 C.3       3 GLC5        0.0000 
     53 CA        -45.4660  -55.6540  -45.7460 C.3       9 GLL5        0.0000 
@<TRIPOS>BOND
@<TRIPOS>SUBSTRUCTURE
     1 ALC1       34 GROUP        1 X    ALC  0     ROOT ALC X 1
     2 SEC2        9 GROUP        1 X    SEC  0     **** SEC X 2
     3 GLC5        1 GROUP        1 X    GLC  0     **** GLC X 6
     4 ALP1       36 GROUP        1 Y    ALP  0     ROOT ALP Y 8
     5 SEP2       11 GROUP        1 Y    SEP  0     **** SEP Y 9
     6 GLP5        3 GROUP        1 Y    GLP  0     **** GLP Y 13
     7 ALL1       35 GROUP        1 Z    ALL  0     ROOT ALL Z 15
     8 SEL2       10 GROUP        1 Z    SEL  0     **** SEL Z 16
     9 GLL5        2 GROUP        1 Z    GLL  0     **** GLL Z 20
@<TRIPOS>SET

