#    Name: 1h69_ARH_4_ligand
#    Modification time : Tue Mar 25 04:47:54 2014

@<TRIPOS>MOLECULE
1h69_ARH_4_ligand
   42    45     1     0     0
SMALL
NO_CHARGES


@<TRIPOS>ATOM
      1 C1        -45.6580  -51.0030  -44.9770 C.2       1 ARH1275     0.0000 
      2 C2        -45.4140  -51.9860  -46.1040 C.2       1 ARH1275     0.0000 
      3 C3        -45.4690  -53.3810  -45.7670 C.2       1 ARH1275     0.0000 
      4 C4        -45.7010  -53.7950  -44.4250 C.2       1 ARH1275     0.0000 
      5 C5        -45.9080  -52.8840  -43.3420 C.2       1 ARH1275     0.0000 
      6 C6        -45.8950  -51.4080  -43.6720 C.2       1 ARH1275     0.0000 
      7 N7        -45.3240  -54.4990  -46.5860 N.pl3     1 ARH1275     0.0000 
      8 C8        -45.4660  -55.6540  -45.7460 C.2       1 ARH1275     0.0000 
      9 C9        -45.6930  -55.2060  -44.3880 C.2       1 ARH1275     0.0000 
     10 O10       -46.1050  -53.2740  -42.1920 O.2       1 ARH1275     0.0000 
     11 O11       -45.2090  -51.5620  -47.2400 O.2       1 ARH1275     0.0000 
     12 N12       -46.2300  -50.5420  -42.6600 N.pl3     1 ARH1275     0.0000 
     13 C13       -45.9060  -49.8950  -41.3610 C.3       1 ARH1275     0.0000 
     14 C14       -46.1750  -49.0460  -42.5040 C.3       1 ARH1275     0.0000 
     15 C17       -44.9930  -48.4170  -43.1830 C.3       1 ARH1275     0.0000 
     16 C25       -45.0770  -54.4580  -48.0710 C.3       1 ARH1275     0.0000 
     17 C32       -45.3940  -57.1600  -46.1750 C.ar      1 ARH1275     0.0000 
     18 C33       -45.9020  -56.0290  -43.0880 C.3       1 ARH1275     0.0000 
     19 O34       -47.2550  -56.0220  -42.6860 O.3       1 ARH1275     0.0000 
     20 C38       -45.1730  -57.5640  -47.5200 C.ar      1 ARH1275     0.0000 
     21 C39       -45.1100  -58.9310  -47.8980 C.ar      1 ARH1275     0.0000 
     22 C40       -45.2700  -59.9550  -46.9290 C.ar      1 ARH1275     0.0000 
     23 C41       -45.4920  -59.5970  -45.5850 C.ar      1 ARH1275     0.0000 
     24 C42       -45.5520  -58.2250  -45.2240 C.ar      1 ARH1275     0.0000 
     25 H         -45.6363  -50.0101  -45.2441 H         1 ARH1275     0.0000 
     26 H         -44.9589  -49.9603  -41.2141 H         1 ARH1275     0.0000 
     27 H         -46.6804  -49.9407  -40.7945 H         1 ARH1275     0.0000 
     28 H         -47.0606  -48.7231  -42.4778 H         1 ARH1275     0.0000 
     29 H         -45.2353  -55.5925  -42.3255 H         1 ARH1275     0.0000 
     30 H         -45.5306  -57.0469  -43.2937 H         1 ARH1275     0.0000 
     31 H         -45.0543  -56.8378  -48.2462 H         1 ARH1275     0.0000 
     32 H         -44.9480  -59.1793  -48.8766 H         1 ARH1275     0.0000 
     33 H         -45.2244  -60.9297  -47.2050 H         1 ARH1275     0.0000 
     34 H         -45.6095  -60.3143  -44.8723 H         1 ARH1275     0.0000 
     35 H         -45.7169  -57.9737  -44.2317 H         1 ARH1275     0.0000 
     36 H         -44.1282  -48.7644  -42.8205 H         1 ARH1275     0.0000 
     37 H         -44.9914  -48.5958  -44.1669 H         1 ARH1275     0.0000 
     38 H         -44.9822  -47.4240  -43.0655 H         1 ARH1275     0.0000 
     39 H         -44.2262  -53.9817  -48.2930 H         1 ARH1275     0.0000 
     40 H         -45.0095  -55.3760  -48.4618 H         1 ARH1275     0.0000 
     41 H         -45.8126  -53.9860  -48.5569 H         1 ARH1275     0.0000 
     42 H         -47.5934  -55.1138  -42.9324 H         1 ARH1275     0.0000 
@<TRIPOS>BOND
     1    2    1 1    
     2    6    1 2    
     3   25    1 1    
     4    3    2 1    
     5   11    2 2    
     6    4    3 2    
     7    7    3 1    
     8    5    4 1    
     9    9    4 1    
    10    6    5 1    
    11   10    5 2    
    12   12    6 1    
    13    8    7 1    
    14   16    7 1    
    15    9    8 2    
    16   17    8 1    
    17   18    9 1    
    18   13   12 1    
    19   14   12 1    
    20   14   13 1    
    21   26   13 1    
    22   27   13 1    
    23   15   14 1    
    24   28   14 1    
    25   36   15 1    
    26   37   15 1    
    27   38   15 1    
    28   39   16 1    
    29   40   16 1    
    30   41   16 1    
    31   20   17 ar   
    32   24   17 ar   
    33   19   18 1    
    34   29   18 1    
    35   30   18 1    
    36   42   19 1    
    37   21   20 ar   
    38   31   20 1    
    39   22   21 ar   
    40   32   21 1    
    41   23   22 ar   
    42   33   22 1    
    43   24   23 ar   
    44   34   23 1    
    45   35   24 1    
@<TRIPOS>SUBSTRUCTURE
     1 ARH1275     1 GROUP   
@<TRIPOS>SET

