#    Name: 3ba6_AN2_1_INTS_M
#    Modification time : Mon Mar 24 19:12:06 2014

@<TRIPOS>MOLECULE
3ba6_AN2_1_INTS_M
   60     0    12     0     0
SMALL
NO_CHARGES


@<TRIPOS>ATOM
      1 O         -17.5255    4.4400   14.4060 O.2       1 ALC1        0.0000 
      2 O         -16.4450    3.9360   13.9550 O.2       9 ALL1        0.0000 
      3 O         -18.6060    4.9440   14.8570 O.2       5 ALP1        0.0000 
      4 O         -15.5650    4.8175   14.6555 O.2       1 ALC1        0.0000 
      5 O         -14.6850    5.6990   15.3560 O.2       5 ALP1        0.0000 
      6 NZ        -18.7055    2.6680   11.5595 N.4       3 LYC4        0.0000 
      7 NZ        -17.6020    2.6670   12.2240 N.4      11 LYL4        0.0000 
      8 NZ        -20.6770    3.6710   10.9320 N.4       7 LYP4        0.0000 
      9 N         -18.7055    2.6680   11.5595 N.am      2 SEC2        0.0000 
     10 N         -17.6020    2.6670   12.2240 N.am     10 SEL2        0.0000 
     11 N         -19.8090    2.6690   10.8950 N.am      6 SEP2        0.0000 
     12 NZ        -15.5475   -1.9395   12.6410 N.4       3 LYC4        0.0000 
     13 NZ        -15.2240   -0.9240   12.1660 N.4      11 LYL4        0.0000 
     14 NZ        -15.4580   -4.2290   12.9760 N.4       7 LYP4        0.0000 
     15 N         -15.5475   -1.9395   12.6410 N.am      2 SEC2        0.0000 
     16 N         -15.2240   -0.9240   12.1660 N.am     10 SEL2        0.0000 
     17 N         -15.8710   -2.9550   13.1160 N.am      6 SEP2        0.0000 
     18 CA        -13.5890    2.5970   11.1195 C.3       4 GLC5        0.0000 
     19 CA        -14.8150    1.6730    9.5130 C.3      12 GLL5        0.0000 
     20 CA        -12.3630    3.5210   12.7260 C.3       8 GLP5        0.0000 
     21 CA        -14.1295    1.1025    6.8680 C.3       4 GLC5        0.0000 
     22 CA        -15.6120    1.9470    8.2350 C.3      12 GLL5        0.0000 
     23 CA        -12.6470    0.2580    5.5010 C.3       8 GLP5        0.0000 
     24 CA        -15.2680    2.7760    6.3420 C.3       4 GLC5        0.0000 
     25 CA        -14.9240    3.6050    4.4490 C.3       8 GLP5        0.0000 
     26 O         -17.6995    4.6725    6.7240 O.2       1 ALC1        0.0000 
     27 O         -17.8870    3.4250    6.6930 O.2       9 ALL1        0.0000 
     28 O         -17.5120    5.9200    6.7550 O.2       5 ALP1        0.0000 
     29 CA        -16.6960   -0.6995    7.0725 C.3       4 GLC5        0.0000 
     30 CA        -17.3320    1.0870    6.9370 C.3      12 GLL5        0.0000 
     31 CA        -16.0600   -2.4860    7.2080 C.3       8 GLP5        0.0000 
     32 CA        -19.7190    0.6170    5.8010 C.3       4 GLC5        0.0000 
     33 CA        -18.9360   -0.9370    6.4740 C.3      12 GLL5        0.0000 
     34 CA        -20.5020    2.1710    5.1280 C.3       8 GLP5        0.0000 
     35 CA        -18.5610   -4.1245    5.6635 C.3       4 GLC5        0.0000 
     36 CA        -19.2880   -2.4570    4.7570 C.3      12 GLL5        0.0000 
     37 CA        -17.8340   -5.7920    6.5700 C.3       8 GLP5        0.0000 
     38 CA        -17.4665   -2.4675    3.7090 C.3       4 GLC5        0.0000 
     39 CA        -15.6450   -2.4780    2.6610 C.3       8 GLP5        0.0000 
     40 CA        -19.1035   -3.9145    3.9850 C.3       4 GLC5        0.0000 
     41 CA        -18.9190   -5.3720    3.2130 C.3       8 GLP5        0.0000 
     42 CA        -20.8500   -2.7645    4.2575 C.3       4 GLC5        0.0000 
     43 CA        -22.4120   -3.0720    3.7580 C.3       8 GLP5        0.0000 
     44 CA        -18.6025   -0.9600    3.5145 C.3       4 GLC5        0.0000 
     45 CA        -17.9170    0.5370    2.2720 C.3       8 GLP5        0.0000 
     46 CA        -22.2385   -3.5520    7.3755 C.3       4 GLC5        0.0000 
     47 CA        -20.1690   -3.0330    6.8540 C.3      12 GLL5        0.0000 
     48 CA        -24.3080   -4.0710    7.8970 C.3       8 GLP5        0.0000 
     49 CA        -20.6760   -4.6720    5.6765 C.3       4 GLC5        0.0000 
     50 CA        -21.1830   -6.3110    4.4990 C.3       8 GLP5        0.0000 
     51 CA        -21.2905   -3.0525    5.3060 C.3       4 GLC5        0.0000 
     52 O         -22.2610   -4.9025    7.1070 O.2       1 ALC1        0.0000 
     53 O         -20.9390   -3.9410    7.6890 O.2       9 ALL1        0.0000 
     54 O         -23.5830   -5.8640    6.5250 O.2       5 ALP1        0.0000 
     55 CA        -15.6113   -0.3375    8.7370 C.3       4 GLC5        0.0000 
     56 CA        -16.0090   -2.4850    8.6000 C.3       8 GLP5        0.0000 
     57 CA        -16.2455    2.6700    5.8622 C.3       4 GLC5        0.0000 
     58 CA        -19.0345    1.9530    6.2018 C.3       4 GLC5        0.0000 
     59 CA        -18.8768   -4.1197    6.8400 C.3       4 GLC5        0.0000 
     60 CA        -19.6700   -1.8620    7.3660 C.3      12 GLL5        0.0000 
@<TRIPOS>BOND
@<TRIPOS>SUBSTRUCTURE
     1 ALC1        1 GROUP        1 X    ALC  0     ROOT ALC X 1
     2 SEC2        9 GROUP        1 X    SEC  0     **** SEC X 2
     3 LYC4        6 GROUP        1 X    LYC  0     **** LYC X 4
     4 GLC5       18 GROUP        1 X    GLC  0     **** GLC X 6
     5 ALP1        3 GROUP        1 Y    ALP  0     ROOT ALP Y 8
     6 SEP2       11 GROUP        1 Y    SEP  0     **** SEP Y 9
     7 LYP4        8 GROUP        1 Y    LYP  0     **** LYP Y 11
     8 GLP5       20 GROUP        1 Y    GLP  0     **** GLP Y 13
     9 ALL1        2 GROUP        1 Z    ALL  0     ROOT ALL Z 15
    10 SEL2       10 GROUP        1 Z    SEL  0     **** SEL Z 16
    11 LYL4        7 GROUP        1 Z    LYL  0     **** LYL Z 18
    12 GLL5       19 GROUP        1 Z    GLL  0     **** GLL Z 20
@<TRIPOS>SET

