#    Name: 3ba6_AN2_1_ligand
#    Modification time : Mon Mar 24 19:12:07 2014

@<TRIPOS>MOLECULE
3ba6_AN2_1_ligand
   41    43     1     0     0
SMALL
NO_CHARGES


@<TRIPOS>ATOM
      1 N3B       -16.4450    3.9360   13.9550 N.pl3     1 AN21001     0.0000 
      2 PB        -16.4150    2.8320   12.6190 P.3       1 AN21001     0.0000 
      3 O2B       -15.4300    3.4630   11.4890 O.co2     1 AN21001     0.0000 
      4 O1B       -17.6020    2.6670   12.2240 O.co2     1 AN21001     0.0000 
      5 O3A       -15.9320    1.3360   13.0050 O.3       1 AN21001     0.0000 
      6 PA        -15.0740    0.5220   11.8670 P.3       1 AN21001     0.0000 
      7 O1A       -13.4650    0.9470   11.9510 O.co2     1 AN21001     0.0000 
      8 O2A       -15.2240   -0.9240   12.1660 O.co2     1 AN21001     0.0000 
      9 O5'       -15.5760    0.7940   10.3210 O.3       1 AN21001     0.0000 
     10 C5'       -14.8150    1.6730    9.5130 C.3       1 AN21001     0.0000 
     11 C4'       -15.6120    1.9470    8.2350 C.3       1 AN21001     0.0000 
     12 O4'       -16.1160    0.7270    7.6300 O.3       1 AN21001     0.0000 
     13 C3'       -16.8560    2.6770    8.7530 C.3       1 AN21001     0.0000 
     14 O3'       -16.6040    4.0390    9.0740 O.3       1 AN21001     0.0000 
     15 C2'       -17.8020    2.3830    7.6140 C.3       1 AN21001     0.0000 
     16 O2'       -17.8870    3.4250    6.6930 O.3       1 AN21001     0.0000 
     17 C1'       -17.3320    1.0870    6.9370 C.3       1 AN21001     0.0000 
     18 N9        -18.3930    0.1390    7.2980 N.pl3     1 AN21001     0.0000 
     19 C8        -18.7030   -0.1630    8.6610 C.2       1 AN21001     0.0000 
     20 N7        -19.6740   -1.2210    8.6810 N.2       1 AN21001     0.0000 
     21 C5        -19.6700   -1.8620    7.3660 C.ar      1 AN21001     0.0000 
     22 C4        -18.9360   -0.9370    6.4740 C.ar      1 AN21001     0.0000 
     23 N3        -18.7570   -1.2560    5.2110 N.ar      1 AN21001     0.0000 
     24 C2        -19.2880   -2.4570    4.7570 C.ar      1 AN21001     0.0000 
     25 N1        -19.9880   -3.3400    5.5820 N.ar      1 AN21001     0.0000 
     26 C6        -20.1690   -3.0330    6.8540 C.ar      1 AN21001     0.0000 
     27 N6        -20.9390   -3.9410    7.6890 N.pl3     1 AN21001     0.0000 
     28 H         -17.2776    3.9340   14.5088 H         1 AN21001     0.0000 
     29 H         -15.6276    4.4984   14.0794 H         1 AN21001     0.0000 
     30 H         -13.8579    1.2417    9.2196 H         1 AN21001     0.0000 
     31 H         -14.6329    2.6307   10.0007 H         1 AN21001     0.0000 
     32 H         -15.0972    2.5645    7.5990 H         1 AN21001     0.0000 
     33 H         -17.1955    2.0832    9.6041 H         1 AN21001     0.0000 
     34 H         -18.7813    2.1518    8.0582 H         1 AN21001     0.0000 
     35 H         -17.2372    1.2316    5.9414 H         1 AN21001     0.0000 
     36 H         -18.3386    0.2541    9.4116 H         1 AN21001     0.0000 
     37 H         -19.1587   -2.7151    3.7486 H         1 AN21001     0.0000 
     38 H         -21.0645   -3.6634    8.6415 H         1 AN21001     0.0000 
     39 H         -21.2795   -4.7681    7.2419 H         1 AN21001     0.0000 
     40 H         -16.1879    4.0178    9.9831 H         1 AN21001     0.0000 
     41 H         -17.6179    4.2427    7.2019 H         1 AN21001     0.0000 
@<TRIPOS>BOND
     1    2    1 1    
     2   28    1 1    
     3   29    1 1    
     4    3    2 ar   
     5    4    2 ar   
     6    5    2 1    
     7    6    5 1    
     8    7    6 ar   
     9    8    6 ar   
    10    9    6 1    
    11   10    9 1    
    12   11   10 1    
    13   30   10 1    
    14   31   10 1    
    15   12   11 1    
    16   13   11 1    
    17   32   11 1    
    18   17   12 1    
    19   14   13 1    
    20   15   13 1    
    21   33   13 1    
    22   40   14 1    
    23   16   15 1    
    24   17   15 1    
    25   34   15 1    
    26   41   16 1    
    27   18   17 1    
    28   35   17 1    
    29   19   18 1    
    30   22   18 1    
    31   20   19 2    
    32   36   19 1    
    33   21   20 1    
    34   22   21 ar   
    35   26   21 ar   
    36   23   22 ar   
    37   24   23 ar   
    38   25   24 ar   
    39   37   24 1    
    40   26   25 ar   
    41   27   26 1    
    42   38   27 1    
    43   39   27 1    
@<TRIPOS>SUBSTRUCTURE
     1 AN21001     1 GROUP   
@<TRIPOS>SET

