#    Name: 2g20_L1A_2_INTS_M
#    Modification time : Tue Mar 25 13:26:22 2014

@<TRIPOS>MOLECULE
2g20_L1A_2_INTS_M
  112     0     9     0     0
SMALL
NO_CHARGES


@<TRIPOS>ATOM
      1 CA         11.5030   86.7595   79.1585 C.3       3 GLC5        0.0000 
      2 CA         13.1060   87.6870   78.3460 C.3       9 GLL5        0.0000 
      3 CA          9.9000   85.8320   79.9710 C.3       6 GLP5        0.0000 
      4 CA         13.9375   88.5125   79.6320 C.3       3 GLC5        0.0000 
      5 CA         13.1060   88.9880   77.7800 C.3       9 GLL5        0.0000 
      6 CA         14.7690   88.0370   81.4840 C.3       6 GLP5        0.0000 
      7 O          13.9200   90.7550   72.5420 O.2       1 ALC1        0.0000 
      8 O          14.7070   89.9000   71.8250 O.2       7 ALL1        0.0000 
      9 O          13.1330   91.6100   73.2590 O.2       4 ALP1        0.0000 
     10 CA         12.6390   89.6270   72.5250 C.3       3 GLC5        0.0000 
     11 CA         13.9270   88.1870   73.3280 C.3       9 GLL5        0.0000 
     12 CA         11.3510   91.0670   71.7220 C.3       6 GLP5        0.0000 
     13 N          16.0605   86.7815   70.7170 N.am      2 SEC2        0.0000 
     14 N          15.1430   87.7310   71.2870 N.am      8 SEL2        0.0000 
     15 N          16.9780   85.8320   70.1470 N.am      5 SEP2        0.0000 
     16 O          14.4650   85.7140   72.7870 O.2       1 ALC1        0.0000 
     17 O          13.4970   86.8000   73.2440 O.2       7 ALL1        0.0000 
     18 O          15.4330   84.6280   72.3300 O.2       4 ALP1        0.0000 
     19 O          17.9370   90.5805   71.5965 O.2       1 ALC1        0.0000 
     20 O          17.3170   91.7480   71.3580 O.2       7 ALL1        0.0000 
     21 O          18.5570   89.4130   71.8350 O.2       4 ALP1        0.0000 
     22 CA         13.8995   93.1710   68.0770 C.3       3 GLC5        0.0000 
     23 CA         14.9530   91.6220   67.3750 C.3       9 GLL5        0.0000 
     24 CA         12.8460   94.7200   68.7790 C.3       6 GLP5        0.0000 
     25 CA         16.4245   89.4285   68.1250 C.3       3 GLC5        0.0000 
     26 CA         14.7600   90.5500   68.1470 C.3       9 GLL5        0.0000 
     27 CA         18.0890   88.3070   68.1030 C.3       6 GLP5        0.0000 
     28 CA         13.5615   92.6430   69.1750 C.3       3 GLC5        0.0000 
     29 CA         14.2770   90.5660   69.5710 C.3       9 GLL5        0.0000 
     30 CA         12.5895   89.8750   68.3130 C.3       3 GLC5        0.0000 
     31 CA         10.9020   89.1840   67.0550 C.3       6 GLP5        0.0000 
     32 CA         16.7855   89.1490   70.1045 C.3       3 GLC5        0.0000 
     33 CA         15.3610   90.4630   70.6590 C.3       9 GLL5        0.0000 
     34 CA         18.2100   87.8350   69.5500 C.3       6 GLP5        0.0000 
     35 CA         14.6990   89.7615   64.3600 C.3       3 GLC5        0.0000 
     36 CA         15.5160   91.2220   65.7850 C.3       9 GLL5        0.0000 
     37 CA         13.8820   88.3010   62.9350 C.3       6 GLP5        0.0000 
     38 CA         13.7485   91.2425   65.6455 C.3       3 GLC5        0.0000 
     39 CA         11.9810   91.2630   65.5060 C.3       6 GLP5        0.0000 
     40 CA         15.5180   92.7410   64.4385 C.3       3 GLC5        0.0000 
     41 CA         15.5200   94.2600   63.0920 C.3       6 GLP5        0.0000 
     42 CA         16.5470   90.7540   64.4605 C.3       3 GLC5        0.0000 
     43 CA         17.5780   90.2860   63.1360 C.3       6 GLP5        0.0000 
     44 O          15.2700   88.9525   64.0900 O.2       1 ALC1        0.0000 
     45 O          15.8580   88.4340   65.2690 O.2       7 ALL1        0.0000 
     46 O          14.6820   89.4710   62.9110 O.2       4 ALP1        0.0000 
     47 N          14.3035   93.1330   70.1850 N.am      2 SEC2        0.0000 
     48 N          15.2770   92.8260   71.2660 N.am      8 SEL2        0.0000 
     49 N          13.3300   93.4400   69.1040 N.am      5 SEP2        0.0000 
     50 N          13.7180   93.4395   71.6235 N.am      2 SEC2        0.0000 
     51 N          12.1590   94.0530   71.9810 N.am      5 SEP2        0.0000 
     52 CA         19.6155   91.1010   71.7545 C.3       3 GLC5        0.0000 
     53 CA         18.2780   92.7960   71.8180 C.3       9 GLL5        0.0000 
     54 CA         20.9530   89.4060   71.6910 C.3       6 GLP5        0.0000 
     55 CA         20.5155   94.2825   69.7265 C.3       3 GLC5        0.0000 
     56 CA         18.6330   93.6560   70.5480 C.3       9 GLL5        0.0000 
     57 CA         22.3980   94.9090   68.9050 C.3       6 GLP5        0.0000 
     58 CA         20.3870   95.0815   68.7540 C.3       3 GLC5        0.0000 
     59 CA         18.3760   95.2540   68.6030 C.3       9 GLL5        0.0000 
     60 CA         16.1675   94.8195   64.8630 C.3       3 GLC5        0.0000 
     61 CA         16.8150   95.3790   66.6340 C.3       9 GLL5        0.0000 
     62 CA         18.8545   97.8275   64.8840 C.3       3 GLC5        0.0000 
     63 CA         18.5480   97.1540   66.9090 C.3       9 GLL5        0.0000 
     64 CA         19.1610   98.5010   62.8590 C.3       6 GLP5        0.0000 
     65 O          20.4465   92.5845   70.4240 O.2       1 ALC1        0.0000 
     66 O          19.0550   92.6940   69.6540 O.2       7 ALL1        0.0000 
     67 O          21.8380   92.4750   71.1940 O.2       4 ALP1        0.0000 
     68 O          20.2260   91.9895   69.2350 O.2       1 ALC1        0.0000 
     69 O          21.3970   91.2850   68.8160 O.2       4 ALP1        0.0000 
     70 CA          9.4885   88.4520   76.6830 C.3       3 GLC5        0.0000 
     71 CA          9.6860   86.8820   75.7530 C.3       9 GLL5        0.0000 
     72 CA          9.2910   90.0220   77.6130 C.3       6 GLP5        0.0000 
     73 CA          8.7930   86.3230   77.1110 C.3       3 GLC5        0.0000 
     74 CA          7.9000   85.7640   78.4690 C.3       6 GLP5        0.0000 
     75 CA         10.6155   89.5090   72.4085 C.3       3 GLC5        0.0000 
     76 CA          9.8800   87.9510   73.0950 C.3       9 GLL5        0.0000 
     77 CA          8.9670   89.0845   75.8000 C.3       3 GLC5        0.0000 
     78 CA          8.6430   88.1470   73.9870 C.3       9 GLL5        0.0000 
     79 CA         16.9570   94.6750   74.4100 C.3       3 GLC5        0.0000 
     80 CA         17.5470   92.8820   74.4050 C.3       9 GLL5        0.0000 
     81 CA         16.3670   96.4680   74.4150 C.3       6 GLP5        0.0000 
     82 CA         15.6245   94.3355   74.0495 C.3       3 GLC5        0.0000 
     83 CA         16.0360   92.5980   74.5900 C.3       9 GLL5        0.0000 
     84 CA         15.2130   96.0730   73.5090 C.3       6 GLP5        0.0000 
     85 CA         15.9535   94.4380   75.9365 C.3       3 GLC5        0.0000 
     86 CA         15.7120   92.2880   76.0820 C.3       9 GLL5        0.0000 
     87 CA         16.1950   96.5880   75.7910 C.3       6 GLP5        0.0000 
     88 CA         18.3655   92.4330   77.6435 C.3       3 GLC5        0.0000 
     89 CA         16.8370   91.5320   76.8750 C.3       9 GLL5        0.0000 
     90 CA         19.8940   93.3340   78.4120 C.3       6 GLP5        0.0000 
     91 CA         19.8620   89.8375   75.8790 C.3       3 GLC5        0.0000 
     92 CA         17.9170   90.8100   75.9990 C.3       9 GLL5        0.0000 
     93 CA         21.8070   88.8650   75.7590 C.3       6 GLP5        0.0000 
     94 CA         13.8140   86.8817   79.7585 C.3       3 GLC5        0.0000 
     95 CA         14.2230   86.6180   81.5160 C.3       6 GLP5        0.0000 
     96 CA         11.8733   90.0812   77.2050 C.3       3 GLC5        0.0000 
     97 CA         10.3420   91.0700   77.2590 C.3       6 GLP5        0.0000 
     98 CA         15.2398   85.2417   77.2235 C.3       3 GLC5        0.0000 
     99 CA         13.7040   86.6040   77.6560 C.3       9 GLL5        0.0000 
    100 CA         16.4760   83.7700   77.4200 C.3       6 GLP5        0.0000 
    101 CA         13.4187   91.1745   66.6335 C.3       3 GLC5        0.0000 
    102 CA         13.0850   90.7907   70.9185 C.3       3 GLC5        0.0000 
    103 CA         17.8470   94.9610   73.1633 C.3       3 GLC5        0.0000 
    104 CA         17.6290   96.7240   73.8890 C.3       6 GLP5        0.0000 
    105 CA         18.8286   95.4964   65.6494 C.3       3 GLC5        0.0000 
    106 CA         19.7790   94.5190   64.2690 C.3       6 GLP5        0.0000 
    107 CA         19.0160   92.2643   76.8825 C.3       3 GLC5        0.0000 
    108 CA         18.3590   91.5790   74.7070 C.3       9 GLL5        0.0000 
    109 CA         15.2707   92.6505   78.0232 C.3       3 GLC5        0.0000 
    110 CA         14.2670   93.3910   79.5680 C.3       6 GLP5        0.0000 
    111 CA         17.3720   89.8625   77.6535 C.3       3 GLC5        0.0000 
    112 CA         17.3670   88.5540   78.8700 C.3       6 GLP5        0.0000 
@<TRIPOS>BOND
@<TRIPOS>SUBSTRUCTURE
     1 ALC1        7 GROUP        1 X    ALC  0     ROOT ALC X 1
     2 SEC2       13 GROUP        1 X    SEC  0     **** SEC X 2
     3 GLC5        1 GROUP        1 X    GLC  0     **** GLC X 6
     4 ALP1        9 GROUP        1 Y    ALP  0     ROOT ALP Y 8
     5 SEP2       15 GROUP        1 Y    SEP  0     **** SEP Y 9
     6 GLP5        3 GROUP        1 Y    GLP  0     **** GLP Y 13
     7 ALL1        8 GROUP        1 Z    ALL  0     ROOT ALL Z 15
     8 SEL2       14 GROUP        1 Z    SEL  0     **** SEL Z 16
     9 GLL5        2 GROUP        1 Z    GLL  0     **** GLL Z 20
@<TRIPOS>SET

