#    Name: 2g20_L1A_2_ligand
#    Modification time : Tue Mar 25 13:26:23 2014

@<TRIPOS>MOLECULE
2g20_L1A_2_ligand
   97   100     1     0     0
SMALL
NO_CHARGES


@<TRIPOS>ATOM
      1 C1         13.1060   87.6870   78.3460 C.ar      1 L1A886      0.0000 
      2 C2         13.1060   88.9880   77.7800 C.ar      1 L1A886      0.0000 
      3 C3         13.7030   89.1970   76.5220 C.ar      1 L1A886      0.0000 
      4 C4         14.3060   88.1210   75.8220 C.ar      1 L1A886      0.0000 
      5 C5         14.3030   86.8230   76.3980 C.ar      1 L1A886      0.0000 
      6 C6         13.7040   86.6040   77.6560 C.ar      1 L1A886      0.0000 
      7 N1         14.7070   89.9000   71.8250 N.am      1 L1A886      0.0000 
      8 C7         14.6600   88.5780   72.0370 C.2       1 L1A886      0.0000 
      9 C8         13.9270   88.1870   73.3280 C.3       1 L1A886      0.0000 
     10 C9         14.9300   88.3670   74.4890 C.3       1 L1A886      0.0000 
     11 O1         15.1430   87.7310   71.2870 O.2       1 L1A886      0.0000 
     12 N2         13.4970   86.8000   73.2440 N.pl3     1 L1A886      0.0000 
     13 C10        15.9660   91.8180   71.1200 C.2       1 L1A886      0.0000 
     14 N3         17.3170   91.7480   71.3580 N.am      1 L1A886      0.0000 
     15 C11        14.9530   91.6220   67.3750 C.2       1 L1A886      0.0000 
     16 C12        14.7600   90.5500   68.1470 C.2       1 L1A886      0.0000 
     17 C13        14.2770   90.5660   69.5710 C.3       1 L1A886      0.0000 
     18 C14        15.3610   90.4630   70.6590 C.3       1 L1A886      0.0000 
     19 S1         15.5160   91.2220   65.7850 S.3       1 L1A886      0.0000 
     20 N4         15.8580   88.4340   65.2690 N.pl3     1 L1A886      0.0000 
     21 C15        15.5020   89.4880   66.1380 C.2       1 L1A886      0.0000 
     22 N5         15.0810   89.3170   67.4190 N.2       1 L1A886      0.0000 
     23 O2         15.2770   92.8260   71.2660 O.2       1 L1A886      0.0000 
     24 C16        18.2780   92.7960   71.8180 C.3       1 L1A886      0.0000 
     25 C17        17.8520   93.6000   73.0570 C.3       1 L1A886      0.0000 
     26 C18        18.6330   93.6560   70.5480 C.3       1 L1A886      0.0000 
     27 C19        17.6270   94.5840   69.7950 C.3       1 L1A886      0.0000 
     28 C20        18.3760   95.2540   68.6030 C.3       1 L1A886      0.0000 
     29 C21        17.6020   96.2080   67.6670 C.3       1 L1A886      0.0000 
     30 C22        16.8150   95.3790   66.6340 C.3       1 L1A886      0.0000 
     31 C23        18.5480   97.1540   66.9090 C.3       1 L1A886      0.0000 
     32 O3         19.0550   92.6940   69.6540 O.3       1 L1A886      0.0000 
     33 O4         17.1630   95.5980   70.6410 O.3       1 L1A886      0.0000 
     34 O5          9.0490   88.1020   75.3530 O.3       1 L1A886      0.0000 
     35 C24         9.6860   86.8820   75.7530 C.3       1 L1A886      0.0000 
     36 C25        10.9190   86.6520   74.8690 C.3       1 L1A886      0.0000 
     37 S2         12.0330   86.4540   72.4220 S.o2      1 L1A886      0.0000 
     38 N6         10.6360   86.7050   73.4260 N.pl3     1 L1A886      0.0000 
     39 C26         9.8800   87.9510   73.0950 C.3       1 L1A886      0.0000 
     40 C27         8.6430   88.1470   73.9870 C.3       1 L1A886      0.0000 
     41 O6         12.0510   85.0590   72.1430 O.2       1 L1A886      0.0000 
     42 O7         11.9620   87.4210   71.3640 O.2       1 L1A886      0.0000 
     43 C28        18.3590   91.5790   74.7070 C.3       1 L1A886      0.0000 
     44 C29        17.5470   92.8820   74.4050 C.3       1 L1A886      0.0000 
     45 C30        16.0360   92.5980   74.5900 C.3       1 L1A886      0.0000 
     46 C31        15.7120   92.2880   76.0820 C.2       1 L1A886      0.0000 
     47 C32        16.8370   91.5320   76.8750 C.2       1 L1A886      0.0000 
     48 C33        17.9170   90.8100   75.9990 C.3       1 L1A886      0.0000 
     49 H          12.6712   87.5311   79.2581 H         1 L1A886      0.0000 
     50 H          12.6767   89.7608   78.2830 H         1 L1A886      0.0000 
     51 H          13.7041   90.1331   76.1048 H         1 L1A886      0.0000 
     52 H          14.7381   86.0466   75.8952 H         1 L1A886      0.0000 
     53 H          13.7000   85.6730   78.0685 H         1 L1A886      0.0000 
     54 H          14.2778   90.5796   72.4853 H         1 L1A886      0.0000 
     55 H          13.1159   88.8536   73.4747 H         1 L1A886      0.0000 
     56 H          15.7663   87.6745   74.3282 H         1 L1A886      0.0000 
     57 H          15.3294   89.3882   74.4399 H         1 L1A886      0.0000 
     58 H          13.9332   86.0256   73.5964 H         1 L1A886      0.0000 
     59 H          17.8081   90.7849   71.1962 H         1 L1A886      0.0000 
     60 H          14.8555   92.5553   67.4882 H         1 L1A886      0.0000 
     61 H          13.5546   89.7320   69.7254 H         1 L1A886      0.0000 
     62 H          13.6947   91.4982   69.7531 H         1 L1A886      0.0000 
     63 H          16.1411   89.8217   70.3322 H         1 L1A886      0.0000 
     64 H          19.2371   92.2629   72.0676 H         1 L1A886      0.0000 
     65 H          16.9427   94.2128   72.7856 H         1 L1A886      0.0000 
     66 H          18.6416   94.3819   73.2601 H         1 L1A886      0.0000 
     67 H          19.5217   94.2652   70.8233 H         1 L1A886      0.0000 
     68 H          16.8529   93.9776   69.3905 H         1 L1A886      0.0000 
     69 H          18.8280   94.4381   67.9803 H         1 L1A886      0.0000 
     70 H          19.2580   95.8071   69.0200 H         1 L1A886      0.0000 
     71 H          16.9095   96.7836   68.2401 H         1 L1A886      0.0000 
     72 H           9.0259   86.0211   75.6341 H         1 L1A886      0.0000 
     73 H          10.0227   86.9207   76.7904 H         1 L1A886      0.0000 
     74 H          11.3531   85.6697   75.1405 H         1 L1A886      0.0000 
     75 H          11.6782   87.4116   75.1407 H         1 L1A886      0.0000 
     76 H           9.5490   87.9231   72.0472 H         1 L1A886      0.0000 
     77 H          10.5317   88.8285   73.2110 H         1 L1A886      0.0000 
     78 H           8.1952   89.1071   73.7231 H         1 L1A886      0.0000 
     79 H           7.9323   87.3548   73.7436 H         1 L1A886      0.0000 
     80 H          19.4209   91.8429   74.8047 H         1 L1A886      0.0000 
     81 H          18.2645   90.9005   73.8482 H         1 L1A886      0.0000 
     82 H          17.8118   93.6055   75.2265 H         1 L1A886      0.0000 
     83 H          15.7566   91.7439   73.9860 H         1 L1A886      0.0000 
     84 H          15.4689   93.4672   74.2816 H         1 L1A886      0.0000 
     85 H          14.9037   92.5332   76.4838 H         1 L1A886      0.0000 
     86 H          16.8595   91.5148   77.8097 H         1 L1A886      0.0000 
     87 H          18.8076   90.6314   76.6203 H         1 L1A886      0.0000 
     88 H          17.5241   89.8259   75.7018 H         1 L1A886      0.0000 
     89 H          17.4196   94.8121   66.0745 H         1 L1A886      0.0000 
     90 H          16.1597   94.7641   67.0728 H         1 L1A886      0.0000 
     91 H          16.2966   95.9613   66.0077 H         1 L1A886      0.0000 
     92 H          19.0816   97.7244   67.5334 H         1 L1A886      0.0000 
     93 H          19.2001   96.6510   66.3418 H         1 L1A886      0.0000 
     94 H          18.0477   97.7720   66.3026 H         1 L1A886      0.0000 
     95 H          15.4890   88.6977   64.3778 H         1 L1A886      0.0000 
     96 H          19.9704   92.4368   69.9637 H         1 L1A886      0.0000 
     97 H          17.9554   95.8568   71.1934 H         1 L1A886      0.0000 
@<TRIPOS>BOND
     1    2    1 ar   
     2    6    1 ar   
     3   49    1 1    
     4    3    2 ar   
     5   50    2 1    
     6    4    3 ar   
     7   51    3 1    
     8    5    4 ar   
     9   10    4 1    
    10    6    5 ar   
    11   52    5 1    
    12   53    6 1    
    13    8    7 am   
    14   18    7 1    
    15   54    7 1    
    16    9    8 1    
    17   11    8 2    
    18   10    9 1    
    19   12    9 1    
    20   55    9 1    
    21   56   10 1    
    22   57   10 1    
    23   37   12 1    
    24   58   12 1    
    25   14   13 am   
    26   18   13 1    
    27   23   13 2    
    28   24   14 1    
    29   59   14 1    
    30   16   15 2    
    31   19   15 1    
    32   60   15 1    
    33   17   16 1    
    34   22   16 1    
    35   18   17 1    
    36   61   17 1    
    37   62   17 1    
    38   63   18 1    
    39   21   19 1    
    40   21   20 1    
    41   95   20 1    
    42   22   21 2    
    43   25   24 1    
    44   26   24 1    
    45   64   24 1    
    46   44   25 1    
    47   65   25 1    
    48   66   25 1    
    49   27   26 1    
    50   32   26 1    
    51   67   26 1    
    52   28   27 1    
    53   33   27 1    
    54   68   27 1    
    55   29   28 1    
    56   69   28 1    
    57   70   28 1    
    58   30   29 1    
    59   31   29 1    
    60   71   29 1    
    61   89   30 1    
    62   90   30 1    
    63   91   30 1    
    64   92   31 1    
    65   93   31 1    
    66   94   31 1    
    67   96   32 1    
    68   97   33 1    
    69   35   34 1    
    70   40   34 1    
    71   36   35 1    
    72   72   35 1    
    73   73   35 1    
    74   38   36 1    
    75   74   36 1    
    76   75   36 1    
    77   38   37 1    
    78   41   37 2    
    79   42   37 2    
    80   39   38 1    
    81   40   39 1    
    82   76   39 1    
    83   77   39 1    
    84   78   40 1    
    85   79   40 1    
    86   44   43 1    
    87   48   43 1    
    88   80   43 1    
    89   81   43 1    
    90   45   44 1    
    91   82   44 1    
    92   46   45 1    
    93   83   45 1    
    94   84   45 1    
    95   47   46 2    
    96   85   46 1    
    97   48   47 1    
    98   86   47 1    
    99   87   48 1    
   100   88   48 1    
@<TRIPOS>SUBSTRUCTURE
     1 L1A886      1 GROUP   
@<TRIPOS>SET

