#    Name: 1zd9_GDP_1_INTS_M
#    Modification time : Tue Mar 25 11:40:56 2014

@<TRIPOS>MOLECULE
1zd9_GDP_1_INTS_M
   63     0    15     0     0
SMALL
NO_CHARGES


@<TRIPOS>ATOM
      1 Zn         46.4240   63.3910  -12.9125 Zn        4 ZIC7        0.0000 
      2 Zn         45.3080   63.5980  -13.0370 Zn       14 ZIL7        0.0000 
      3 Zn         47.5400   63.1840  -12.7880 Zn        9 ZIP7        0.0000 
      4 N          44.8030   62.6440  -11.9840 N.am      2 SEC2        0.0000 
      5 N          45.3080   63.5980  -13.0370 N.am     12 SEL2        0.0000 
      6 N          44.2980   61.6900  -10.9310 N.am      7 SEP2        0.0000 
      7 NZ         43.8960   62.9605  -15.7875 N.4       3 LYC4        0.0000 
      8 NZ         43.4060   63.7370  -14.7580 N.4      13 LYL4        0.0000 
      9 NZ         44.3860   62.1840  -16.8170 N.4       8 LYP4        0.0000 
     10 N          42.0960   64.1725  -14.2450 N.am      2 SEC2        0.0000 
     11 N          43.4060   63.7370  -14.7580 N.am     12 SEL2        0.0000 
     12 N          40.7860   64.6080  -13.7320 N.am      7 SEP2        0.0000 
     13 N          42.7340   63.0455  -13.7635 N.am      2 SEC2        0.0000 
     14 N          42.0620   62.3540  -12.7690 N.am      7 SEP2        0.0000 
     15 N          43.8960   62.9605  -15.7875 N.am      2 SEC2        0.0000 
     16 N          44.3860   62.1840  -16.8170 N.am      7 SEP2        0.0000 
     17 NZ         44.8960   63.7005  -15.8595 N.4       3 LYC4        0.0000 
     18 NZ         45.4060   65.2170  -14.9020 N.4      13 LYL4        0.0000 
     19 N          44.6670   65.9750  -15.8065 N.am      2 SEC2        0.0000 
     20 N          45.4060   65.2170  -14.9020 N.am     12 SEL2        0.0000 
     21 N          43.9280   66.7330  -16.7110 N.am      7 SEP2        0.0000 
     22 N          42.2285   65.0960  -13.4255 N.am      2 SEC2        0.0000 
     23 N          43.6710   65.5840  -13.1190 N.am     12 SEL2        0.0000 
     24 N          43.4910   63.9470   -9.6445 N.am      2 SEC2        0.0000 
     25 N          43.6080   64.9400  -10.6240 N.am     12 SEL2        0.0000 
     26 N          43.3740   62.9540   -8.6650 N.am      7 SEP2        0.0000 
     27 N          43.0175   65.2990   -9.5330 N.am      2 SEC2        0.0000 
     28 N          42.4270   65.6580   -8.4420 N.am      7 SEP2        0.0000 
     29 CA         42.9665   67.9540  -14.0585 C.3       5 GLC5        0.0000 
     30 CA         42.8900   68.3070  -12.1980 C.3      15 GLL5        0.0000 
     31 CA         43.0430   67.6010  -15.9190 C.3      10 GLP5        0.0000 
     32 O          43.1655   71.4145   -8.3505 O.2       1 ALC1        0.0000 
     33 O          42.9380   71.0150   -9.6570 O.2      11 ALL1        0.0000 
     34 O          43.3930   71.8140   -7.0440 O.2       6 ALP1        0.0000 
     35 O          42.1555   69.0075   -6.6815 O.2       1 ALC1        0.0000 
     36 O          41.7210   69.5920   -7.8410 O.2      11 ALL1        0.0000 
     37 O          42.5900   68.4230   -5.5220 O.2       6 ALP1        0.0000 
     38 CA         39.3260   68.9220  -11.5625 C.3       5 GLC5        0.0000 
     39 CA         40.5400   69.3000   -9.9210 C.3      15 GLL5        0.0000 
     40 CA         38.1120   68.5440  -13.2040 C.3      10 GLP5        0.0000 
     41 N          37.7070   65.5745  -10.3400 N.am      2 SEC2        0.0000 
     42 N          38.2640   66.5250   -9.2620 N.am     12 SEL2        0.0000 
     43 N          37.1500   64.6240  -11.4180 N.am      7 SEP2        0.0000 
     44 CA         36.5935   67.8440  -10.8275 C.3       5 GLC5        0.0000 
     45 CA         37.4070   67.5820   -9.1250 C.3      15 GLL5        0.0000 
     46 CA         35.7800   68.1060  -12.5300 C.3      10 GLP5        0.0000 
     47 CA         37.2620   65.7805   -8.0325 C.3       5 GLC5        0.0000 
     48 CA         37.1170   63.9790   -6.9400 C.3      10 GLP5        0.0000 
     49 N          35.2860   66.5540   -7.0645 N.am      2 SEC2        0.0000 
     50 N          35.1810   66.7940   -8.6200 N.am     12 SEL2        0.0000 
     51 N          35.3910   66.3140   -5.5090 N.am      7 SEP2        0.0000 
     52 O          34.1420   69.0755   -8.5495 O.2       1 ALC1        0.0000 
     53 O          35.4760   69.0300   -8.8270 O.2      11 ALL1        0.0000 
     54 O          32.8080   69.1210   -8.2720 O.2       6 ALP1        0.0000 
     55 O          34.2505   70.1655   -8.3905 O.2       1 ALC1        0.0000 
     56 O          33.0250   71.3010   -7.9540 O.2       6 ALP1        0.0000 
     57 O          34.3810   71.3300   -8.4820 O.2       1 ALC1        0.0000 
     58 O          35.7370   71.3590   -9.0100 O.2      11 ALL1        0.0000 
     59 CA         38.1540   68.6690  -11.2900 C.3       5 GLC5        0.0000 
     60 CA         38.1960   68.7940   -9.3760 C.3      15 GLL5        0.0000 
     61 CA         44.2900   70.0195  -11.0784 C.3       5 GLC5        0.0000 
     62 CA         42.2820   69.4790  -11.4250 C.3      15 GLL5        0.0000 
     63 CA         45.8640   70.7810  -11.2440 C.3      10 GLP5        0.0000 
@<TRIPOS>BOND
@<TRIPOS>SUBSTRUCTURE
     1 ALC1       32 GROUP        1 X    ALC  0     ROOT ALC X 1
     2 SEC2        4 GROUP        1 X    SEC  0     **** SEC X 2
     3 LYC4        7 GROUP        1 X    LYC  0     **** LYC X 4
     4 ZIC7        1 GROUP        1 X    ZIC  0     **** ZIC X 5
     5 GLC5       29 GROUP        1 X    GLC  0     **** GLC X 6
     6 ALP1       34 GROUP        1 Y    ALP  0     ROOT ALP Y 8
     7 SEP2        6 GROUP        1 Y    SEP  0     **** SEP Y 9
     8 LYP4        9 GROUP        1 Y    LYP  0     **** LYP Y 11
     9 ZIP7        3 GROUP        1 Y    ZIP  0     **** ZIP Y 12
    10 GLP5       31 GROUP        1 Y    GLP  0     **** GLP Y 13
    11 ALL1       33 GROUP        1 Z    ALL  0     ROOT ALL Z 15
    12 SEL2        5 GROUP        1 Z    SEL  0     **** SEL Z 16
    13 LYL4        8 GROUP        1 Z    LYL  0     **** LYL Z 18
    14 ZIL7        2 GROUP        1 Z    ZIL  0     **** ZIL Z 19
    15 GLL5       30 GROUP        1 Z    GLL  0     **** GLL Z 20
@<TRIPOS>SET

