#    Name: 1zd9_GDP_1_ligand
#    Modification time : Tue Mar 25 11:40:56 2014

@<TRIPOS>MOLECULE
1zd9_GDP_1_ligand
   40    42     1     0     0
SMALL
NO_CHARGES


@<TRIPOS>ATOM
      1 PB         44.4890   64.4830  -13.9450 P.3       1 GDP201      0.0000 
      2 O1B        45.3080   63.5980  -13.0370 O.co2     1 GDP201      0.0000 
      3 O2B        43.4060   63.7370  -14.7580 O.co2     1 GDP201      0.0000 
      4 O3B        45.4060   65.2170  -14.9020 O.co2     1 GDP201      0.0000 
      5 O3A        43.6710   65.5840  -13.1190 O.3       1 GDP201      0.0000 
      6 PA         43.9570   66.0210  -11.5990 P.3       1 GDP201      0.0000 
      7 O1A        43.6080   64.9400  -10.6240 O.co2     1 GDP201      0.0000 
      8 O2A        45.3100   66.6530  -11.4370 O.co2     1 GDP201      0.0000 
      9 O5'        42.8100   67.1260  -11.3870 O.3       1 GDP201      0.0000 
     10 C5'        42.8900   68.3070  -12.1980 C.3       1 GDP201      0.0000 
     11 C4'        42.2820   69.4790  -11.4250 C.3       1 GDP201      0.0000 
     12 O4'        40.8770   69.2650  -11.3090 O.3       1 GDP201      0.0000 
     13 C3'        42.8460   69.6230  -10.0140 C.3       1 GDP201      0.0000 
     14 O3'        42.9380   71.0150   -9.6570 O.3       1 GDP201      0.0000 
     15 C2'        41.7930   68.9830   -9.1360 C.3       1 GDP201      0.0000 
     16 O2'        41.7210   69.5920   -7.8410 O.3       1 GDP201      0.0000 
     17 C1'        40.5400   69.3000   -9.9210 C.3       1 GDP201      0.0000 
     18 N9         39.4400   68.3720   -9.6160 N.pl3     1 GDP201      0.0000 
     19 C8         39.4950   67.0070   -9.5530 C.2       1 GDP201      0.0000 
     20 N7         38.2640   66.5250   -9.2620 N.2       1 GDP201      0.0000 
     21 C5         37.4070   67.5820   -9.1250 C.2       1 GDP201      0.0000 
     22 C6         35.9550   67.7700   -8.8400 C.2       1 GDP201      0.0000 
     23 O6         35.1810   66.7940   -8.6200 O.2       1 GDP201      0.0000 
     24 N1         35.4760   69.0300   -8.8270 N.am      1 GDP201      0.0000 
     25 C2         36.2740   70.1110   -9.0530 C.2       1 GDP201      0.0000 
     26 N2         35.7370   71.3590   -9.0100 N.pl3     1 GDP201      0.0000 
     27 N3         37.5930   70.0190   -9.3310 N.2       1 GDP201      0.0000 
     28 C4         38.1960   68.7940   -9.3760 C.2       1 GDP201      0.0000 
     29 H          42.3341   68.1957  -13.1304 H         1 GDP201      0.0000 
     30 H          43.9232   68.5634  -12.4381 H         1 GDP201      0.0000 
     31 H          42.4807   70.3897  -11.9677 H         1 GDP201      0.0000 
     32 H          43.7380   69.1002   -9.9333 H         1 GDP201      0.0000 
     33 H          41.9312   67.9463   -9.1291 H         1 GDP201      0.0000 
     34 H          40.2390   70.3184   -9.6472 H         1 GDP201      0.0000 
     35 H          40.2908   66.4776   -9.6950 H         1 GDP201      0.0000 
     36 H          34.4512   69.1908   -8.6363 H         1 GDP201      0.0000 
     37 H          36.3749   72.1174   -9.1440 H         1 GDP201      0.0000 
     38 H          34.7514   71.4086   -8.8481 H         1 GDP201      0.0000 
     39 H          42.6480   71.0566   -8.7009 H         1 GDP201      0.0000 
     40 H          42.0837   68.9049   -7.2115 H         1 GDP201      0.0000 
@<TRIPOS>BOND
     1    2    1 ar   
     2    3    1 ar   
     3    4    1 ar   
     4    5    1 1    
     5    6    5 1    
     6    7    6 ar   
     7    8    6 ar   
     8    9    6 1    
     9   10    9 1    
    10   11   10 1    
    11   29   10 1    
    12   30   10 1    
    13   12   11 1    
    14   13   11 1    
    15   31   11 1    
    16   17   12 1    
    17   14   13 1    
    18   15   13 1    
    19   32   13 1    
    20   39   14 1    
    21   16   15 1    
    22   17   15 1    
    23   33   15 1    
    24   40   16 1    
    25   18   17 1    
    26   34   17 1    
    27   19   18 1    
    28   28   18 1    
    29   20   19 2    
    30   35   19 1    
    31   21   20 1    
    32   22   21 1    
    33   28   21 2    
    34   23   22 2    
    35   24   22 am   
    36   25   24 1    
    37   36   24 1    
    38   26   25 1    
    39   27   25 2    
    40   37   26 1    
    41   38   26 1    
    42   28   27 1    
@<TRIPOS>SUBSTRUCTURE
     1 GDP201      1 GROUP   
@<TRIPOS>SET

