#    Name: 1ky4_NAD_1_INTS_M
#    Modification time : Tue Mar 25 10:39:37 2014

@<TRIPOS>MOLECULE
1ky4_NAD_1_INTS_M
   79     0     9     0     0
SMALL
NO_CHARGES


@<TRIPOS>ATOM
      1 N          17.0695   -4.5395   20.5670 N.am      2 SEC2        0.0000 
      2 N          16.9420   -5.9010   20.7220 N.am      8 SEL2        0.0000 
      3 N          17.1970   -3.1780   20.4120 N.am      5 SEP2        0.0000 
      4 CA         11.8000   -6.2895   17.1165 C.3       3 GLC5        0.0000 
      5 CA         12.6560   -6.1850   19.1360 C.3       9 GLL5        0.0000 
      6 CA         10.9440   -6.3940   15.0970 C.3       6 GLP5        0.0000 
      7 O          12.3090   -3.3760   18.2565 O.2       1 ALC1        0.0000 
      8 O          12.9700   -3.7480   19.3000 O.2       7 ALL1        0.0000 
      9 O          11.6480   -3.0040   17.2130 O.2       4 ALP1        0.0000 
     10 N          11.6340   -2.7220   20.9925 N.am      2 SEC2        0.0000 
     11 N          10.4710   -3.5870   20.2770 N.am      8 SEL2        0.0000 
     12 N          12.7970   -1.8570   21.7080 N.am      5 SEP2        0.0000 
     13 O          10.0775   -2.9880   19.0985 O.2       1 ALC1        0.0000 
     14 O          10.4710   -3.5870   20.2770 O.2       7 ALL1        0.0000 
     15 O           9.6840   -2.3890   17.9200 O.2       4 ALP1        0.0000 
     16 O          11.0595   -3.2955   18.7450 O.2       1 ALC1        0.0000 
     17 CA         10.6810   -6.0590   17.0675 C.3       3 GLC5        0.0000 
     18 CA         10.4180   -5.7240   19.0380 C.3       9 GLL5        0.0000 
     19 CA          8.9340   -6.3550   15.8495 C.3       3 GLC5        0.0000 
     20 CA          6.9240   -6.3160   16.6020 C.3       9 GLL5        0.0000 
     21 CA          7.2305   -4.5865   16.1445 C.3       3 GLC5        0.0000 
     22 CA          7.5370   -2.8570   15.6870 C.3       6 GLP5        0.0000 
     23 CA          5.9425   -5.2355   18.0830 C.3       3 GLC5        0.0000 
     24 CA          4.9610   -4.1550   19.5640 C.3       6 GLP5        0.0000 
     25 CA          9.5355   -6.4375   16.7780 C.3       3 GLC5        0.0000 
     26 CA          8.1270   -6.4810   18.4590 C.3       9 GLL5        0.0000 
     27 CA          7.6470   -5.0620   19.5575 C.3       3 GLC5        0.0000 
     28 CA          7.1670   -3.6430   20.6560 C.3       6 GLP5        0.0000 
     29 N          18.1910   -8.6295   17.2180 N.am      2 SEC2        0.0000 
     30 N          17.6670   -9.1260   18.4270 N.am      8 SEL2        0.0000 
     31 N          18.7150   -8.1330   16.0090 N.am      5 SEP2        0.0000 
     32 CA         15.1365  -10.0240   17.3845 C.3       3 GLC5        0.0000 
     33 CA         15.6890  -10.6280   19.2550 C.3       9 GLL5        0.0000 
     34 CA         14.5840   -9.4200   15.5140 C.3       6 GLP5        0.0000 
     35 CA         14.8070  -13.4510   18.4730 C.3       3 GLC5        0.0000 
     36 CA         15.3820  -12.0900   19.5940 C.3       9 GLL5        0.0000 
     37 CA         14.2320  -14.8120   17.3520 C.3       6 GLP5        0.0000 
     38 CA         17.7825  -12.4890   18.1730 C.3       3 GLC5        0.0000 
     39 CA         16.9540  -13.8340   19.6850 C.3       9 GLL5        0.0000 
     40 CA         18.6110  -11.1440   16.6610 C.3       6 GLP5        0.0000 
     41 CA         15.5930  -14.3230   18.5185 C.3       3 GLC5        0.0000 
     42 CA         18.5160  -13.1675   17.4320 C.3       3 GLC5        0.0000 
     43 CA         18.4210  -15.1910   18.2030 C.3       9 GLL5        0.0000 
     44 CA         16.3265  -15.0015   17.7775 C.3       3 GLC5        0.0000 
     45 N          21.0125  -17.5230   14.9870 N.am      2 SEC2        0.0000 
     46 N          20.8350  -16.9660   16.2180 N.am      8 SEL2        0.0000 
     47 N          21.1900  -18.0800   13.7560 N.am      5 SEP2        0.0000 
     48 O          17.4835  -16.4930   16.0450 O.2       1 ALC1        0.0000 
     49 O          18.5840  -17.3280   16.2050 O.2       7 ALL1        0.0000 
     50 O          16.3830  -15.6580   15.8850 O.2       4 ALP1        0.0000 
     51 O          18.8665  -18.1595   14.9025 O.2       1 ALC1        0.0000 
     52 O          19.1490  -18.9910   13.6000 O.2       4 ALP1        0.0000 
     53 CA         21.6605  -12.2130   18.3530 C.3       3 GLC5        0.0000 
     54 CA         20.7250  -13.7870   19.1320 C.3       9 GLL5        0.0000 
     55 CA         22.5960  -10.6390   17.5740 C.3       6 GLP5        0.0000 
     56 CA         14.4452   -5.3431   18.5523 C.3       3 GLC5        0.0000 
     57 CA         13.5140   -7.2280   19.7940 C.3       9 GLL5        0.0000 
     58 CA         16.1150   -4.8700   17.3820 C.3       6 GLP5        0.0000 
     59 CA         12.6025   -3.8978   21.3217 C.3       3 GLC5        0.0000 
     60 CA         12.4660   -4.9260   19.9800 C.3       9 GLL5        0.0000 
     61 CA         13.4870   -2.8670   22.5370 C.3       6 GLP5        0.0000 
     62 CA          8.9305   -4.4853   20.1457 C.3       3 GLC5        0.0000 
     63 CA         10.9700   -4.9310   20.2330 C.3       9 GLL5        0.0000 
     64 CA          5.7477   -5.7127   19.1823 C.3       3 GLC5        0.0000 
     65 CA          7.1380   -7.1480   19.1520 C.3       9 GLL5        0.0000 
     66 CA          6.0373   -9.1612   18.2867 C.3       3 GLC5        0.0000 
     67 CA          5.5400  -11.0520   17.7730 C.3       6 GLP5        0.0000 
     68 CA          5.3857   -6.5927   20.5038 C.3       3 GLC5        0.0000 
     69 CA          5.9310   -7.3930   18.4490 C.3       9 GLL5        0.0000 
     70 CA          4.2370   -5.9150   22.2070 C.3       6 GLP5        0.0000 
     71 CA          7.8384   -8.6834   19.0069 C.3       3 GLC5        0.0000 
     72 CA          8.3460  -10.4910   19.3840 C.3       6 GLP5        0.0000 
     73 CA         17.0733  -11.2515   18.0427 C.3       3 GLC5        0.0000 
     74 CA         13.4187  -12.4913   20.7207 C.3       3 GLC5        0.0000 
     75 CA         11.3620  -12.6600   21.1260 C.3       6 GLP5        0.0000 
     76 CA         20.5042  -14.3903   16.2062 C.3       3 GLC5        0.0000 
     77 CA         19.7150  -15.5820   17.6450 C.3       9 GLL5        0.0000 
     78 CA         20.6870  -13.5510   14.5380 C.3       6 GLP5        0.0000 
     79 CA         19.3635  -12.3930   18.0105 C.3       3 GLC5        0.0000 
@<TRIPOS>BOND
@<TRIPOS>SUBSTRUCTURE
     1 ALC1        7 GROUP        1 X    ALC  0     ROOT ALC X 1
     2 SEC2        1 GROUP        1 X    SEC  0     **** SEC X 2
     3 GLC5        4 GROUP        1 X    GLC  0     **** GLC X 6
     4 ALP1        9 GROUP        1 Y    ALP  0     ROOT ALP Y 8
     5 SEP2        3 GROUP        1 Y    SEP  0     **** SEP Y 9
     6 GLP5        6 GROUP        1 Y    GLP  0     **** GLP Y 13
     7 ALL1        8 GROUP        1 Z    ALL  0     ROOT ALL Z 15
     8 SEL2        2 GROUP        1 Z    SEL  0     **** SEL Z 16
     9 GLL5        5 GROUP        1 Z    GLL  0     **** GLL Z 20
@<TRIPOS>SET

