#    Name: 1ky4_NAD_1_ligand
#    Modification time : Tue Mar 25 10:39:37 2014

@<TRIPOS>MOLECULE
1ky4_NAD_1_ligand
   70    74     1     0     0
SMALL
NO_CHARGES


@<TRIPOS>ATOM
      1 PA         15.8290   -6.8640   20.9650 P.3       1 NAD432      0.0000 
      2 O1A        15.2300   -6.7350   22.3180 O.co2     1 NAD432      0.0000 
      3 O2A        16.9420   -5.9010   20.7220 O.co2     1 NAD432      0.0000 
      4 O5B        14.7540   -6.5230   19.8890 O.3       1 NAD432      0.0000 
      5 C5B        13.5140   -7.2280   19.7940 C.3       1 NAD432      0.0000 
      6 C4B        12.6560   -6.1850   19.1360 C.3       1 NAD432      0.0000 
      7 O4B        11.3250   -6.7150   18.9380 O.3       1 NAD432      0.0000 
      8 C3B        12.4660   -4.9260   19.9800 C.3       1 NAD432      0.0000 
      9 O3B        12.9700   -3.7480   19.3000 O.3       1 NAD432      0.0000 
     10 C2B        10.9700   -4.9310   20.2330 C.3       1 NAD432      0.0000 
     11 O2B        10.4710   -3.5870   20.2770 O.3       1 NAD432      0.0000 
     12 C1B        10.4180   -5.7240   19.0380 C.3       1 NAD432      0.0000 
     13 N9A         9.1610   -6.3580   19.3240 N.pl3     1 NAD432      0.0000 
     14 C8A         8.7720   -6.9500   20.4990 C.2       1 NAD432      0.0000 
     15 N7A         7.5290   -7.4490   20.4500 N.2       1 NAD432      0.0000 
     16 C5A         7.1380   -7.1480   19.1520 C.ar      1 NAD432      0.0000 
     17 C6A         5.9310   -7.3930   18.4490 C.ar      1 NAD432      0.0000 
     18 N6A         4.8810   -8.0120   18.9610 N.pl3     1 NAD432      0.0000 
     19 N1A         5.8450   -6.9580   17.1510 N.ar      1 NAD432      0.0000 
     20 C2A         6.9240   -6.3160   16.6020 C.ar      1 NAD432      0.0000 
     21 N3A         8.0780   -6.0510   17.1900 N.ar      1 NAD432      0.0000 
     22 C4A         8.1270   -6.4810   18.4590 C.ar      1 NAD432      0.0000 
     23 O3         16.2900   -8.3740   20.7150 O.3       1 NAD432      0.0000 
     24 PN         17.5710   -8.7060   19.8370 P.3       1 NAD432      0.0000 
     25 O1N        17.6670   -9.1260   18.4270 O.co2     1 NAD432      0.0000 
     26 O2N        18.7580   -9.0960   20.6930 O.co2     1 NAD432      0.0000 
     27 O5D        16.8910  -10.1790   19.9970 O.3       1 NAD432      0.0000 
     28 C5D        15.6890  -10.6280   19.2550 C.3       1 NAD432      0.0000 
     29 C4D        15.3820  -12.0900   19.5940 C.3       1 NAD432      0.0000 
     30 O4D        16.2860  -12.9260   18.8180 O.3       1 NAD432      0.0000 
     31 C3D        15.5690  -12.5550   21.0370 C.3       1 NAD432      0.0000 
     32 O3D        14.5970  -13.5750   21.3290 O.3       1 NAD432      0.0000 
     33 C2D        16.9530  -13.1570   21.0190 C.3       1 NAD432      0.0000 
     34 O2D        17.1720  -14.0490   22.1210 O.3       1 NAD432      0.0000 
     35 C1D        16.9540  -13.8340   19.6850 C.3       1 NAD432      0.0000 
     36 N1N        18.2990  -14.1640   19.1660 N.pl3     1 NAD432      0.0000 
     37 C2N        18.4210  -15.1910   18.2030 C.ar      1 NAD432      0.0000 
     38 C3N        19.7150  -15.5820   17.6450 C.ar      1 NAD432      0.0000 
     39 C7N        19.7070  -16.6810   16.6390 C.2       1 NAD432      0.0000 
     40 O7N        20.8350  -16.9660   16.2180 O.2       1 NAD432      0.0000 
     41 N7N        18.5840  -17.3280   16.2050 N.am      1 NAD432      0.0000 
     42 C4N        20.9280  -14.8770   18.1040 C.ar      1 NAD432      0.0000 
     43 C5N        20.7250  -13.7870   19.1320 C.ar      1 NAD432      0.0000 
     44 C6N        19.5070  -13.4970   19.5880 C.ar      1 NAD432      0.0000 
     45 H          13.1101   -7.4593   20.7494 H         1 NAD432      0.0000 
     46 H          13.5825   -8.0756   19.1566 H         1 NAD432      0.0000 
     47 H          13.0768   -5.8984   18.1913 H         1 NAD432      0.0000 
     48 H          12.9602   -5.1078   20.9207 H         1 NAD432      0.0000 
     49 H          10.7839   -5.4871   21.1151 H         1 NAD432      0.0000 
     50 H          10.3911   -5.0980   18.2040 H         1 NAD432      0.0000 
     51 H           9.3638   -6.9956   21.2957 H         1 NAD432      0.0000 
     52 H           4.9561   -8.2861   19.9198 H         1 NAD432      0.0000 
     53 H           4.1070   -8.1499   18.3430 H         1 NAD432      0.0000 
     54 H           6.7989   -5.9957   15.5654 H         1 NAD432      0.0000 
     55 H          15.8518  -10.5487   18.1804 H         1 NAD432      0.0000 
     56 H          14.8249  -10.0213   19.5248 H         1 NAD432      0.0000 
     57 H          14.3658  -12.3230   19.2858 H         1 NAD432      0.0000 
     58 H          15.5414  -11.7357   21.6700 H         1 NAD432      0.0000 
     59 H          17.6534  -12.3457   20.9813 H         1 NAD432      0.0000 
     60 H          16.3582  -14.7436   19.7744 H         1 NAD432      0.0000 
     61 H          17.5868  -15.6911   17.8711 H         1 NAD432      0.0000 
     62 H          17.7221  -17.0428   16.6243 H         1 NAD432      0.0000 
     63 H          18.7228  -18.0298   15.5063 H         1 NAD432      0.0000 
     64 H          21.8128  -15.0885   17.7750 H         1 NAD432      0.0000 
     65 H          21.5835  -13.3108   19.4326 H         1 NAD432      0.0000 
     66 H          19.3695  -12.7318   20.3103 H         1 NAD432      0.0000 
     67 H          12.1702   -3.3430   18.8569 H         1 NAD432      0.0000 
     68 H          10.2381   -3.3664   19.3298 H         1 NAD432      0.0000 
     69 H          14.0808  -13.2243   22.1104 H         1 NAD432      0.0000 
     70 H          16.2663  -14.4068   22.3481 H         1 NAD432      0.0000 
@<TRIPOS>BOND
     1    2    1 ar   
     2    3    1 ar   
     3    4    1 1    
     4   23    1 1    
     5    5    4 1    
     6    6    5 1    
     7   45    5 1    
     8   46    5 1    
     9    7    6 1    
    10    8    6 1    
    11   47    6 1    
    12   12    7 1    
    13    9    8 1    
    14   10    8 1    
    15   48    8 1    
    16   67    9 1    
    17   11   10 1    
    18   12   10 1    
    19   49   10 1    
    20   68   11 1    
    21   13   12 1    
    22   50   12 1    
    23   14   13 1    
    24   22   13 1    
    25   15   14 2    
    26   51   14 1    
    27   16   15 1    
    28   17   16 ar   
    29   22   16 ar   
    30   18   17 1    
    31   19   17 ar   
    32   52   18 1    
    33   53   18 1    
    34   20   19 ar   
    35   21   20 ar   
    36   54   20 1    
    37   22   21 ar   
    38   24   23 1    
    39   25   24 ar   
    40   26   24 ar   
    41   27   24 1    
    42   28   27 1    
    43   29   28 1    
    44   55   28 1    
    45   56   28 1    
    46   30   29 1    
    47   31   29 1    
    48   57   29 1    
    49   35   30 1    
    50   32   31 1    
    51   33   31 1    
    52   58   31 1    
    53   69   32 1    
    54   34   33 1    
    55   35   33 1    
    56   59   33 1    
    57   70   34 1    
    58   36   35 1    
    59   60   35 1    
    60   37   36 ar   
    61   44   36 ar   
    62   38   37 ar   
    63   61   37 1    
    64   39   38 1    
    65   42   38 ar   
    66   40   39 2    
    67   41   39 am   
    68   62   41 1    
    69   63   41 1    
    70   43   42 ar   
    71   64   42 1    
    72   44   43 ar   
    73   65   43 1    
    74   66   44 1    
@<TRIPOS>SUBSTRUCTURE
     1 NAD432      1 GROUP   
@<TRIPOS>SET

