#    Name: 1ofh_ADP_2_INTS_M
#    Modification time : Mon Mar 24 20:04:15 2014

@<TRIPOS>MOLECULE
1ofh_ADP_2_INTS_M
   64     0    15     0     0
SMALL
NO_CHARGES


@<TRIPOS>ATOM
      1 Zn         70.2695   37.2900  -25.8420 Zn        4 ZIC7        0.0000 
      2 Zn         69.6730   36.5820  -26.1330 Zn       14 ZIL7        0.0000 
      3 Zn         70.8660   37.9980  -25.5510 Zn        9 ZIP7        0.0000 
      4 N          69.1090   35.6035  -24.8645 N.am      2 SEC2        0.0000 
      5 N          69.6730   36.5820  -26.1330 N.am     12 SEL2        0.0000 
      6 N          68.5450   34.6250  -23.5960 N.am      7 SEP2        0.0000 
      7 N          67.1925   38.1750  -28.7410 N.am      2 SEC2        0.0000 
      8 N          67.7490   37.7550  -27.6880 N.am     12 SEL2        0.0000 
      9 N          66.6360   38.5950  -29.7940 N.am      7 SEP2        0.0000 
     10 N          68.5560   38.1315  -28.6425 N.am      2 SEC2        0.0000 
     11 N          69.3630   38.5080  -29.5970 N.am      7 SEP2        0.0000 
     12 NZ         67.2290   38.1490  -24.5705 N.4       3 LYC4        0.0000 
     13 NZ         67.3130   36.8860  -25.1760 N.4      13 LYL4        0.0000 
     14 NZ         67.1450   39.4120  -23.9650 N.4       8 LYP4        0.0000 
     15 N          66.5155   35.5805  -24.8740 N.am      2 SEC2        0.0000 
     16 N          67.3130   36.8860  -25.1760 N.am     12 SEL2        0.0000 
     17 N          65.7180   34.2750  -24.5720 N.am      7 SEP2        0.0000 
     18 N          67.2290   38.1490  -24.5705 N.am      2 SEC2        0.0000 
     19 N          67.1450   39.4120  -23.9650 N.am      7 SEP2        0.0000 
     20 N          66.8045   36.1330  -30.7030 N.am      2 SEC2        0.0000 
     21 N          67.3950   35.5360  -29.5210 N.am     12 SEL2        0.0000 
     22 N          66.2140   36.7300  -31.8850 N.am      7 SEP2        0.0000 
     23 N          66.0820   34.9825  -26.9295 N.am      2 SEC2        0.0000 
     24 N          67.6900   35.0340  -27.0200 N.am     12 SEL2        0.0000 
     25 N          64.4740   34.9310  -26.8390 N.am      7 SEP2        0.0000 
     26 CA         68.4570   32.8860  -26.4010 C.3       5 GLC5        0.0000 
     27 CA         68.8550   32.1860  -28.3230 C.3      15 GLL5        0.0000 
     28 CA         68.0590   33.5860  -24.4790 C.3      10 GLP5        0.0000 
     29 CA         65.9845   32.1625  -32.0655 C.3       5 GLC5        0.0000 
     30 CA         66.6890   30.8450  -30.7240 C.3      15 GLL5        0.0000 
     31 CA         65.2800   33.4800  -33.4070 C.3      10 GLP5        0.0000 
     32 CA         65.9610   29.4070  -27.6485 C.3       5 GLC5        0.0000 
     33 CA         66.2780   30.1730  -29.3930 C.3      15 GLL5        0.0000 
     34 CA         65.6440   28.6410  -25.9040 C.3      10 GLP5        0.0000 
     35 CA         63.4495   33.3215  -28.2300 C.3       5 GLC5        0.0000 
     36 CA         62.9860   31.2800  -28.3470 C.3      15 GLL5        0.0000 
     37 CA         63.9130   35.3630  -28.1130 C.3      10 GLP5        0.0000 
     38 CA         60.4635   32.4875  -29.4720 C.3       5 GLC5        0.0000 
     39 CA         61.5310   31.2440  -28.5070 C.3      15 GLL5        0.0000 
     40 CA         59.3960   33.7310  -30.4370 C.3      10 GLP5        0.0000 
     41 O          59.3425   31.9515  -27.7410 O.2       1 ALC1        0.0000 
     42 O          60.6890   31.9850  -27.6710 O.2      11 ALL1        0.0000 
     43 O          57.9960   31.9180  -27.8110 O.2       6 ALP1        0.0000 
     44 O          61.5605   33.2405  -26.8395 O.2       1 ALC1        0.0000 
     45 O          62.4320   34.4960  -26.0080 O.2       6 ALP1        0.0000 
     46 N          59.6610   30.6790  -29.8445 N.am      2 SEC2        0.0000 
     47 N          61.0440   30.4890  -29.4630 N.am     12 SEL2        0.0000 
     48 N          58.2780   30.8690  -30.2260 N.am      7 SEP2        0.0000 
     49 CA         60.5930   30.7940  -31.2425 C.3       5 GLC5        0.0000 
     50 CA         61.8770   29.7140  -30.3440 C.3      15 GLL5        0.0000 
     51 CA         59.3090   31.8740  -32.1410 C.3      10 GLP5        0.0000 
     52 CA         59.8340   28.8405  -30.1040 C.3       5 GLC5        0.0000 
     53 CA         57.7910   27.9670  -29.8640 C.3      10 GLP5        0.0000 
     54 CA         61.3105   28.3720  -29.0685 C.3       5 GLC5        0.0000 
     55 CA         60.7440   27.0300  -27.7930 C.3      10 GLP5        0.0000 
     56 CA         70.2512   30.4698  -27.7250 C.3       5 GLC5        0.0000 
     57 CA         68.5000   30.8610  -29.0570 C.3      15 GLL5        0.0000 
     58 CA         71.8250   29.4160  -26.7600 C.3      10 GLP5        0.0000 
     59 CA         62.4567   30.8640  -26.3305 C.3       5 GLC5        0.0000 
     60 CA         62.6550   30.4660  -24.2340 C.3      10 GLP5        0.0000 
     61 CA         64.5065   29.7758  -27.3355 C.3       5 GLC5        0.0000 
     62 CA         62.3031   29.3578  -27.8190 C.3       5 GLC5        0.0000 
     63 CA         63.7520   30.5410  -29.1870 C.3      15 GLL5        0.0000 
     64 CA         61.6010   27.8140  -26.8310 C.3      10 GLP5        0.0000 
@<TRIPOS>BOND
@<TRIPOS>SUBSTRUCTURE
     1 ALC1       41 GROUP        1 X    ALC  0     ROOT ALC X 1
     2 SEC2        4 GROUP        1 X    SEC  0     **** SEC X 2
     3 LYC4       12 GROUP        1 X    LYC  0     **** LYC X 4
     4 ZIC7        1 GROUP        1 X    ZIC  0     **** ZIC X 5
     5 GLC5       26 GROUP        1 X    GLC  0     **** GLC X 6
     6 ALP1       43 GROUP        1 Y    ALP  0     ROOT ALP Y 8
     7 SEP2        6 GROUP        1 Y    SEP  0     **** SEP Y 9
     8 LYP4       14 GROUP        1 Y    LYP  0     **** LYP Y 11
     9 ZIP7        3 GROUP        1 Y    ZIP  0     **** ZIP Y 12
    10 GLP5       28 GROUP        1 Y    GLP  0     **** GLP Y 13
    11 ALL1       42 GROUP        1 Z    ALL  0     ROOT ALL Z 15
    12 SEL2        5 GROUP        1 Z    SEL  0     **** SEL Z 16
    13 LYL4       13 GROUP        1 Z    LYL  0     **** LYL Z 18
    14 ZIL7        2 GROUP        1 Z    ZIL  0     **** ZIL Z 19
    15 GLL5       27 GROUP        1 Z    GLL  0     **** GLL Z 20
@<TRIPOS>SET

