#    Name: 1ofh_ADP_2_ligand
#    Modification time : Mon Mar 24 20:04:15 2014

@<TRIPOS>MOLECULE
1ofh_ADP_2_ligand
   39    41     1     0     0
SMALL
NO_CHARGES


@<TRIPOS>ATOM
      1 PB         68.0770   36.5870  -26.5310 P.3       1 ADP450      0.0000 
      2 O1B        69.6730   36.5820  -26.1330 O.co2     1 ADP450      0.0000 
      3 O2B        67.7490   37.7550  -27.6880 O.co2     1 ADP450      0.0000 
      4 O3B        67.3130   36.8860  -25.1760 O.co2     1 ADP450      0.0000 
      5 PA         68.3390   34.7390  -28.5150 P.3       1 ADP450      0.0000 
      6 O1A        67.3950   35.5360  -29.5210 O.co2     1 ADP450      0.0000 
      7 O2A        69.9030   35.3050  -28.7400 O.co2     1 ADP450      0.0000 
      8 O3A        67.6900   35.0340  -27.0200 O.3       1 ADP450      0.0000 
      9 O5'        68.1110   33.1960  -29.0100 O.3       1 ADP450      0.0000 
     10 C5'        68.8550   32.1860  -28.3230 C.3       1 ADP450      0.0000 
     11 C4'        68.5000   30.8610  -29.0570 C.3       1 ADP450      0.0000 
     12 O4'        67.3460   30.2830  -28.4400 O.3       1 ADP450      0.0000 
     13 C3'        68.1900   31.1280  -30.5600 C.3       1 ADP450      0.0000 
     14 O3'        68.9780   30.3080  -31.4430 O.3       1 ADP450      0.0000 
     15 C2'        66.6890   30.8450  -30.7240 C.3       1 ADP450      0.0000 
     16 O2'        66.3860   30.0030  -31.8440 O.3       1 ADP450      0.0000 
     17 C1'        66.2780   30.1730  -29.3930 C.3       1 ADP450      0.0000 
     18 N9         65.0790   30.7580  -28.8060 N.pl3     1 ADP450      0.0000 
     19 C8         65.0070   31.6660  -27.7060 C.2       1 ADP450      0.0000 
     20 N7         63.7920   31.9780  -27.4300 N.2       1 ADP450      0.0000 
     21 C5         62.9860   31.2800  -28.3470 C.ar      1 ADP450      0.0000 
     22 C6         61.5310   31.2440  -28.5070 C.ar      1 ADP450      0.0000 
     23 N6         60.6890   31.9850  -27.6710 N.pl3     1 ADP450      0.0000 
     24 N1         61.0440   30.4890  -29.4630 N.ar      1 ADP450      0.0000 
     25 C2         61.8770   29.7140  -30.3440 C.ar      1 ADP450      0.0000 
     26 N3         63.1820   29.7370  -30.2130 N.ar      1 ADP450      0.0000 
     27 C4         63.7520   30.5410  -29.1870 C.ar      1 ADP450      0.0000 
     28 H          68.5555   32.0775  -27.2977 H         1 ADP450      0.0000 
     29 H          69.9162   32.3264  -28.4052 H         1 ADP450      0.0000 
     30 H          69.3477   30.2102  -29.0016 H         1 ADP450      0.0000 
     31 H          68.3388   32.1815  -30.7306 H         1 ADP450      0.0000 
     32 H          66.1812   31.7936  -30.7614 H         1 ADP450      0.0000 
     33 H          66.0971   29.1160  -29.6104 H         1 ADP450      0.0000 
     34 H          65.8341   31.9703  -27.2645 H         1 ADP450      0.0000 
     35 H          61.1395   32.5282  -26.9624 H         1 ADP450      0.0000 
     36 H          59.7088   31.9080  -27.8536 H         1 ADP450      0.0000 
     37 H          61.3891   29.1532  -31.0676 H         1 ADP450      0.0000 
     38 H          68.3368   29.9894  -32.1411 H         1 ADP450      0.0000 
     39 H          65.6308   30.4597  -32.3142 H         1 ADP450      0.0000 
@<TRIPOS>BOND
     1    2    1 ar   
     2    3    1 ar   
     3    4    1 ar   
     4    8    1 1    
     5    6    5 ar   
     6    7    5 ar   
     7    8    5 1    
     8    9    5 1    
     9   10    9 1    
    10   11   10 1    
    11   28   10 1    
    12   29   10 1    
    13   12   11 1    
    14   13   11 1    
    15   30   11 1    
    16   17   12 1    
    17   14   13 1    
    18   15   13 1    
    19   31   13 1    
    20   38   14 1    
    21   16   15 1    
    22   17   15 1    
    23   32   15 1    
    24   39   16 1    
    25   18   17 1    
    26   33   17 1    
    27   19   18 1    
    28   27   18 1    
    29   20   19 2    
    30   34   19 1    
    31   21   20 1    
    32   22   21 ar   
    33   27   21 ar   
    34   23   22 1    
    35   24   22 ar   
    36   35   23 1    
    37   36   23 1    
    38   25   24 ar   
    39   26   25 ar   
    40   37   25 1    
    41   27   26 ar   
@<TRIPOS>SUBSTRUCTURE
     1 ADP450      1 GROUP   
@<TRIPOS>SET

