#    Name: 1ukz_AMP_2_INTS_M
#    Modification time : Tue Mar 25 06:39:00 2014

@<TRIPOS>MOLECULE
1ukz_AMP_2_INTS_M
   71     0    12     0     0
SMALL
NO_CHARGES


@<TRIPOS>ATOM
      1 NZ         16.2025   34.7310   12.1415 N.4       3 LYC4        0.0000 
      2 NZ         16.0300   33.3070   11.9450 N.4      11 LYL4        0.0000 
      3 NZ         15.4400   37.0670   12.0930 N.4       7 LYP4        0.0000 
      4 N          16.2025   34.7310   12.1415 N.am      2 SEC2        0.0000 
      5 N          16.0300   33.3070   11.9450 N.am     10 SEL2        0.0000 
      6 N          16.3750   36.1550   12.3380 N.am      6 SEP2        0.0000 
      7 NZ         13.8800   35.0600   14.0080 N.4       3 LYC4        0.0000 
      8 NZ         14.0250   34.0830   12.9460 N.4      11 LYL4        0.0000 
      9 NZ         12.5040   36.4860   14.9000 N.4       7 LYP4        0.0000 
     10 NZ         14.1510   35.3885   12.2630 N.4       3 LYC4        0.0000 
     11 N          13.8800   35.0600   14.0080 N.am      2 SEC2        0.0000 
     12 N          14.0250   34.0830   12.9460 N.am     10 SEL2        0.0000 
     13 N          13.7350   36.0370   15.0700 N.am      6 SEP2        0.0000 
     14 N          12.8610   34.9880   13.4895 N.am      2 SEC2        0.0000 
     15 N          11.6970   35.8930   14.0330 N.am      6 SEP2        0.0000 
     16 N          14.1510   35.3885   12.2630 N.am      2 SEC2        0.0000 
     17 N          14.2770   36.6940   11.5800 N.am      6 SEP2        0.0000 
     18 N          15.2000   35.1190   12.6420 N.am      2 SEC2        0.0000 
     19 NZ         14.5890   30.4830   12.7705 N.4       3 LYC4        0.0000 
     20 NZ         14.2070   31.7550   12.3790 N.4      11 LYL4        0.0000 
     21 NZ         15.7210   28.6910   12.2040 N.4       7 LYP4        0.0000 
     22 N          14.5890   30.4830   12.7705 N.am      2 SEC2        0.0000 
     23 N          14.2070   31.7550   12.3790 N.am     10 SEL2        0.0000 
     24 N          14.9710   29.2110   13.1620 N.am      6 SEP2        0.0000 
     25 N          14.9930   30.5205   11.6990 N.am      2 SEC2        0.0000 
     26 N          15.7790   29.2860   11.0190 N.am      6 SEP2        0.0000 
     27 CA         14.1500   33.1505   15.3445 C.3       4 GLC5        0.0000 
     28 CA         16.2620   33.6190   14.9410 C.3      12 GLL5        0.0000 
     29 CA         12.0380   32.6820   15.7480 C.3       8 GLP5        0.0000 
     30 CA         17.2185   34.0675   17.6040 C.3       4 GLC5        0.0000 
     31 CA         17.1190   33.0580   16.0380 C.3      12 GLL5        0.0000 
     32 CA         17.3180   35.0770   19.1700 C.3       8 GLP5        0.0000 
     33 O          19.5960   33.4235   15.0885 O.2       1 ALC1        0.0000 
     34 O          19.1920   32.2150   14.9210 O.2       9 ALL1        0.0000 
     35 O          20.0000   34.6320   15.2560 O.2       5 ALP1        0.0000 
     36 O          19.7995   30.9535   18.3490 O.2       1 ALC1        0.0000 
     37 O          19.1650   31.9180   17.6430 O.2       9 ALL1        0.0000 
     38 O          20.4340   29.9890   19.0550 O.2       5 ALP1        0.0000 
     39 CA         15.3375   30.9840   18.3795 C.3       4 GLC5        0.0000 
     40 CA         16.7850   31.2200   17.2410 C.3      12 GLL5        0.0000 
     41 CA         13.8900   30.7480   19.5180 C.3       8 GLP5        0.0000 
     42 CA         17.0515   33.1485   18.2055 C.3       4 GLC5        0.0000 
     43 N          14.7695   29.0465   14.5555 N.am      2 SEC2        0.0000 
     44 N          14.5680   28.8820   15.9490 N.am     10 SEL2        0.0000 
     45 CA         13.4660   26.4435   18.8545 C.3       4 GLC5        0.0000 
     46 CA         14.7510   26.7900   17.3650 C.3      12 GLL5        0.0000 
     47 CA         12.1810   26.0970   20.3440 C.3       8 GLP5        0.0000 
     48 O          13.6220   26.2215   15.2565 O.2       1 ALC1        0.0000 
     49 O          13.9760   25.9970   16.6060 O.2       9 ALL1        0.0000 
     50 O          13.2680   26.4460   13.9070 O.2       5 ALP1        0.0000 
     51 O          14.2300   24.5735   16.9985 O.2       1 ALC1        0.0000 
     52 O          14.4840   23.1500   17.3910 O.2       5 ALP1        0.0000 
     53 N          15.3845   24.9245   18.9490 N.am      2 SEC2        0.0000 
     54 N          15.3470   26.3470   18.4930 N.am     10 SEL2        0.0000 
     55 N          15.4220   23.5020   19.4050 N.am      6 SEP2        0.0000 
     56 CA         15.0255   28.9505   19.3445 C.3       4 GLC5        0.0000 
     57 CA         16.1610   27.1530   19.1710 C.3      12 GLL5        0.0000 
     58 CA         17.5175   26.0620   19.2355 C.3       4 GLC5        0.0000 
     59 CA         18.8740   24.9710   19.3000 C.3       8 GLP5        0.0000 
     60 CA         16.4395   28.1630   20.7900 C.3       4 GLC5        0.0000 
     61 CA         16.7180   29.1730   22.4090 C.3       8 GLP5        0.0000 
     62 CA         14.1710   26.6250   19.7575 C.3       4 GLC5        0.0000 
     63 N          17.5155   28.2450   20.0085 N.am      2 SEC2        0.0000 
     64 N          16.5250   28.4210   18.9190 N.am     10 SEL2        0.0000 
     65 N          18.5060   28.0690   21.0980 N.am      6 SEP2        0.0000 
     66 CA         12.9132   27.8853   16.6127 C.3       4 GLC5        0.0000 
     67 CA         15.0120   28.1030   16.9860 C.3      12 GLL5        0.0000 
     68 CA         10.9450   28.3240   16.0500 C.3       8 GLP5        0.0000 
     69 CA         14.6735   29.6202   18.4507 C.3       4 GLC5        0.0000 
     70 CA         15.6943   27.1657   15.4377 C.3       4 GLC5        0.0000 
     71 CA         16.5070   26.8850   13.7000 C.3       8 GLP5        0.0000 
@<TRIPOS>BOND
@<TRIPOS>SUBSTRUCTURE
     1 ALC1       33 GROUP        1 X    ALC  0     ROOT ALC X 1
     2 SEC2        4 GROUP        1 X    SEC  0     **** SEC X 2
     3 LYC4        1 GROUP        1 X    LYC  0     **** LYC X 4
     4 GLC5       27 GROUP        1 X    GLC  0     **** GLC X 6
     5 ALP1       35 GROUP        1 Y    ALP  0     ROOT ALP Y 8
     6 SEP2        6 GROUP        1 Y    SEP  0     **** SEP Y 9
     7 LYP4        3 GROUP        1 Y    LYP  0     **** LYP Y 11
     8 GLP5       29 GROUP        1 Y    GLP  0     **** GLP Y 13
     9 ALL1       34 GROUP        1 Z    ALL  0     ROOT ALL Z 15
    10 SEL2        5 GROUP        1 Z    SEL  0     **** SEL Z 16
    11 LYL4        2 GROUP        1 Z    LYL  0     **** LYL Z 18
    12 GLL5       28 GROUP        1 Z    GLL  0     **** GLL Z 20
@<TRIPOS>SET

