#    Name: 1ukz_AMP_2_ligand
#    Modification time : Tue Mar 25 06:39:00 2014

@<TRIPOS>MOLECULE
1ukz_AMP_2_ligand
   35    37     1     0     0
SMALL
NO_CHARGES


@<TRIPOS>ATOM
      1 P          14.8500   32.9520   12.8210 P.3       1 AMP206      0.0000 
      2 O1P        16.0300   33.3070   11.9450 O.co2     1 AMP206      0.0000 
      3 O2P        14.0250   34.0830   12.9460 O.co2     1 AMP206      0.0000 
      4 O3P        14.2070   31.7550   12.3790 O.co2     1 AMP206      0.0000 
      5 O5'        15.5430   32.6280   14.2130 O.3       1 AMP206      0.0000 
      6 C5'        16.2620   33.6190   14.9410 C.3       1 AMP206      0.0000 
      7 C4'        17.1190   33.0580   16.0380 C.3       1 AMP206      0.0000 
      8 O4'        16.2920   32.5220   17.0900 O.3       1 AMP206      0.0000 
      9 C3'        17.9710   31.8470   15.5520 C.3       1 AMP206      0.0000 
     10 O3'        19.1920   32.2150   14.9210 O.3       1 AMP206      0.0000 
     11 C2'        18.2850   31.1170   16.8680 C.3       1 AMP206      0.0000 
     12 O2'        19.1650   31.9180   17.6430 O.3       1 AMP206      0.0000 
     13 C1'        16.7850   31.2200   17.2410 C.3       1 AMP206      0.0000 
     14 N9         15.9430   30.0890   17.1220 N.pl3     1 AMP206      0.0000 
     15 C8         15.1170   30.0350   16.0360 C.2       1 AMP206      0.0000 
     16 N7         14.5680   28.8820   15.9490 N.2       1 AMP206      0.0000 
     17 C5         15.0120   28.1030   16.9860 C.ar      1 AMP206      0.0000 
     18 C6         14.7510   26.7900   17.3650 C.ar      1 AMP206      0.0000 
     19 N6         13.9760   25.9970   16.6060 N.pl3     1 AMP206      0.0000 
     20 N1         15.3470   26.3470   18.4930 N.ar      1 AMP206      0.0000 
     21 C2         16.1610   27.1530   19.1710 C.ar      1 AMP206      0.0000 
     22 N3         16.5250   28.4210   18.9190 N.ar      1 AMP206      0.0000 
     23 C4         15.9020   28.8820   17.7810 C.ar      1 AMP206      0.0000 
     24 H          15.5655   34.3625   15.3964 H         1 AMP206      0.0000 
     25 H          16.9192   34.2132   14.2626 H         1 AMP206      0.0000 
     26 H          17.7871   33.7926   16.4164 H         1 AMP206      0.0000 
     27 H          17.3471   31.2155   14.9795 H         1 AMP206      0.0000 
     28 H          18.5041   30.1636   16.6461 H         1 AMP206      0.0000 
     29 H          16.9720   31.2301   18.5193 H         1 AMP206      0.0000 
     30 H          14.9927   30.8069   15.4293 H         1 AMP206      0.0000 
     31 H          13.8257   25.0698   16.9492 H         1 AMP206      0.0000 
     32 H          13.6187   26.4048   15.7658 H         1 AMP206      0.0000 
     33 H          16.6120   26.7116   20.0898 H         1 AMP206      0.0000 
     34 H          19.3237   33.1784   15.1543 H         1 AMP206      0.0000 
     35 H          19.3074   31.4026   18.4881 H         1 AMP206      0.0000 
@<TRIPOS>BOND
     1    2    1 ar   
     2    3    1 ar   
     3    4    1 ar   
     4    5    1 1    
     5    6    5 1    
     6    7    6 1    
     7   24    6 1    
     8   25    6 1    
     9    8    7 1    
    10    9    7 1    
    11   26    7 1    
    12   13    8 1    
    13   10    9 1    
    14   11    9 1    
    15   27    9 1    
    16   34   10 1    
    17   12   11 1    
    18   13   11 1    
    19   28   11 1    
    20   35   12 1    
    21   14   13 1    
    22   29   13 1    
    23   15   14 1    
    24   23   14 1    
    25   16   15 2    
    26   30   15 1    
    27   17   16 1    
    28   18   17 ar   
    29   23   17 ar   
    30   19   18 1    
    31   20   18 ar   
    32   31   19 1    
    33   32   19 1    
    34   21   20 ar   
    35   22   21 ar   
    36   33   21 1    
    37   23   22 ar   
@<TRIPOS>SUBSTRUCTURE
     1 AMP206      1 GROUP   
@<TRIPOS>SET

