#    Name: 3BJU_4_CAVITY_N1_6.mol2
#    Modification time : Tue Mar 11 11:49:40 2014

@<TRIPOS>MOLECULE
3BJU_4_CAVITY_N1_6.mol2
  186     0     7     0     0
SMALL
NO_CHARGES


@<TRIPOS>ATOM
      1 O          48.9836   -5.7462   61.6291 O.2       2 ALA2        0.0000 
      2 O          47.3537   -5.1261   60.4211 O.2       2 ALA2        0.0000 
      3 O          48.0630   -6.4261   60.6595 O.2       2 ALA2        0.0000 
      4 O          48.7722   -7.7262   60.8978 O.2       2 ALA2        0.0000 
      5 O          45.0147   -3.2059   58.9748 O.2       2 ALA2        0.0000 
      6 O          45.7239   -4.5059   59.2132 O.2       2 ALA2        0.0000 
      7 O          46.4331   -5.8060   59.4515 O.2       2 ALA2        0.0000 
      8 O          47.1424   -7.1061   59.6898 O.2       2 ALA2        0.0000 
      9 O          47.8516   -8.4062   59.9282 O.2       2 ALA2        0.0000 
     10 OG         49.9792  -12.3064   60.6432 O.2       1 SER1        0.0000 
     11 OG         51.3976  -14.9066   61.1199 O.2       1 SER1        0.0000 
     12 N          44.0941   -3.8858   58.0052 N.2       2 ALA2        0.0000 
     13 OG         44.8033   -5.1859   58.2435 O.2       1 SER1        0.0000 
     14 DU         45.5125   -6.4860   58.4819 H         7 CUB7        0.0000 
     15 NZ         46.2218   -7.7861   58.7202 N.2       4 LYS4        0.0000 
     16 O          49.0586  -12.9864   59.6736 O.2       2 ALA2        0.0000 
     17 OG         49.7678  -14.2865   59.9119 O.2       1 SER1        0.0000 
     18 N          50.4770  -15.5865   60.1503 N.2       2 ALA2        0.0000 
     19 OG         43.1735   -4.5658   57.0356 O.2       1 SER1        0.0000 
     20 OG         43.8827   -5.8659   57.2739 O.2       1 SER1        0.0000 
     21 NZ         44.5919   -7.1659   57.5123 N.2       4 LYS4        0.0000 
     22 NZ         45.3012   -8.4660   57.7506 N.2       4 LYS4        0.0000 
     23 CA         48.8472  -14.9664   58.9423 C.3       6 GLY6        0.0000 
     24 N          42.9621   -6.5458   56.3043 N.2       2 ALA2        0.0000 
     25 NZ         43.6713   -7.8459   56.5427 N.2       4 LYS4        0.0000 
     26 CA         40.2726   -4.7667   64.5718 C.3       6 GLY6        0.0000 
     27 CA         40.9818   -6.0668   64.8101 C.3       6 GLY6        0.0000 
     28 CA         41.6910   -7.3668   65.0485 C.3       6 GLY6        0.0000 
     29 DU         42.4002   -8.6669   65.2868 H         7 CUB7        0.0000 
     30 NZ         43.1094   -9.9670   65.5251 N.2       4 LYS4        0.0000 
     31 O          38.6428   -4.1465   63.3638 O.2       2 ALA2        0.0000 
     32 CA         39.3520   -5.4466   63.6022 C.3       6 GLY6        0.0000 
     33 O          40.0612   -6.7467   63.8405 O.2       2 ALA2        0.0000 
     34 DU         40.7704   -8.0468   64.0789 H         7 CUB7        0.0000 
     35 DU         41.4796   -9.3469   64.3172 H         7 CUB7        0.0000 
     36 NZ         42.1888  -10.6470   64.5555 N.2       4 LYS4        0.0000 
     37 O          37.7222   -4.8265   62.3942 O.2       2 ALA2        0.0000 
     38 O          38.4314   -6.1266   62.6326 O.2       2 ALA2        0.0000 
     39 O          39.8498   -8.7267   63.1092 O.2       2 ALA2        0.0000 
     40 NZ         40.5590  -10.0268   63.3476 N.2       4 LYS4        0.0000 
     41 NZ         41.2682  -11.3269   63.5859 N.2       4 LYS4        0.0000 
     42 NZ         40.3476  -12.0069   62.6163 N.2       4 LYS4        0.0000 
     43 CZ         49.9320   -5.4340   60.5097 C.ar      5 PHE5        0.0000 
     44 CA         50.6412   -6.7341   60.7480 C.3       6 GLY6        0.0000 
     45 O          49.0114   -6.1140   59.5401 O.2       2 ALA2        0.0000 
     46 CZ         45.9631   -2.8937   57.8554 C.ar      5 PHE5        0.0000 
     47 CZ         46.6724   -4.1938   58.0938 C.ar      5 PHE5        0.0000 
     48 CZ         47.3816   -5.4939   58.3321 C.ar      5 PHE5        0.0000 
     49 O          48.0908   -6.7939   58.5704 O.2       2 ALA2        0.0000 
     50 CA         45.0425   -3.5736   56.8858 C.3       6 GLY6        0.0000 
     51 CA         45.7518   -4.8737   57.1241 C.3       6 GLY6        0.0000 
     52 DU         46.4610   -6.1738   57.3625 H         7 CUB7        0.0000 
     53 O          47.1702   -7.4739   57.6008 O.2       2 ALA2        0.0000 
     54 CA         44.1219   -4.2536   55.9162 C.3       6 GLY6        0.0000 
     55 O          44.8312   -5.5537   56.1545 O.2       2 ALA2        0.0000 
     56 N          45.5404   -6.8538   56.3929 N.2       2 ALA2        0.0000 
     57 N          46.2496   -8.1539   56.6312 N.2       2 ALA2        0.0000 
     58 CZ         50.9082   -5.4896   57.3013 C.ar      5 PHE5        0.0000 
     59 N          51.6174   -6.7897   57.5396 N.2       2 ALA2        0.0000 
     60 CA         49.9876   -6.1696   56.3317 C.3       6 GLY6        0.0000 
     61 N          48.7443   -7.3584   62.9868 N.2       2 ALA2        0.0000 
     62 O          47.1145   -6.7383   61.7788 O.2       2 ALA2        0.0000 
     63 N          47.8237   -8.0384   62.0172 N.2       2 ALA2        0.0000 
     64 O          44.7755   -4.8181   60.3325 O.2       2 ALA2        0.0000 
     65 O          45.4847   -6.1182   60.5709 O.2       2 ALA2        0.0000 
     66 O          46.1939   -7.4183   60.8092 O.2       2 ALA2        0.0000 
     67 O          46.9031   -8.7183   61.0476 O.2       2 ALA2        0.0000 
     68 O          47.6124  -10.0184   61.2859 O.2       2 ALA2        0.0000 
     69 N          49.0308  -12.6186   61.7626 N.2       2 ALA2        0.0000 
     70 OG         43.8549   -5.4981   59.3629 O.2       1 SER1        0.0000 
     71 NZ         44.5641   -6.7981   59.6013 N.2       4 LYS4        0.0000 
     72 NZ         45.2733   -8.0982   59.8396 N.2       4 LYS4        0.0000 
     73 NZ         45.9825   -9.3983   60.0780 N.2       4 LYS4        0.0000 
     74 O          47.4010  -11.9985   60.5546 O.2       2 ALA2        0.0000 
     75 O          48.1102  -13.2985   60.7930 O.2       2 ALA2        0.0000 
     76 DU         48.8194  -14.5986   61.0313 H         7 CUB7        0.0000 
     77 CA         38.4036   -5.7588   64.7216 C.3       6 GLY6        0.0000 
     78 N          39.1128   -7.0589   64.9599 N.2       2 ALA2        0.0000 
     79 N          39.8220   -8.3590   65.1982 N.2       2 ALA2        0.0000 
     80 DU         40.5312   -9.6590   65.4366 H         7 CUB7        0.0000 
     81 NZ         41.2404  -10.9591   65.6749 N.2       4 LYS4        0.0000 
     82 O          38.9014   -9.0389   64.2286 O.2       2 ALA2        0.0000 
     83 O          39.6106  -10.3390   64.4670 O.2       2 ALA2        0.0000 
     84 NZ         40.3198  -11.6391   64.7053 N.2       4 LYS4        0.0000 
     85 O          38.6900  -11.0190   63.4974 O.2       2 ALA2        0.0000 
     86 CA         39.3992  -12.3190   63.7357 C.3       6 GLY6        0.0000 
     87 OG         42.9343   -6.1780   58.3933 O.2       1 SER1        0.0000 
     88 O          47.1896  -13.9785   59.8234 O.2       2 ALA2        0.0000 
     89 N          47.8988  -15.2786   60.0617 N.2       2 ALA2        0.0000 
     90 O          46.1383   -6.6827   64.9872 O.2       2 ALA2        0.0000 
     91 DU         46.8475   -7.9828   65.2256 H         7 CUB7        0.0000 
     92 O          43.7993   -4.7625   63.5409 O.2       2 ALA2        0.0000 
     93 O          44.5085   -6.0625   63.7793 O.2       2 ALA2        0.0000 
     94 O          45.2177   -7.3626   64.0176 O.2       2 ALA2        0.0000 
     95 DU         45.9269   -8.6627   64.2560 H         7 CUB7        0.0000 
     96 DU         46.6361   -9.9628   64.4943 H         7 CUB7        0.0000 
     97 DU         47.3453  -11.2629   64.7327 H         7 CUB7        0.0000 
     98 OG         42.1694   -4.1423   62.3330 O.2       1 SER1        0.0000 
     99 OG         42.8787   -5.4424   62.5713 O.2       1 SER1        0.0000 
    100 O          43.5879   -6.7425   62.8097 O.2       2 ALA2        0.0000 
    101 DU         44.2971   -8.0426   63.0480 H         7 CUB7        0.0000 
    102 NZ         45.0063   -9.3427   63.2864 N.2       4 LYS4        0.0000 
    103 DU         45.7155  -10.6427   63.5247 H         7 CUB7        0.0000 
    104 DU         46.4247  -11.9428   63.7630 H         7 CUB7        0.0000 
    105 DU         47.1339  -13.2429   64.0014 H         7 CUB7        0.0000 
    106 OG         41.9581   -6.1224   61.6017 O.2       1 SER1        0.0000 
    107 NZ         42.6673   -7.4225   61.8401 N.2       4 LYS4        0.0000 
    108 NZ         43.3765   -8.7225   62.0784 N.2       4 LYS4        0.0000 
    109 NZ         44.0857  -10.0226   62.3167 N.2       4 LYS4        0.0000 
    110 NZ         44.7949  -11.3227   62.5551 N.2       4 LYS4        0.0000 
    111 NZ         45.5041  -12.6228   62.7934 N.2       4 LYS4        0.0000 
    112 NZ         46.2133  -13.9229   63.0318 N.2       4 LYS4        0.0000 
    113 NZ         46.9225  -15.2230   63.2701 N.2       4 LYS4        0.0000 
    114 NZ         41.7467   -8.1024   60.8704 N.2       4 LYS4        0.0000 
    115 NZ         44.5835  -13.3027   61.8238 N.2       4 LYS4        0.0000 
    116 O          46.1661   -7.0505   62.8982 O.2       2 ALA2        0.0000 
    117 N          46.8753   -8.3505   63.1366 N.2       2 ALA2        0.0000 
    118 N          47.5845   -9.6506   63.3749 N.2       2 ALA2        0.0000 
    119 O          43.8271   -5.1303   61.4519 O.2       2 ALA2        0.0000 
    120 O          44.5363   -6.4303   61.6903 O.2       2 ALA2        0.0000 
    121 O          45.2455   -7.7304   61.9286 O.2       2 ALA2        0.0000 
    122 NZ         45.9547   -9.0305   62.1670 N.2       4 LYS4        0.0000 
    123 DU         46.6639  -10.3306   62.4053 H         7 CUB7        0.0000 
    124 DU         47.3731  -11.6307   62.6437 H         7 CUB7        0.0000 
    125 DU         48.0824  -12.9307   62.8820 H         7 CUB7        0.0000 
    126 OG         42.9065   -5.8102   60.4823 O.2       1 SER1        0.0000 
    127 NZ         43.6157   -7.1103   60.7207 N.2       4 LYS4        0.0000 
    128 NZ         44.3249   -8.4104   60.9590 N.2       4 LYS4        0.0000 
    129 NZ         45.7433  -11.0105   61.4357 N.2       4 LYS4        0.0000 
    130 NZ         46.4525  -12.3106   61.6740 N.2       4 LYS4        0.0000 
    131 NZ         47.1618  -13.6107   61.9124 N.2       4 LYS4        0.0000 
    132 NZ         47.8710  -14.9108   62.1507 N.2       4 LYS4        0.0000 
    133 NZ         45.5319  -12.9906   60.7044 N.2       4 LYS4        0.0000 
    134 NZ         46.2412  -14.2907   60.9428 N.2       4 LYS4        0.0000 
    135 NZ         46.9504  -15.5907   61.1811 N.2       4 LYS4        0.0000 
    136 NZ         43.2930   -7.6192   68.3454 N.2       4 LYS4        0.0000 
    137 NZ         44.0022   -8.9192   68.5838 N.2       4 LYS4        0.0000 
    138 CA         41.6632   -6.9990   67.1375 C.3       6 GLY6        0.0000 
    139 CA         42.3724   -8.2991   67.3758 C.3       6 GLY6        0.0000 
    140 NZ         43.0816   -9.5992   67.6142 N.2       4 LYS4        0.0000 
    141 CA         40.7426   -7.6790   66.1679 C.3       6 GLY6        0.0000 
    142 DU         41.4518   -8.9791   66.4062 H         7 CUB7        0.0000 
    143 NZ         42.1610  -10.2792   66.6445 N.2       4 LYS4        0.0000 
    144 NZ         46.5805   -9.2272   68.6723 N.2       4 LYS4        0.0000 
    145 NZ         44.2414   -7.3070   67.2260 N.2       4 LYS4        0.0000 
    146 NZ         44.9506   -8.6071   67.4644 N.2       4 LYS4        0.0000 
    147 NZ         45.6599   -9.9072   67.7027 N.2       4 LYS4        0.0000 
    148 CA         42.6116   -6.6869   66.0181 C.3       6 GLY6        0.0000 
    149 N          43.3208   -7.9870   66.2564 N.2       2 ALA2        0.0000 
    150 NZ         44.0300   -9.2870   66.4948 N.2       4 LYS4        0.0000 
    151 N          45.1899   -6.9948   66.1066 N.2       2 ALA2        0.0000 
    152 NZ         45.8991   -8.2949   66.3450 N.2       4 LYS4        0.0000 
    153 N          43.5600   -6.3747   64.8987 N.2       2 ALA2        0.0000 
    154 N          44.2693   -7.6748   65.1370 N.2       2 ALA2        0.0000 
    155 DU         44.9785   -8.9749   65.3754 H         7 CUB7        0.0000 
    156 NZ         45.6877  -10.2750   65.6137 N.2       4 LYS4        0.0000 
    157 O          41.2210   -4.4545   63.4524 O.2       2 ALA2        0.0000 
    158 O          41.9302   -5.7546   63.6907 O.2       2 ALA2        0.0000 
    159 DU         42.6394   -7.0547   63.9291 H         7 CUB7        0.0000 
    160 DU         43.3487   -8.3548   64.1674 H         7 CUB7        0.0000 
    161 NZ         44.7671  -10.9549   64.6441 N.2       4 LYS4        0.0000 
    162 NZ         45.4763  -12.2550   64.8824 N.2       4 LYS4        0.0000 
    163 NZ         46.1855  -13.5551   65.1208 N.2       4 LYS4        0.0000 
    164 OG         39.5912   -3.8344   62.2444 O.2       1 SER1        0.0000 
    165 OG         40.3004   -5.1345   62.4828 O.2       1 SER1        0.0000 
    166 O          41.0096   -6.4345   62.7211 O.2       2 ALA2        0.0000 
    167 DU         41.7188   -7.7346   62.9595 H         7 CUB7        0.0000 
    168 NZ         42.4280   -9.0347   63.1978 N.2       4 LYS4        0.0000 
    169 NZ         43.1373  -10.3348   63.4361 N.2       4 LYS4        0.0000 
    170 NZ         43.8465  -11.6349   63.6745 N.2       4 LYS4        0.0000 
    171 NZ         44.5557  -12.9350   63.9128 N.2       4 LYS4        0.0000 
    172 NZ         45.2649  -14.2350   64.1512 N.2       4 LYS4        0.0000 
    173 CZ         50.8804   -5.1219   59.3903 C.ar      5 PHE5        0.0000 
    174 N          51.5896   -6.4219   59.6286 N.2       2 ALA2        0.0000 
    175 CZ         49.9598   -5.8018   58.4207 C.ar      5 PHE5        0.0000 
    176 O          50.6690   -7.1019   58.6590 O.2       2 ALA2        0.0000 
    177 CZ         48.3300   -5.1817   57.2127 C.ar      5 PHE5        0.0000 
    178 OD1        49.0392   -6.4818   57.4511 O.3       3 ASP3        0.0000 
    179 CA         46.7002   -4.5616   56.0048 C.3       6 GLY6        0.0000 
    180 CA         47.4094   -5.8616   56.2431 C.3       6 GLY6        0.0000 
    181 CA         48.1186   -7.1617   56.4814 C.3       6 GLY6        0.0000 
    182 NZ         40.7982   -8.4146   61.9898 N.2       4 LYS4        0.0000 
    183 NZ         41.5074   -9.7147   62.2282 N.2       4 LYS4        0.0000 
    184 NZ         42.2167  -11.0147   62.4665 N.2       4 LYS4        0.0000 
    185 NZ         42.9259  -12.3148   62.7049 N.2       4 LYS4        0.0000 
    186 NZ         43.6351  -13.6149   62.9432 N.2       4 LYS4        0.0000 
@<TRIPOS>BOND
@<TRIPOS>SUBSTRUCTURE
     1 SER1       10 GROUP   
     2 ALA2        1 GROUP   
     3 ASP3      178 GROUP   
     4 LYS4       15 GROUP   
     5 PHE5       43 GROUP   
     6 GLY6       23 GROUP   
     7 CUB7       14 GROUP   
@<TRIPOS>SET

