#    Name: 3bju_ATP_4_INTS_M
#    Modification time : Mon Mar 24 19:48:37 2014

@<TRIPOS>MOLECULE
3bju_ATP_4_INTS_M
   57     0    12     0     0
SMALL
NO_CHARGES


@<TRIPOS>ATOM
      1 N          49.4295   -9.5390   62.8950 N.am      2 SEC2        0.0000 
      2 N          48.1470   -9.6960   63.0740 N.am     10 SEL2        0.0000 
      3 N          50.7120   -9.3820   62.7160 N.am      6 SEP2        0.0000 
      4 NZ         49.1815  -10.1760   60.0590 N.4       3 LYC4        0.0000 
      5 NZ         48.1380  -10.8330   60.7890 N.4      11 LYL4        0.0000 
      6 NZ         49.8760   -9.9930   58.1500 N.4       7 LYP4        0.0000 
      7 N          48.4170  -10.7050   59.4035 N.am      2 SEC2        0.0000 
      8 N          48.1380  -10.8330   60.7890 N.am     10 SEL2        0.0000 
      9 N          48.6960  -10.5770   58.0180 N.am      6 SEP2        0.0000 
     10 N          49.1815  -10.1760   60.0590 N.am      2 SEC2        0.0000 
     11 N          50.2250   -9.5190   59.3290 N.am      6 SEP2        0.0000 
     12 N          40.9435   -6.6430   59.8685 N.am      2 SEC2        0.0000 
     13 N          42.6020   -6.8160   60.0960 N.am     10 SEL2        0.0000 
     14 N          39.2850   -6.4700   59.6410 N.am      6 SEP2        0.0000 
     15 NZ         45.0310   -4.8870   62.3855 N.4       3 LYC4        0.0000 
     16 NZ         43.7190   -5.3780   61.9650 N.4      11 LYL4        0.0000 
     17 NZ         46.3960   -3.1070   62.5030 N.4       7 LYP4        0.0000 
     18 N          45.0310   -4.8870   62.3855 N.am      2 SEC2        0.0000 
     19 N          43.7190   -5.3780   61.9650 N.am     10 SEL2        0.0000 
     20 N          46.3430   -4.3960   62.8060 N.am      6 SEP2        0.0000 
     21 N          44.5765   -3.9735   61.8640 N.am      2 SEC2        0.0000 
     22 N          45.4340   -2.5690   61.7630 N.am      6 SEP2        0.0000 
     23 CA         44.5565   -9.4975   57.8075 C.3       4 GLC5        0.0000 
     24 CA         45.4510   -7.4940   57.7440 C.3      12 GLL5        0.0000 
     25 CA         43.6620  -11.5010   57.8710 C.3       8 GLP5        0.0000 
     26 O          43.7065   -8.9525   58.0120 O.2       1 ALC1        0.0000 
     27 O          44.5290   -8.3550   57.1010 O.2       9 ALL1        0.0000 
     28 O          42.8840   -9.5500   58.9230 O.2       5 ALP1        0.0000 
     29 CA         48.5070   -8.5165   56.0420 C.3       4 GLC5        0.0000 
     30 CA         46.8480   -7.7790   57.2600 C.3      12 GLL5        0.0000 
     31 CA         50.1660   -9.2540   54.8240 C.3       8 GLP5        0.0000 
     32 O          46.7830   -9.6285   55.8710 O.2       1 ALC1        0.0000 
     33 O          46.7990   -8.1260   55.8790 O.2       9 ALL1        0.0000 
     34 O          46.7670  -11.1310   55.8630 O.2       5 ALP1        0.0000 
     35 CA         48.1020   -4.5620   57.6185 C.3       4 GLC5        0.0000 
     36 CA         47.5210   -6.4230   57.2940 C.3      12 GLL5        0.0000 
     37 CA         48.6830   -2.7010   57.9430 C.3       8 GLP5        0.0000 
     38 CA         51.9125   -4.0985   58.4345 C.3       4 GLC5        0.0000 
     39 CA         51.5330   -5.6160   60.0030 C.3      12 GLL5        0.0000 
     40 CA         52.2920   -2.5810   56.8660 C.3       8 GLP5        0.0000 
     41 O          53.0935   -4.3280   60.9340 O.2       1 ALC1        0.0000 
     42 O          52.0150   -5.3640   61.2300 O.2       9 ALL1        0.0000 
     43 O          54.1720   -3.2920   60.6380 O.2       5 ALP1        0.0000 
     44 N          53.8360   -5.6580   59.4930 N.am      2 SEC2        0.0000 
     45 N          52.3480   -5.6620   58.9200 N.am     10 SEL2        0.0000 
     46 N          55.3240   -5.6540   60.0660 N.am      6 SEP2        0.0000 
     47 CA         53.1855   -6.8570   59.2075 C.3       4 GLC5        0.0000 
     48 CA         51.8920   -5.8990   57.6860 C.3      12 GLL5        0.0000 
     49 CA         54.4790   -7.8150   60.7290 C.3       8 GLP5        0.0000 
     50 CA         52.0920   -4.2400   57.2760 C.3       4 GLC5        0.0000 
     51 CA         53.5465   -6.4335   56.9995 C.3       4 GLC5        0.0000 
     52 CA         55.2010   -6.9680   56.3130 C.3       8 GLP5        0.0000 
     53 CA         47.3618   -6.5095   55.2780 C.3       4 GLC5        0.0000 
     54 CA         47.5390   -5.9180   53.2790 C.3       8 GLP5        0.0000 
     55 CA         51.1570   -6.9932   61.2677 C.3       4 GLC5        0.0000 
     56 CA         50.0830   -5.8190   59.8300 C.3      12 GLL5        0.0000 
     57 CA         51.5060   -8.2690   62.6190 C.3       8 GLP5        0.0000 
@<TRIPOS>BOND
@<TRIPOS>SUBSTRUCTURE
     1 ALC1       26 GROUP        1 X    ALC  0     ROOT ALC X 1
     2 SEC2        1 GROUP        1 X    SEC  0     **** SEC X 2
     3 LYC4        4 GROUP        1 X    LYC  0     **** LYC X 4
     4 GLC5       23 GROUP        1 X    GLC  0     **** GLC X 6
     5 ALP1       28 GROUP        1 Y    ALP  0     ROOT ALP Y 8
     6 SEP2        3 GROUP        1 Y    SEP  0     **** SEP Y 9
     7 LYP4        6 GROUP        1 Y    LYP  0     **** LYP Y 11
     8 GLP5       25 GROUP        1 Y    GLP  0     **** GLP Y 13
     9 ALL1       27 GROUP        1 Z    ALL  0     ROOT ALL Z 15
    10 SEL2        2 GROUP        1 Z    SEL  0     **** SEL Z 16
    11 LYL4        5 GROUP        1 Z    LYL  0     **** LYL Z 18
    12 GLL5       24 GROUP        1 Z    GLL  0     **** GLL Z 20
@<TRIPOS>SET

