#    Name: 3bju_ATP_4_ligand
#    Modification time : Mon Mar 24 19:48:37 2014

@<TRIPOS>MOLECULE
3bju_ATP_4_ligand
   43    45     1     0     0
SMALL
NO_CHARGES


@<TRIPOS>ATOM
      1 PG         47.3150  -10.3020   61.9610 P.3       1 ATP603      0.0000 
      2 O1G        48.1470   -9.6960   63.0740 O.co2     1 ATP603      0.0000 
      3 O2G        48.1380  -10.8330   60.7890 O.co2     1 ATP603      0.0000 
      4 O3G        46.2620  -11.2270   62.4560 O.co2     1 ATP603      0.0000 
      5 PB         45.3010   -8.2280   61.9900 P.3       1 ATP603      0.0000 
      6 O1B        44.1440   -9.1710   62.0740 O.co2     1 ATP603      0.0000 
      7 O2B        45.6940   -7.5500   63.2700 O.co2     1 ATP603      0.0000 
      8 O3B        46.5370   -9.0160   61.3070 O.3       1 ATP603      0.0000 
      9 PA         43.8000   -6.1320   60.6590 P.3       1 ATP603      0.0000 
     10 O1A        42.6020   -6.8160   60.0960 O.co2     1 ATP603      0.0000 
     11 O2A        43.7190   -5.3780   61.9650 O.co2     1 ATP603      0.0000 
     12 O3A        45.0400   -7.1410   60.8500 O.3       1 ATP603      0.0000 
     13 O5'        44.4140   -5.1990   59.4890 O.3       1 ATP603      0.0000 
     14 C5'        44.1130   -5.3440   58.1050 C.3       1 ATP603      0.0000 
     15 C4'        45.1920   -6.0640   57.2920 C.3       1 ATP603      0.0000 
     16 O4'        46.4840   -5.4210   57.2560 O.3       1 ATP603      0.0000 
     17 C3'        45.4510   -7.4940   57.7440 C.3       1 ATP603      0.0000 
     18 O3'        44.5290   -8.3550   57.1010 O.3       1 ATP603      0.0000 
     19 C2'        46.8480   -7.7790   57.2600 C.3       1 ATP603      0.0000 
     20 O2'        46.7990   -8.1260   55.8790 O.3       1 ATP603      0.0000 
     21 C1'        47.5210   -6.4230   57.2940 C.3       1 ATP603      0.0000 
     22 N9         48.3470   -6.2010   58.5080 N.pl3     1 ATP603      0.0000 
     23 C8         47.9330   -6.0590   59.7850 C.2       1 ATP603      0.0000 
     24 N7         48.9770   -5.8450   60.6210 N.2       1 ATP603      0.0000 
     25 C5         50.0830   -5.8190   59.8300 C.ar      1 ATP603      0.0000 
     26 C6         51.5330   -5.6160   60.0030 C.ar      1 ATP603      0.0000 
     27 N6         52.0150   -5.3640   61.2300 N.pl3     1 ATP603      0.0000 
     28 N1         52.3480   -5.6620   58.9200 N.ar      1 ATP603      0.0000 
     29 C2         51.8920   -5.8990   57.6860 C.ar      1 ATP603      0.0000 
     30 N3         50.5770   -6.0810   57.4420 N.ar      1 ATP603      0.0000 
     31 C4         49.6580   -6.0480   58.4490 C.ar      1 ATP603      0.0000 
     32 H          43.9446   -4.3521   57.6204 H         1 ATP603      0.0000 
     33 H          43.1595   -5.9053   57.9539 H         1 ATP603      0.0000 
     34 H          44.8197   -6.1500   56.2403 H         1 ATP603      0.0000 
     35 H          45.4238   -7.5307   58.7893 H         1 ATP603      0.0000 
     36 H          47.3352   -8.4361   57.8613 H         1 ATP603      0.0000 
     37 H          48.1422   -6.3282   56.4106 H         1 ATP603      0.0000 
     38 H          46.9940   -6.1047   60.0740 H         1 ATP603      0.0000 
     39 H          52.4560   -4.4753   61.3556 H         1 ATP603      0.0000 
     40 H          51.8901   -6.0874   61.9090 H         1 ATP603      0.0000 
     41 H          52.5709   -5.9460   56.8805 H         1 ATP603      0.0000 
     42 H          43.9721   -8.7355   57.8393 H         1 ATP603      0.0000 
     43 H          46.8302   -9.1254   55.8621 H         1 ATP603      0.0000 
@<TRIPOS>BOND
     1    2    1 ar   
     2    3    1 ar   
     3    4    1 ar   
     4    8    1 1    
     5    6    5 ar   
     6    7    5 ar   
     7    8    5 1    
     8   12    5 1    
     9   10    9 ar   
    10   11    9 ar   
    11   12    9 1    
    12   13    9 1    
    13   14   13 1    
    14   15   14 1    
    15   32   14 1    
    16   33   14 1    
    17   16   15 1    
    18   17   15 1    
    19   34   15 1    
    20   21   16 1    
    21   18   17 1    
    22   19   17 1    
    23   35   17 1    
    24   42   18 1    
    25   20   19 1    
    26   21   19 1    
    27   36   19 1    
    28   43   20 1    
    29   22   21 1    
    30   37   21 1    
    31   23   22 1    
    32   31   22 1    
    33   24   23 2    
    34   38   23 1    
    35   25   24 1    
    36   26   25 ar   
    37   31   25 ar   
    38   27   26 1    
    39   28   26 ar   
    40   39   27 1    
    41   40   27 1    
    42   29   28 ar   
    43   30   29 ar   
    44   41   29 1    
    45   31   30 ar   
@<TRIPOS>SUBSTRUCTURE
     1 ATP603      1 GROUP   
@<TRIPOS>SET

