#    Name: 4e0i_FAD_2_INTS_M
#    Modification time : Mon Apr  7 23:14:32 2014

@<TRIPOS>MOLECULE
4e0i_FAD_2_INTS_M
  106     0    12     0     0
SMALL
NO_CHARGES


@<TRIPOS>ATOM
      1 N           2.3700  -24.7815   26.6505 N.am      2 SEC2        0.0000 
      2 N           2.4400  -25.5020   25.2580 N.am     10 SEL2        0.0000 
      3 N           2.3000  -24.0610   28.0430 N.am      6 SEP2        0.0000 
      4 CA          1.1590  -22.2460   22.4350 C.3       4 GLC5        0.0000 
      5 CA          3.0340  -22.0620   23.5640 C.3      12 GLL5        0.0000 
      6 CA         -0.7160  -22.4300   21.3060 C.3       8 GLP5        0.0000 
      7 CA          3.7165  -19.4355   24.8565 C.3       4 GLC5        0.0000 
      8 CA          4.2700  -21.1970   23.7780 C.3      12 GLL5        0.0000 
      9 CA          3.1630  -17.6740   25.9350 C.3       8 GLP5        0.0000 
     10 CA          7.1635  -23.2825   24.3115 C.3       4 GLC5        0.0000 
     11 CA          5.5680  -21.9530   23.5410 C.3      12 GLL5        0.0000 
     12 CA          8.7590  -24.6120   25.0820 C.3       8 GLP5        0.0000 
     13 CA          8.0575  -22.6330   24.5860 C.3       4 GLC5        0.0000 
     14 CA          6.4960  -21.4900   24.6460 C.3      12 GLL5        0.0000 
     15 CA          9.6190  -23.7760   24.5260 C.3       8 GLP5        0.0000 
     16 N           7.0895  -19.0810   24.0845 N.am      2 SEC2        0.0000 
     17 N           7.4340  -20.5570   24.1610 N.am     10 SEL2        0.0000 
     18 N           6.7450  -17.6050   24.0080 N.am      6 SEP2        0.0000 
     19 CA          4.3780  -19.2425   25.8000 C.3       4 GLC5        0.0000 
     20 CA          5.5930  -20.8110   25.6650 C.3      12 GLL5        0.0000 
     21 N           5.6455  -24.8225   28.9335 N.am      2 SEC2        0.0000 
     22 N           5.4050  -23.2390   28.3870 N.am     10 SEL2        0.0000 
     23 N           5.8860  -26.4060   29.4800 N.am      6 SEP2        0.0000 
     24 CA          6.4775  -21.2465   32.0755 C.3       4 GLC5        0.0000 
     25 CA          5.5870  -21.8260   30.4580 C.3      12 GLL5        0.0000 
     26 CA          7.3680  -20.6670   33.6930 C.3       8 GLP5        0.0000 
     27 CA          4.1045  -22.5210   31.0445 C.3       4 GLC5        0.0000 
     28 CA          2.6220  -23.2160   31.6310 C.3       8 GLP5        0.0000 
     29 O           5.3590  -22.8645   32.7225 O.2       1 ALC1        0.0000 
     30 O           5.8410  -22.8180   31.3090 O.2       9 ALL1        0.0000 
     31 O           4.8770  -22.9110   34.1360 O.2       5 ALP1        0.0000 
     32 O           6.7920  -24.0485   31.8920 O.2       1 ALC1        0.0000 
     33 O           7.7430  -25.2790   32.4750 O.2       5 ALP1        0.0000 
     34 CA          6.5890  -20.0775   31.8345 C.3       4 GLC5        0.0000 
     35 CA          5.8100  -19.4880   29.9760 C.3      12 GLL5        0.0000 
     36 N           5.1715  -18.4525   28.2635 N.am      2 SEC2        0.0000 
     37 N           5.7560  -19.7650   28.6230 N.am     10 SEL2        0.0000 
     38 N           4.5870  -17.1400   27.9040 N.am      6 SEP2        0.0000 
     39 N          -4.1340  -33.8470   30.1145 N.am      2 SEC2        0.0000 
     40 N          -4.5210  -32.4080   29.4020 N.am     10 SEL2        0.0000 
     41 N          -3.7470  -35.2860   30.8270 N.am      6 SEP2        0.0000 
     42 N          -5.8690  -31.8115   29.2680 N.am      2 SEC2        0.0000 
     43 N          -7.2170  -31.2150   29.1340 N.am      6 SEP2        0.0000 
     44 N          -5.8755  -30.4600   29.1540 N.am      2 SEC2        0.0000 
     45 N          -4.5340  -29.7050   29.1740 N.am     10 SEL2        0.0000 
     46 CA         -3.3500  -24.9770   30.6045 C.3       4 GLC5        0.0000 
     47 CA         -5.3970  -25.2700   31.0360 C.3      12 GLL5        0.0000 
     48 CA         -1.3030  -24.6840   30.1730 C.3       8 GLP5        0.0000 
     49 CA         -6.6195  -23.6255   31.2715 C.3       4 GLC5        0.0000 
     50 CA         -7.8420  -21.9810   31.5070 C.3       8 GLP5        0.0000 
     51 CA         -5.2320  -25.1250   32.9825 C.3       4 GLC5        0.0000 
     52 CA         -5.0670  -24.9800   34.9290 C.3       8 GLP5        0.0000 
     53 CA         -5.2970  -22.7310   27.4380 C.3       4 GLC5        0.0000 
     54 CA         -4.4820  -24.0750   28.4760 C.3      12 GLL5        0.0000 
     55 CA         -6.1120  -21.3870   26.4000 C.3       8 GLP5        0.0000 
     56 CA         -2.8265  -24.0670   28.7085 C.3       4 GLC5        0.0000 
     57 CA         -1.1710  -24.0590   28.9410 C.3       8 GLP5        0.0000 
     58 CA         -4.4335  -22.1740   29.6070 C.3       4 GLC5        0.0000 
     59 CA         -4.3850  -20.2730   30.7380 C.3       8 GLP5        0.0000 
     60 CA         -6.4825  -24.1780   27.9895 C.3       4 GLC5        0.0000 
     61 CA         -8.4830  -24.2810   27.5030 C.3       8 GLP5        0.0000 
     62 CA         -4.1165  -25.5535   25.7705 C.3       4 GLC5        0.0000 
     63 CA         -4.0800  -26.3940   27.6440 C.3      12 GLL5        0.0000 
     64 CA         -4.1530  -24.7130   23.8970 C.3       8 GLP5        0.0000 
     65 CA         -4.4280  -29.3760   24.6080 C.3       4 GLC5        0.0000 
     66 CA         -2.9650  -28.0320   25.5560 C.3      12 GLL5        0.0000 
     67 CA         -5.8910  -30.7200   23.6600 C.3       8 GLP5        0.0000 
     68 CA         -3.5590  -26.3725   24.7265 C.3       4 GLC5        0.0000 
     69 CA         -1.0450  -28.7125   27.6695 C.3       4 GLC5        0.0000 
     70 CA         -1.4390  -28.0590   25.7040 C.3      12 GLL5        0.0000 
     71 CA         -0.6510  -29.3660   29.6350 C.3       8 GLP5        0.0000 
     72 CA         -0.4240  -29.6840   26.0435 C.3       4 GLC5        0.0000 
     73 CA          0.5910  -31.3090   26.3830 C.3       8 GLP5        0.0000 
     74 N          -1.1120  -26.0615   27.3300 N.am      2 SEC2        0.0000 
     75 N          -1.0710  -27.5580   26.9700 N.am     10 SEL2        0.0000 
     76 N          -1.1530  -24.5650   27.6900 N.am      6 SEP2        0.0000 
     77 CA         -2.4275  -25.9745   24.2705 C.3       4 GLC5        0.0000 
     78 CA         -0.7020  -27.2360   24.6440 C.3      12 GLL5        0.0000 
     79 CA         -0.8540  -25.4010   25.7030 C.3       4 GLC5        0.0000 
     80 CA         -1.0060  -23.5660   26.7620 C.3       8 GLP5        0.0000 
     81 N           1.0375  -29.1955   23.1915 N.am      2 SEC2        0.0000 
     82 N          -0.4000  -29.1280   23.1700 N.am     10 SEL2        0.0000 
     83 N           2.4750  -29.2630   23.2130 N.am      6 SEP2        0.0000 
     84 NZ          3.0475  -28.1690   22.4165 N.4       3 LYC4        0.0000 
     85 NZ          3.6200  -27.0750   21.6200 N.4      11 LYL4        0.0000 
     86 NZ          2.4750  -29.2630   23.2130 N.4       7 LYP4        0.0000 
     87 N           3.0475  -28.1690   22.4165 N.am      2 SEC2        0.0000 
     88 N           3.6200  -27.0750   21.6200 N.am     10 SEL2        0.0000 
     89 N           0.8845  -24.7420   19.5730 N.am      2 SEC2        0.0000 
     90 N           1.9600  -25.5640   20.5510 N.am     10 SEL2        0.0000 
     91 N          -0.1910  -23.9200   18.5950 N.am      6 SEP2        0.0000 
     92 CA          7.6342  -20.6442   26.3253 C.3       4 GLC5        0.0000 
     93 CA          9.2240  -20.1380   27.4950 C.3       8 GLP5        0.0000 
     94 CA          4.0225  -22.4650   29.3855 C.3       4 GLC5        0.0000 
     95 CA          5.6180  -21.0430   28.1850 C.3      12 GLL5        0.0000 
     96 CA          2.4700  -23.3620   30.1330 C.3       8 GLP5        0.0000 
     97 CA          7.2139  -22.2346   29.4869 C.3       4 GLC5        0.0000 
     98 CA          5.5320  -22.0930   29.0910 C.3      12 GLL5        0.0000 
     99 CA          8.8390  -22.9680   29.9940 C.3       8 GLP5        0.0000 
    100 CA         -6.3395  -29.0828   29.6917 C.3       4 GLC5        0.0000 
    101 CA         -4.5190  -28.3350   29.0010 C.3      12 GLL5        0.0000 
    102 CA         -7.9490  -30.2430   29.8620 C.3       8 GLP5        0.0000 
    103 CA         -2.4765  -28.7127   29.0158 C.3       4 GLC5        0.0000 
    104 CA         -1.7775  -27.5405   21.4378 C.3       4 GLC5        0.0000 
    105 CA         -0.8240  -27.7830   23.2180 C.3      12 GLL5        0.0000 
    106 CA         -3.1460  -27.7020   20.1550 C.3       8 GLP5        0.0000 
@<TRIPOS>BOND
@<TRIPOS>SUBSTRUCTURE
     1 ALC1       29 GROUP        1 X    ALC  0     ROOT ALC X 1
     2 SEC2        1 GROUP        1 X    SEC  0     **** SEC X 2
     3 LYC4       84 GROUP        1 X    LYC  0     **** LYC X 4
     4 GLC5        4 GROUP        1 X    GLC  0     **** GLC X 6
     5 ALP1       31 GROUP        1 Y    ALP  0     ROOT ALP Y 8
     6 SEP2        3 GROUP        1 Y    SEP  0     **** SEP Y 9
     7 LYP4       86 GROUP        1 Y    LYP  0     **** LYP Y 11
     8 GLP5        6 GROUP        1 Y    GLP  0     **** GLP Y 13
     9 ALL1       30 GROUP        1 Z    ALL  0     ROOT ALL Z 15
    10 SEL2        2 GROUP        1 Z    SEL  0     **** SEL Z 16
    11 LYL4       85 GROUP        1 Z    LYL  0     **** LYL Z 18
    12 GLL5        5 GROUP        1 Z    GLL  0     **** GLL Z 20
@<TRIPOS>SET

