#    Name: 4e0i_FAD_2_ligand
#    Modification time : Mon Apr  7 23:14:32 2014

@<TRIPOS>MOLECULE
4e0i_FAD_2_ligand
   84    89     1     0     0
SMALL
NO_CHARGES


@<TRIPOS>ATOM
      1 PA          2.2490  -24.4760   24.1660 P.3       1 FAD201      0.0000 
      2 O1A         0.7850  -24.2270   23.9010 O.co2     1 FAD201      0.0000 
      3 O2A         2.4400  -25.5020   25.2580 O.co2     1 FAD201      0.0000 
      4 O5B         2.9570  -23.0810   24.5380 O.3       1 FAD201      0.0000 
      5 C5B         3.0340  -22.0620   23.5640 C.3       1 FAD201      0.0000 
      6 C4B         4.2700  -21.1970   23.7780 C.3       1 FAD201      0.0000 
      7 O4B         4.2970  -20.7150   25.1070 O.3       1 FAD201      0.0000 
      8 C3B         5.5680  -21.9530   23.5410 C.3       1 FAD201      0.0000 
      9 O3B         6.0900  -21.6440   22.2690 O.3       1 FAD201      0.0000 
     10 C2B         6.4960  -21.4900   24.6460 C.3       1 FAD201      0.0000 
     11 O2B         7.4340  -20.5570   24.1610 O.3       1 FAD201      0.0000 
     12 C1B         5.5930  -20.8110   25.6650 C.3       1 FAD201      0.0000 
     13 N9A         5.5410  -21.5810   26.9250 N.pl3     1 FAD201      0.0000 
     14 C8A         5.4070  -22.9410   27.0680 C.2       1 FAD201      0.0000 
     15 N7A         5.4050  -23.2390   28.3870 N.2       1 FAD201      0.0000 
     16 C5A         5.5320  -22.0930   29.0910 C.ar      1 FAD201      0.0000 
     17 C6A         5.5870  -21.8260   30.4580 C.ar      1 FAD201      0.0000 
     18 N6A         5.8410  -22.8180   31.3090 N.pl3     1 FAD201      0.0000 
     19 N1A         5.7250  -20.5200   30.8920 N.ar      1 FAD201      0.0000 
     20 C2A         5.8100  -19.4880   29.9760 C.ar      1 FAD201      0.0000 
     21 N3A         5.7560  -19.7650   28.6230 N.ar      1 FAD201      0.0000 
     22 C4A         5.6180  -21.0430   28.1850 C.ar      1 FAD201      0.0000 
     23 N1         -3.2740  -30.8600   25.9340 N.2       1 FAD201      0.0000 
     24 C2         -3.2920  -32.2310   26.1180 C.2       1 FAD201      0.0000 
     25 O2         -2.9250  -32.9750   25.2100 O.2       1 FAD201      0.0000 
     26 N3         -3.7240  -32.7630   27.3180 N.am      1 FAD201      0.0000 
     27 C4         -4.1380  -31.9260   28.3370 C.2       1 FAD201      0.0000 
     28 O4         -4.5210  -32.4080   29.4020 O.2       1 FAD201      0.0000 
     29 C4X        -4.1200  -30.5430   28.1560 C.2       1 FAD201      0.0000 
     30 N5         -4.5340  -29.7050   29.1740 N.2       1 FAD201      0.0000 
     31 C5X        -4.5190  -28.3350   29.0010 C.ar      1 FAD201      0.0000 
     32 C6         -4.9410  -27.5100   30.0420 C.ar      1 FAD201      0.0000 
     33 C7         -4.9340  -26.1250   29.8900 C.ar      1 FAD201      0.0000 
     34 C7M        -5.3970  -25.2700   31.0360 C.3       1 FAD201      0.0000 
     35 C8         -4.5000  -25.5630   28.6830 C.ar      1 FAD201      0.0000 
     36 C8M        -4.4820  -24.0750   28.4760 C.3       1 FAD201      0.0000 
     37 C9         -4.0800  -26.3940   27.6440 C.ar      1 FAD201      0.0000 
     38 C9A        -4.0850  -27.7840   27.7920 C.ar      1 FAD201      0.0000 
     39 N10        -3.6600  -28.6200   26.7610 N.pl3     1 FAD201      0.0000 
     40 C10        -3.6850  -30.0020   26.9430 C.2       1 FAD201      0.0000 
     41 C1'        -2.9650  -28.0320   25.5560 C.3       1 FAD201      0.0000 
     42 C2'        -1.4390  -28.0590   25.7040 C.3       1 FAD201      0.0000 
     43 O2'        -1.0710  -27.5580   26.9700 O.3       1 FAD201      0.0000 
     44 C3'        -0.7020  -27.2360   24.6440 C.3       1 FAD201      0.0000 
     45 O3'        -1.1530  -25.8970   24.6820 O.3       1 FAD201      0.0000 
     46 C4'        -0.8240  -27.7830   23.2180 C.3       1 FAD201      0.0000 
     47 O4'        -0.4000  -29.1280   23.1700 O.3       1 FAD201      0.0000 
     48 C5'         0.0060  -26.9750   22.2230 C.3       1 FAD201      0.0000 
     49 O5'         1.3280  -26.8540   22.7040 O.3       1 FAD201      0.0000 
     50 P           2.4820  -26.1110   21.8600 P.3       1 FAD201      0.0000 
     51 O1P         3.6200  -27.0750   21.6200 O.co2     1 FAD201      0.0000 
     52 O2P         1.9600  -25.5640   20.5510 O.co2     1 FAD201      0.0000 
     53 O3P         3.0020  -24.9180   22.8100 O.3       1 FAD201      0.0000 
     54 H           2.1546  -21.3960   23.5931 H         1 FAD201      0.0000 
     55 H           3.0900  -22.4722   22.5411 H         1 FAD201      0.0000 
     56 H           4.2344  -20.3687   23.0756 H         1 FAD201      0.0000 
     57 H           5.3724  -22.9932   23.6805 H         1 FAD201      0.0000 
     58 H           6.9349  -22.3394   25.1046 H         1 FAD201      0.0000 
     59 H           6.0000  -19.8270   25.8596 H         1 FAD201      0.0000 
     60 H           5.3285  -23.5670   26.3419 H         1 FAD201      0.0000 
     61 H           5.4042  -22.7508   32.2061 H         1 FAD201      0.0000 
     62 H           6.4457  -23.5408   30.9744 H         1 FAD201      0.0000 
     63 H           5.9132  -18.5166   30.3007 H         1 FAD201      0.0000 
     64 H          -3.7375  -33.7854   27.4535 H         1 FAD201      0.0000 
     65 H          -5.2597  -27.9264   30.9283 H         1 FAD201      0.0000 
     66 H          -3.7614  -25.9785   26.7546 H         1 FAD201      0.0000 
     67 H          -3.2863  -26.9947   25.4154 H         1 FAD201      0.0000 
     68 H          -3.2413  -28.5968   24.6595 H         1 FAD201      0.0000 
     69 H          -1.1099  -29.0958   25.6004 H         1 FAD201      0.0000 
     70 H           0.3749  -27.2637   24.9073 H         1 FAD201      0.0000 
     71 H          -1.8686  -27.6983   22.9176 H         1 FAD201      0.0000 
     72 H          -0.4813  -25.9999   22.1008 H         1 FAD201      0.0000 
     73 H          -0.0378  -27.4939   21.2576 H         1 FAD201      0.0000 
     74 H          -4.8420  -25.4146   31.8552 H         1 FAD201      0.0000 
     75 H          -5.3470  -24.2957   30.8163 H         1 FAD201      0.0000 
     76 H          -6.3452  -25.4658   31.2861 H         1 FAD201      0.0000 
     77 H          -3.8938  -23.6146   29.1409 H         1 FAD201      0.0000 
     78 H          -4.1443  -23.8305   27.5671 H         1 FAD201      0.0000 
     79 H          -5.3946  -23.6764   28.5666 H         1 FAD201      0.0000 
     80 H           6.8146  -20.9768   22.4418 H         1 FAD201      0.0000 
     81 H           8.3008  -20.8163   24.5870 H         1 FAD201      0.0000 
     82 H          -0.1050  -27.7957   27.0715 H         1 FAD201      0.0000 
     83 H          -0.3692  -25.3515   24.3851 H         1 FAD201      0.0000 
     84 H          -0.0758  -29.3302   24.0941 H         1 FAD201      0.0000 
@<TRIPOS>BOND
     1    2    1 ar   
     2    3    1 ar   
     3    4    1 1    
     4   53    1 1    
     5    5    4 1    
     6    6    5 1    
     7   54    5 1    
     8   55    5 1    
     9    7    6 1    
    10    8    6 1    
    11   56    6 1    
    12   12    7 1    
    13    9    8 1    
    14   10    8 1    
    15   57    8 1    
    16   80    9 1    
    17   11   10 1    
    18   12   10 1    
    19   58   10 1    
    20   81   11 1    
    21   13   12 1    
    22   59   12 1    
    23   14   13 1    
    24   22   13 1    
    25   15   14 2    
    26   60   14 1    
    27   16   15 1    
    28   17   16 ar   
    29   22   16 ar   
    30   18   17 1    
    31   19   17 ar   
    32   61   18 1    
    33   62   18 1    
    34   20   19 ar   
    35   21   20 ar   
    36   63   20 1    
    37   22   21 ar   
    38   24   23 1    
    39   40   23 2    
    40   25   24 2    
    41   26   24 am   
    42   27   26 am   
    43   64   26 1    
    44   28   27 2    
    45   29   27 1    
    46   30   29 2    
    47   40   29 1    
    48   31   30 1    
    49   32   31 ar   
    50   38   31 ar   
    51   33   32 ar   
    52   65   32 1    
    53   34   33 1    
    54   35   33 ar   
    55   74   34 1    
    56   75   34 1    
    57   76   34 1    
    58   36   35 1    
    59   37   35 ar   
    60   77   36 1    
    61   78   36 1    
    62   79   36 1    
    63   38   37 ar   
    64   66   37 1    
    65   39   38 1    
    66   40   39 1    
    67   41   39 1    
    68   42   41 1    
    69   67   41 1    
    70   68   41 1    
    71   43   42 1    
    72   44   42 1    
    73   69   42 1    
    74   82   43 1    
    75   45   44 1    
    76   46   44 1    
    77   70   44 1    
    78   83   45 1    
    79   47   46 1    
    80   48   46 1    
    81   71   46 1    
    82   84   47 1    
    83   49   48 1    
    84   72   48 1    
    85   73   48 1    
    86   50   49 1    
    87   51   50 ar   
    88   52   50 ar   
    89   53   50 1    
@<TRIPOS>SUBSTRUCTURE
     1 FAD201      1 GROUP   
@<TRIPOS>SET

