#    Name: 4I1C_1_CAVITY_N1_6.mol2
#    Modification time : Tue Mar 11 03:58:09 2014

@<TRIPOS>MOLECULE
4I1C_1_CAVITY_N1_6.mol2
  176     0     7     0     0
SMALL
NO_CHARGES


@<TRIPOS>ATOM
      1 N           8.6546  -12.6713    4.1461 N.2       2 ALA2        0.0000 
      2 N           8.4684  -14.0334    3.5461 N.2       2 ALA2        0.0000 
      3 CZ          9.9257  -11.8473    5.6311 C.ar      5 PHE5        0.0000 
      4 CZ          8.9068  -12.1715    6.6832 C.ar      5 PHE5        0.0000 
      5 CA         10.7584  -12.8852    3.9791 C.3       6 GLY6        0.0000 
      6 N           9.7396  -13.2094    5.0311 N.2       2 ALA2        0.0000 
      7 N           8.7207  -13.5336    6.0831 N.2       2 ALA2        0.0000 
      8 N           7.7018  -13.8578    7.1352 N.2       2 ALA2        0.0000 
      9 CA          9.5534  -14.5715    4.4311 C.3       6 GLY6        0.0000 
     10 N           8.5346  -14.8957    5.4831 N.2       2 ALA2        0.0000 
     11 N           7.5157  -15.2199    6.5351 N.2       2 ALA2        0.0000 
     12 CA          6.4968  -15.5442    7.5872 C.3       6 GLY6        0.0000 
     13 N           8.3484  -16.2578    4.8830 N.2       2 ALA2        0.0000 
     14 N           7.3296  -16.5820    5.9351 N.2       2 ALA2        0.0000 
     15 CA          6.3107  -16.9062    6.9871 C.3       6 GLY6        0.0000 
     16 CZ         11.0107  -12.3854    6.5161 C.ar      5 PHE5        0.0000 
     17 CZ          9.9919  -12.7097    7.5681 C.ar      5 PHE5        0.0000 
     18 N           8.9730  -13.0339    8.6202 N.2       2 ALA2        0.0000 
     19 CZ         11.8435  -13.4233    4.8640 C.ar      5 PHE5        0.0000 
     20 CZ         10.8246  -13.7475    5.9161 C.ar      5 PHE5        0.0000 
     21 DU          9.8057  -14.0717    6.9681 H         7 CUB7        0.0000 
     22 N           8.7868  -14.3960    8.0201 N.2       2 ALA2        0.0000 
     23 N           7.7680  -14.7202    9.0722 N.2       2 ALA2        0.0000 
     24 CZ          6.7491  -15.0444   10.1242 C.ar      5 PHE5        0.0000 
     25 CA         11.6573  -14.7854    4.2640 C.3       6 GLY6        0.0000 
     26 DU         10.6384  -15.1096    5.3160 H         7 CUB7        0.0000 
     27 DU          9.6196  -15.4338    6.3681 H         7 CUB7        0.0000 
     28 DU          8.6007  -15.7581    7.4201 H         7 CUB7        0.0000 
     29 DU          7.5818  -16.0823    8.4721 H         7 CUB7        0.0000 
     30 CA          6.5630  -16.4065    9.5242 C.3       6 GLY6        0.0000 
     31 O          13.5089  -15.4991    1.5599 O.2       2 ALA2        0.0000 
     32 CA         12.4901  -15.8233    2.6119 C.3       6 GLY6        0.0000 
     33 N          10.4523  -16.4717    4.7160 N.2       2 ALA2        0.0000 
     34 N           9.4334  -16.7959    5.7680 N.2       2 ALA2        0.0000 
     35 DU          8.4146  -17.1202    6.8201 H         7 CUB7        0.0000 
     36 DU          7.3957  -17.4444    7.8721 H         7 CUB7        0.0000 
     37 CA          6.3768  -17.7686    8.9241 C.3       6 GLY6        0.0000 
     38 N           8.2284  -18.4823    6.2200 N.2       2 ALA2        0.0000 
     39 DU          7.2096  -18.8065    7.2721 H         7 CUB7        0.0000 
     40 CZ         10.2441  -12.2099   10.1052 C.ar      5 PHE5        0.0000 
     41 CZ         12.0957  -12.9236    7.4011 C.ar      5 PHE5        0.0000 
     42 CZ         11.0769  -13.2478    8.4531 C.ar      5 PHE5        0.0000 
     43 CZ         10.0580  -13.5720    9.5051 C.ar      5 PHE5        0.0000 
     44 CZ          9.0391  -13.8962   10.5572 C.ar      5 PHE5        0.0000 
     45 CZ         11.9096  -14.2857    6.8010 C.ar      5 PHE5        0.0000 
     46 DU         10.8907  -14.6099    7.8531 H         7 CUB7        0.0000 
     47 DU          9.8719  -14.9341    8.9051 H         7 CUB7        0.0000 
     48 DU          8.8530  -15.2583    9.9571 H         7 CUB7        0.0000 
     49 CZ          7.8341  -15.5825   11.0092 C.ar      5 PHE5        0.0000 
     50 CZ          6.8152  -15.9067   12.0612 C.ar      5 PHE5        0.0000 
     51 CZ         14.7801  -14.6751    3.0449 C.ar      5 PHE5        0.0000 
     52 CZ         13.7612  -14.9993    4.0969 C.ar      5 PHE5        0.0000 
     53 CZ         12.7423  -15.3235    5.1489 C.ar      5 PHE5        0.0000 
     54 DU         11.7235  -15.6478    6.2010 H         7 CUB7        0.0000 
     55 DU         10.7046  -15.9720    7.2530 H         7 CUB7        0.0000 
     56 DU          9.6857  -16.2962    8.3051 H         7 CUB7        0.0000 
     57 DU          8.6668  -16.6204    9.3571 H         7 CUB7        0.0000 
     58 DU          7.6480  -16.9446   10.4091 H         7 CUB7        0.0000 
     59 N           6.6291  -17.2688   11.4612 N.2       2 ALA2        0.0000 
     60 OG         14.5939  -16.0372    2.4448 O.2       1 SER1        0.0000 
     61 O          13.5751  -16.3614    3.4969 O.2       2 ALA2        0.0000 
     62 O          12.5562  -16.6856    4.5489 O.2       2 ALA2        0.0000 
     63 O          11.5373  -17.0099    5.6009 O.2       2 ALA2        0.0000 
     64 O          10.5185  -17.3341    6.6530 O.2       2 ALA2        0.0000 
     65 DU          9.4996  -17.6583    7.7050 H         7 CUB7        0.0000 
     66 DU          8.4807  -17.9825    8.7571 H         7 CUB7        0.0000 
     67 N           7.4618  -18.3067    9.8091 N.2       2 ALA2        0.0000 
     68 N           6.4430  -18.6309   10.8611 N.2       2 ALA2        0.0000 
     69 O          14.4078  -17.3993    1.8448 O.2       2 ALA2        0.0000 
     70 O          10.3323  -18.6962    6.0529 O.2       2 ALA2        0.0000 
     71 DU          9.3134  -19.0204    7.1050 H         7 CUB7        0.0000 
     72 OG          8.2946  -19.3446    8.1570 O.2       1 SER1        0.0000 
     73 N           7.2757  -19.6688    9.2091 N.2       2 ALA2        0.0000 
     74 O          14.2217  -18.7614    1.2447 O.2       2 ALA2        0.0000 
     75 O          10.1462  -20.0583    5.4529 O.2       2 ALA2        0.0000 
     76 DU          9.1273  -20.3825    6.5049 H         7 CUB7        0.0000 
     77 O          13.0166  -20.4477    1.6967 O.2       2 ALA2        0.0000 
     78 O          11.9978  -20.7719    2.7488 O.2       2 ALA2        0.0000 
     79 CZ         13.1808  -13.4617    8.2860 C.ar      5 PHE5        0.0000 
     80 CA         12.1619  -13.7859    9.3381 C.3       6 GLY6        0.0000 
     81 CA         11.1430  -14.1101   10.3901 C.3       6 GLY6        0.0000 
     82 CZ         12.9946  -14.8238    7.6860 C.ar      5 PHE5        0.0000 
     83 N          11.9757  -15.1480    8.7380 N.2       2 ALA2        0.0000 
     84 N          10.9569  -15.4722    9.7901 N.2       2 ALA2        0.0000 
     85 CA          9.9380  -15.7964   10.8421 C.3       6 GLY6        0.0000 
     86 CA          8.9191  -16.1207   11.8941 C.3       6 GLY6        0.0000 
     87 N           7.9003  -16.4449   12.9462 N.2       2 ALA2        0.0000 
     88 CZ         15.8651  -15.2132    3.9298 C.ar      5 PHE5        0.0000 
     89 CZ         14.8462  -15.5374    4.9819 C.ar      5 PHE5        0.0000 
     90 CZ         13.8273  -15.8617    6.0339 C.ar      5 PHE5        0.0000 
     91 DU         12.8085  -16.1859    7.0860 H         7 CUB7        0.0000 
     92 N          11.7896  -16.5101    8.1380 N.2       2 ALA2        0.0000 
     93 N          10.7707  -16.8343    9.1900 N.2       2 ALA2        0.0000 
     94 N           9.7519  -17.1585   10.2421 N.2       2 ALA2        0.0000 
     95 N           8.7330  -17.4827   11.2941 N.2       2 ALA2        0.0000 
     96 N           7.7141  -17.8070   12.3461 N.2       2 ALA2        0.0000 
     97 DU         15.6789  -16.5753    3.3298 H         7 CUB7        0.0000 
     98 O          14.6601  -16.8995    4.3818 O.2       2 ALA2        0.0000 
     99 O          13.6412  -17.2238    5.4339 O.2       2 ALA2        0.0000 
    100 O          12.6223  -17.5480    6.4859 O.2       2 ALA2        0.0000 
    101 N          11.6035  -17.8722    7.5380 N.2       2 ALA2        0.0000 
    102 N          10.5846  -18.1964    8.5900 N.2       2 ALA2        0.0000 
    103 N           9.5657  -18.5206    9.6420 N.2       2 ALA2        0.0000 
    104 OG          8.5468  -18.8448   10.6941 O.2       1 SER1        0.0000 
    105 N           7.5280  -19.1691   11.7461 N.2       2 ALA2        0.0000 
    106 DU         15.4928  -17.9374    2.7298 H         7 CUB7        0.0000 
    107 O          14.4739  -18.2616    3.7818 O.2       2 ALA2        0.0000 
    108 O          13.4551  -18.5859    4.8338 O.2       2 ALA2        0.0000 
    109 O          12.4362  -18.9101    5.8859 O.2       2 ALA2        0.0000 
    110 DU         11.4173  -19.2343    6.9379 H         7 CUB7        0.0000 
    111 O          10.3985  -19.5585    7.9899 O.2       2 ALA2        0.0000 
    112 OG          9.3796  -19.8827    9.0420 O.2       1 SER1        0.0000 
    113 O          15.3067  -19.2995    2.1297 O.2       2 ALA2        0.0000 
    114 O          14.2878  -19.6237    3.1818 O.2       2 ALA2        0.0000 
    115 O          12.2501  -20.2722    5.2858 O.2       2 ALA2        0.0000 
    116 DU         11.2312  -20.5964    6.3379 H         7 CUB7        0.0000 
    117 O          10.2123  -20.9206    7.3899 O.2       2 ALA2        0.0000 
    118 OD1        14.1017  -20.9858    2.5817 O.3       3 ASP3        0.0000 
    119 O          13.0828  -21.3100    3.6338 O.2       2 ALA2        0.0000 
    120 O          12.0639  -21.6343    4.6858 O.2       2 ALA2        0.0000 
    121 DU         11.0450  -21.9585    5.7378 H         7 CUB7        0.0000 
    122 CA         10.0262  -22.2827    6.7899 C.3       6 GLY6        0.0000 
    123 O          13.9155  -22.3479    1.9817 O.2       2 ALA2        0.0000 
    124 O          12.8966  -22.6721    3.0337 O.2       2 ALA2        0.0000 
    125 OG         11.8778  -22.9964    4.0858 O.2       1 SER1        0.0000 
    126 O          10.8589  -23.3206    5.1378 O.2       2 ALA2        0.0000 
    127 CZ         17.5085  -11.6651    6.6149 C.ar      5 PHE5        0.0000 
    128 CZ         17.3224  -13.0272    6.0149 C.ar      5 PHE5        0.0000 
    129 CZ         15.2846  -13.6756    8.1190 C.ar      5 PHE5        0.0000 
    130 NZ         14.2658  -13.9998    9.1710 N.2       4 LYS4        0.0000 
    131 NZ         13.2469  -14.3240   10.2230 N.2       4 LYS4        0.0000 
    132 CZ         17.1362  -14.3893    5.4148 C.ar      5 PHE5        0.0000 
    133 CZ         16.1174  -14.7135    6.4669 C.ar      5 PHE5        0.0000 
    134 CZ         15.0985  -15.0377    7.5189 C.ar      5 PHE5        0.0000 
    135 N          14.0796  -15.3619    8.5710 N.2       2 ALA2        0.0000 
    136 N          13.0608  -15.6861    9.6230 N.2       2 ALA2        0.0000 
    137 CA         10.0041  -16.6588   12.7791 C.3       6 GLY6        0.0000 
    138 DU         15.9312  -16.0756    5.8668 H         7 CUB7        0.0000 
    139 OG         14.9124  -16.3998    6.9189 O.2       1 SER1        0.0000 
    140 N          13.8935  -16.7240    7.9709 N.2       2 ALA2        0.0000 
    141 N           9.8180  -18.0209   12.1791 N.2       2 ALA2        0.0000 
    142 CA          8.7991  -18.3451   13.2311 C.3       6 GLY6        0.0000 
    143 DU         16.7640  -17.1135    4.2148 H         7 CUB7        0.0000 
    144 DU         15.7451  -17.4377    5.2668 H         7 CUB7        0.0000 
    145 OG         14.7262  -17.7619    6.3188 O.2       1 SER1        0.0000 
    146 OG         13.7073  -18.0861    7.3709 O.2       1 SER1        0.0000 
    147 OG          9.6319  -19.3830   11.5790 O.2       1 SER1        0.0000 
    148 N           8.6130  -19.7072   12.6311 N.2       2 ALA2        0.0000 
    149 O          16.5778  -18.4756    3.6147 O.2       2 ALA2        0.0000 
    150 O          15.5590  -18.7998    4.6668 O.2       2 ALA2        0.0000 
    151 OG         14.5401  -19.1240    5.7188 O.2       1 SER1        0.0000 
    152 OG         13.5212  -19.4482    6.7708 O.2       1 SER1        0.0000 
    153 CA         12.5023  -19.7724    7.8229 C.3       6 GLY6        0.0000 
    154 O          15.3728  -20.1619    4.0667 O.2       2 ALA2        0.0000 
    155 CA         14.3539  -20.4861    5.1188 C.3       6 GLY6        0.0000 
    156 CA         13.3351  -20.8103    6.1708 C.3       6 GLY6        0.0000 
    157 CA         12.3162  -21.1345    7.2228 C.3       6 GLY6        0.0000 
    158 CA         13.1489  -22.1724    5.5708 C.3       6 GLY6        0.0000 
    159 CA         12.1301  -22.4966    6.6228 C.3       6 GLY6        0.0000 
    160 O          11.1112  -22.8208    7.6748 O.2       2 ALA2        0.0000 
    161 CA         12.9628  -23.5345    4.9707 C.3       6 GLY6        0.0000 
    162 CA         11.9439  -23.8587    6.0228 C.3       6 GLY6        0.0000 
    163 N          17.5747  -12.5274    8.5519 N.2       2 ALA2        0.0000 
    164 N          17.3885  -13.8895    7.9519 N.2       2 ALA2        0.0000 
    165 NZ         16.3697  -14.2137    9.0039 N.2       4 LYS4        0.0000 
    166 N          17.2024  -15.2516    7.3518 N.2       2 ALA2        0.0000 
    167 NZ         16.1835  -15.5758    8.4039 N.2       4 LYS4        0.0000 
    168 NZ         17.0162  -16.6137    6.7518 N.2       4 LYS4        0.0000 
    169 NZ         15.9974  -16.9379    7.8038 N.2       4 LYS4        0.0000 
    170 OG         14.9785  -17.2621    8.8559 O.2       1 SER1        0.0000 
    171 N          10.9030  -18.5590   13.0640 N.2       2 ALA2        0.0000 
    172 CA          9.8841  -18.8832   14.1161 C.3       6 GLY6        0.0000 
    173 OG         16.8301  -17.9758    6.1518 O.2       1 SER1        0.0000 
    174 N          10.7169  -19.9211   12.4640 N.2       2 ALA2        0.0000 
    175 N           9.6980  -20.2453   13.5160 N.2       2 ALA2        0.0000 
    176 OG         16.6440  -19.3379    5.5517 O.2       1 SER1        0.0000 
@<TRIPOS>BOND
@<TRIPOS>SUBSTRUCTURE
     1 SER1       60 GROUP   
     2 ALA2        1 GROUP   
     3 ASP3      118 GROUP   
     4 LYS4      130 GROUP   
     5 PHE5        3 GROUP   
     6 GLY6        5 GROUP   
     7 CUB7       21 GROUP   
@<TRIPOS>SET

