#    Name: 4i1c_1BE_1_INTS_M
#    Modification time : Tue Mar 25 02:11:31 2014

@<TRIPOS>MOLECULE
4i1c_1BE_1_INTS_M
   75     0     9     0     0
SMALL
NO_CHARGES


@<TRIPOS>ATOM
      1 CA         11.6010  -10.7275    4.4545 C.3       3 GLC5        0.0000 
      2 CA          9.8200  -11.2420    4.3270 C.3       9 GLL5        0.0000 
      3 CA         13.3820  -10.2130    4.5820 C.3       6 GLP5        0.0000 
      4 CA          9.4750  -11.0645    2.6115 C.3       3 GLC5        0.0000 
      5 CA          9.1300  -10.8870    0.8960 C.3       6 GLP5        0.0000 
      6 CA         10.1245   -9.4580    3.4240 C.3       3 GLC5        0.0000 
      7 CA         10.4290   -7.6740    2.5210 C.3       6 GLP5        0.0000 
      8 CA          9.6155  -10.6085    6.1420 C.3       3 GLC5        0.0000 
      9 CA          9.4110   -9.9750    7.9570 C.3       6 GLP5        0.0000 
     10 CA          8.3775  -11.7205    5.9295 C.3       3 GLC5        0.0000 
     11 CA         10.1090  -12.7120    5.2590 C.3       9 GLL5        0.0000 
     12 CA          6.6460  -10.7290    6.6000 C.3       6 GLP5        0.0000 
     13 CA          9.7505  -14.6660    3.1180 C.3       3 GLC5        0.0000 
     14 CA          9.4430  -13.9080    4.9480 C.3       9 GLL5        0.0000 
     15 CA         10.0580  -15.4240    1.2880 C.3       6 GLP5        0.0000 
     16 O          11.9840  -16.8955    9.8075 O.2       1 ALC1        0.0000 
     17 O          11.3660  -15.8300    8.9300 O.2       7 ALL1        0.0000 
     18 O          12.6020  -17.9610   10.6850 O.2       4 ALP1        0.0000 
     19 CA         13.3410  -16.0885   11.5590 C.3       3 GLC5        0.0000 
     20 CA         12.7100  -14.5800   10.5360 C.3       9 GLL5        0.0000 
     21 CA         13.9720  -17.5970   12.5820 C.3       6 GLP5        0.0000 
     22 CA         10.3090  -11.9105    9.5480 C.3       3 GLC5        0.0000 
     23 CA         10.3130  -13.9170   10.0460 C.3       9 GLL5        0.0000 
     24 CA         10.3050   -9.9040    9.0500 C.3       6 GLP5        0.0000 
     25 CA          8.5290  -13.0060   11.0235 C.3       3 GLC5        0.0000 
     26 CA          6.7450  -12.0950   12.0010 C.3       6 GLP5        0.0000 
     27 CA         13.3665  -12.9160    7.1900 C.3       3 GLC5        0.0000 
     28 CA         12.1100  -13.5980    8.3250 C.3       9 GLL5        0.0000 
     29 CA         14.6230  -12.2340    6.0550 C.3       6 GLP5        0.0000 
     30 CA         11.2075  -11.7510    8.6875 C.3       3 GLC5        0.0000 
     31 CA         12.5045  -12.2960   10.1035 C.3       3 GLC5        0.0000 
     32 CA         12.8990  -10.9940   11.8820 C.3       6 GLP5        0.0000 
     33 CA         12.1070  -19.5035    9.1195 C.3       3 GLC5        0.0000 
     34 CA         10.5220  -18.5440    8.1600 C.3       9 GLL5        0.0000 
     35 CA         13.6920  -20.4630   10.0790 C.3       6 GLP5        0.0000 
     36 N          11.6160  -21.4990    8.9795 N.am      2 SEC2        0.0000 
     37 N          11.2640  -20.8200    7.8450 N.am      8 SEL2        0.0000 
     38 N          11.9680  -22.1780   10.1140 N.am      5 SEP2        0.0000 
     39 CA          5.3045  -16.6195   10.5875 C.3       3 GLC5        0.0000 
     40 CA          7.3120  -16.0770   10.3660 C.3       9 GLL5        0.0000 
     41 CA          3.2970  -17.1620   10.8090 C.3       6 GLP5        0.0000 
     42 CA          6.4360  -18.0970   12.7080 C.3       3 GLC5        0.0000 
     43 CA          8.0380  -16.8850   11.6980 C.3       9 GLL5        0.0000 
     44 CA          4.8340  -19.3090   13.7180 C.3       6 GLP5        0.0000 
     45 CA          7.9925  -17.7535   13.7595 C.3       3 GLC5        0.0000 
     46 CA          7.9470  -18.6220   15.8210 C.3       6 GLP5        0.0000 
     47 CA          9.2285  -15.5720   12.7190 C.3       3 GLC5        0.0000 
     48 CA         10.4190  -14.2590   13.7400 C.3       6 GLP5        0.0000 
     49 CA         11.6770  -19.8775   10.8025 C.3       3 GLC5        0.0000 
     50 CA          9.6620  -19.2920   11.5260 C.3       9 GLL5        0.0000 
     51 CA          9.7745  -21.4065   10.8115 C.3       3 GLC5        0.0000 
     52 CA          9.8870  -23.5210   10.0970 C.3       6 GLP5        0.0000 
     53 CA         11.9240  -18.3810   12.7980 C.3       3 GLC5        0.0000 
     54 CA          9.8760  -19.1650   13.0140 C.3       9 GLL5        0.0000 
     55 CA          9.2735  -22.1100   14.4040 C.3       3 GLC5        0.0000 
     56 CA         10.4760  -20.4440   13.5950 C.3       9 GLL5        0.0000 
     57 CA          8.0710  -23.7760   15.2130 C.3       6 GLP5        0.0000 
     58 CA         10.8975  -21.8995   12.1275 C.3       3 GLC5        0.0000 
     59 CA         11.3190  -23.3550   10.6600 C.3       6 GLP5        0.0000 
     60 CA         11.3570  -21.8650   14.2710 C.3       3 GLC5        0.0000 
     61 CA         12.2380  -23.2860   14.9470 C.3       6 GLP5        0.0000 
     62 O           6.3860  -13.8520    5.5625 O.2       1 ALC1        0.0000 
     63 O           6.6340  -14.8870    6.4350 O.2       7 ALL1        0.0000 
     64 O           6.1380  -12.8170    4.6900 O.2       4 ALP1        0.0000 
     65 CA          6.8270  -12.8400    7.1655 C.3       3 GLC5        0.0000 
     66 CA          7.0080  -14.9510    7.7310 C.3       9 GLL5        0.0000 
     67 CA         11.8555  -12.2075    4.1947 C.3       3 GLC5        0.0000 
     68 CA         13.1670  -11.7710    2.5810 C.3       6 GLP5        0.0000 
     69 CA         10.8290  -14.2447   11.8791 C.3       3 GLC5        0.0000 
     70 CA         11.6200  -14.5080    9.4450 C.3       9 GLL5        0.0000 
     71 CA         12.0690  -12.6122   10.9501 C.3       3 GLC5        0.0000 
     72 CA          9.0615  -19.2133   14.5628 C.3       3 GLC5        0.0000 
     73 CA          5.3353  -15.4485    8.0392 C.3       3 GLC5        0.0000 
     74 CA          7.1970  -16.2870    7.9560 C.3       9 GLL5        0.0000 
     75 CA          3.5680  -15.2780    8.2350 C.3       6 GLP5        0.0000 
@<TRIPOS>BOND
@<TRIPOS>SUBSTRUCTURE
     1 ALC1       16 GROUP        1 X    ALC  0     ROOT ALC X 1
     2 SEC2       36 GROUP        1 X    SEC  0     **** SEC X 2
     3 GLC5        1 GROUP        1 X    GLC  0     **** GLC X 6
     4 ALP1       18 GROUP        1 Y    ALP  0     ROOT ALP Y 8
     5 SEP2       38 GROUP        1 Y    SEP  0     **** SEP Y 9
     6 GLP5        3 GROUP        1 Y    GLP  0     **** GLP Y 13
     7 ALL1       17 GROUP        1 Z    ALL  0     ROOT ALL Z 15
     8 SEL2       37 GROUP        1 Z    SEL  0     **** SEL Z 16
     9 GLL5        2 GROUP        1 Z    GLL  0     **** GLL Z 20
@<TRIPOS>SET

