#    Name: 4i1c_1BE_1_ligand
#    Modification time : Tue Mar 25 02:11:31 2014

@<TRIPOS>MOLECULE
4i1c_1BE_1_ligand
   59    62     1     0     0
SMALL
NO_CHARGES


@<TRIPOS>ATOM
      1 CL1         9.8200  -11.2420    4.3270 Cl        1 1BE504      0.0000 
      2 C1         10.1090  -12.7120    5.2590 C.ar      1 1BE504      0.0000 
      3 C6          9.4430  -13.9080    4.9480 C.ar      1 1BE504      0.0000 
      4 C5          9.7060  -15.0280    5.7700 C.ar      1 1BE504      0.0000 
      5 C4         10.5780  -14.9050    6.8570 C.ar      1 1BE504      0.0000 
      6 C12        10.8830  -16.0650    7.7680 C.2       1 1BE504      0.0000 
      7 N11        11.3660  -15.8300    8.9300 N.pl3     1 1BE504      0.0000 
      8 C10        11.6200  -14.5080    9.4450 C.3       1 1BE504      0.0000 
      9 C28        12.7100  -14.5800   10.5360 C.3       1 1BE504      0.0000 
     10 C27        10.3130  -13.9170   10.0460 C.3       1 1BE504      0.0000 
     11 C9         12.1100  -13.5980    8.3250 C.3       1 1BE504      0.0000 
     12 C3         11.1970  -13.6880    7.1480 C.ar      1 1BE504      0.0000 
     13 C2         10.9790  -12.5760    6.3580 C.ar      1 1BE504      0.0000 
     14 N13        10.6010  -17.2930    7.3600 N.pl3     1 1BE504      0.0000 
     15 C14        10.5220  -18.5440    8.1600 C.3       1 1BE504      0.0000 
     16 C15         9.0690  -19.0050    8.3950 C.3       1 1BE504      0.0000 
     17 C7         11.1850  -19.6560    7.3920 C.2       1 1BE504      0.0000 
     18 O8         11.2640  -20.8200    7.8450 O.co2     1 1BE504      0.0000 
     19 O9         11.5920  -19.3290    6.2630 O.co2     1 1BE504      0.0000 
     20 C11         8.5330  -18.0350    9.4230 C.2       1 1BE504      0.0000 
     21 C13         7.6860  -16.8050    9.2610 C.2       1 1BE504      0.0000 
     22 C16         7.3120  -16.0770   10.3660 C.2       1 1BE504      0.0000 
     23 S17         8.0380  -16.8850   11.6980 S.3       1 1BE504      0.0000 
     24 C18         8.8150  -18.2080   10.8600 C.2       1 1BE504      0.0000 
     25 C19         9.6620  -19.2920   11.5260 C.3       1 1BE504      0.0000 
     26 C20         9.8760  -19.1650   13.0140 C.3       1 1BE504      0.0000 
     27 C21        10.4760  -20.4440   13.5950 C.3       1 1BE504      0.0000 
     28 C23         7.1970  -16.2870    7.9560 C.2       1 1BE504      0.0000 
     29 C24         7.0030  -17.0570    6.8560 C.2       1 1BE504      0.0000 
     30 N25         6.6360  -16.1810    5.9090 N.2       1 1BE504      0.0000 
     31 N26         6.6340  -14.8870    6.4350 N.pl3     1 1BE504      0.0000 
     32 C29         7.0080  -14.9510    7.7310 C.2       1 1BE504      0.0000 
     33 H           8.8062  -13.9704    4.1759 H         1 1BE504      0.0000 
     34 H           9.2566  -15.9228    5.5649 H         1 1BE504      0.0000 
     35 H          11.6176  -16.6161    9.6082 H         1 1BE504      0.0000 
     36 H          13.1189  -13.9008    8.0411 H         1 1BE504      0.0000 
     37 H          12.1454  -12.5722    8.6946 H         1 1BE504      0.0000 
     38 H          11.4233  -11.6883    6.5518 H         1 1BE504      0.0000 
     39 H          10.3898  -17.4711    6.3071 H         1 1BE504      0.0000 
     40 H          11.0042  -18.4376    9.1002 H         1 1BE504      0.0000 
     41 H           9.0754  -19.9929    8.7854 H         1 1BE504      0.0000 
     42 H           8.5250  -18.9204    7.4865 H         1 1BE504      0.0000 
     43 H           6.8369  -15.3630   10.5591 H         1 1BE504      0.0000 
     44 H          10.6552  -19.3217   11.0169 H         1 1BE504      0.0000 
     45 H           9.1955  -20.2829   11.3088 H         1 1BE504      0.0000 
     46 H           8.9222  -18.9652   13.5072 H         1 1BE504      0.0000 
     47 H          10.5518  -18.3318   13.2187 H         1 1BE504      0.0000 
     48 H           7.1046  -17.9865    6.7844 H         1 1BE504      0.0000 
     49 H           6.4020  -14.1030    5.9377 H         1 1BE504      0.0000 
     50 H           7.1158  -14.2520    8.3413 H         1 1BE504      0.0000 
     51 H          13.5697  -14.9450   10.1786 H         1 1BE504      0.0000 
     52 H          12.9113  -13.6788   10.9199 H         1 1BE504      0.0000 
     53 H          12.4357  -15.1681   11.2968 H         1 1BE504      0.0000 
     54 H          10.4563  -12.9992   10.4163 H         1 1BE504      0.0000 
     55 H           9.5878  -13.8468    9.3610 H         1 1BE504      0.0000 
     56 H           9.9585  -14.4816   10.7913 H         1 1BE504      0.0000 
     57 H          11.3625  -20.6580   13.1848 H         1 1BE504      0.0000 
     58 H          10.6195  -20.3719   14.5820 H         1 1BE504      0.0000 
     59 H           9.8836  -21.2350   13.4419 H         1 1BE504      0.0000 
@<TRIPOS>BOND
     1    2    1 1    
     2    3    2 ar   
     3   13    2 ar   
     4    4    3 ar   
     5   33    3 1    
     6    5    4 ar   
     7   34    4 1    
     8    6    5 1    
     9   12    5 ar   
    10    7    6 1    
    11   14    6 2    
    12    8    7 1    
    13   35    7 1    
    14    9    8 1    
    15   10    8 1    
    16   11    8 1    
    17   51    9 1    
    18   52    9 1    
    19   53    9 1    
    20   54   10 1    
    21   55   10 1    
    22   56   10 1    
    23   12   11 1    
    24   36   11 1    
    25   37   11 1    
    26   13   12 ar   
    27   38   13 1    
    28   15   14 1    
    29   39   14 1    
    30   16   15 1    
    31   17   15 1    
    32   40   15 1    
    33   20   16 1    
    34   41   16 1    
    35   42   16 1    
    36   18   17 ar   
    37   19   17 ar   
    38   21   20 1    
    39   24   20 2    
    40   22   21 2    
    41   28   21 1    
    42   23   22 1    
    43   43   22 1    
    44   24   23 1    
    45   25   24 1    
    46   26   25 1    
    47   44   25 1    
    48   45   25 1    
    49   27   26 1    
    50   46   26 1    
    51   47   26 1    
    52   57   27 1    
    53   58   27 1    
    54   59   27 1    
    55   29   28 1    
    56   32   28 2    
    57   30   29 2    
    58   48   29 1    
    59   31   30 1    
    60   32   31 1    
    61   49   31 1    
    62   50   32 1    
@<TRIPOS>SUBSTRUCTURE
     1 1BE504      1 GROUP   
@<TRIPOS>SET

