#    Name: 1iy8_NAD_7_INTS_M
#    Modification time : Tue Mar 25 08:19:01 2014

@<TRIPOS>MOLECULE
1iy8_NAD_7_INTS_M
  106     0     9     0     0
SMALL
NO_CHARGES


@<TRIPOS>ATOM
      1 N          35.7285   45.4875   53.3720 N.am      2 SEC2        0.0000 
      2 N          35.2360   45.1590   54.5800 N.am      8 SEL2        0.0000 
      3 N          36.2210   45.8160   52.1640 N.am      5 SEP2        0.0000 
      4 CA         39.9175   48.6015   56.6675 C.3       3 GLC5        0.0000 
      5 CA         39.2490   46.8970   56.3840 C.3       9 GLL5        0.0000 
      6 CA         40.5860   50.3060   56.9510 C.3       6 GLP5        0.0000 
      7 CA         38.5620   46.3300   53.7605 C.3       3 GLC5        0.0000 
      8 CA         39.7930   45.9660   55.2600 C.3       9 GLL5        0.0000 
      9 CA         37.3310   46.6940   52.2610 C.3       6 GLP5        0.0000 
     10 O          40.9590   47.6705   54.2255 O.2       1 ALC1        0.0000 
     11 O          40.1190   46.7230   54.0910 O.2       7 ALL1        0.0000 
     12 O          41.7990   48.6180   54.3600 O.2       4 ALP1        0.0000 
     13 O          42.7415   46.0675   54.5080 O.2       1 ALC1        0.0000 
     14 O          42.0670   44.9780   54.9950 O.2       7 ALL1        0.0000 
     15 O          43.4160   47.1570   54.0210 O.2       4 ALP1        0.0000 
     16 CA         41.0220   48.3785   56.9125 C.3       3 GLC5        0.0000 
     17 CA         41.4580   46.4510   56.8740 C.3       9 GLL5        0.0000 
     18 CA         46.2905   45.8290   58.6130 C.3       3 GLC5        0.0000 
     19 CA         45.2630   46.0070   59.9660 C.3       9 GLL5        0.0000 
     20 CA         47.3180   45.6510   57.2600 C.3       6 GLP5        0.0000 
     21 CA         47.2680   46.7160   59.7770 C.3       3 GLC5        0.0000 
     22 CA         49.2730   47.4250   59.5880 C.3       6 GLP5        0.0000 
     23 CA         45.2865   47.2520   61.4135 C.3       3 GLC5        0.0000 
     24 CA         45.3100   48.4970   62.8610 C.3       6 GLP5        0.0000 
     25 O          47.2570   45.4065   61.1785 O.2       1 ALC1        0.0000 
     26 O          45.8590   45.2780   60.8480 O.2       7 ALL1        0.0000 
     27 O          48.6550   45.5350   61.5090 O.2       4 ALP1        0.0000 
     28 N          46.8580   47.8765   60.3840 N.am      2 SEC2        0.0000 
     29 N          45.8210   47.2010   59.5070 N.am      8 SEL2        0.0000 
     30 N          47.8950   48.5520   61.2610 N.am      5 SEP2        0.0000 
     31 CA         45.0970   48.8425   56.7480 C.3       3 GLC5        0.0000 
     32 CA         45.2430   47.9710   58.6120 C.3       9 GLL5        0.0000 
     33 CA         44.9510   49.7140   54.8840 C.3       6 GLP5        0.0000 
     34 CA         46.2805   46.8110   57.9360 C.3       3 GLC5        0.0000 
     35 CA         47.2580   47.6980   59.1000 C.3       3 GLC5        0.0000 
     36 CA         45.4565   49.2085   59.9675 C.3       3 GLC5        0.0000 
     37 CA         45.6700   50.4460   61.3230 C.3       6 GLP5        0.0000 
     38 CA         43.5810   48.6160   59.6335 C.3       3 GLC5        0.0000 
     39 CA         41.9190   49.2610   60.6550 C.3       6 GLP5        0.0000 
     40 N          45.0045   47.5960   56.5395 N.am      2 SEC2        0.0000 
     41 N          44.0360   47.6850   57.9710 N.am      8 SEL2        0.0000 
     42 N          45.9730   47.5070   55.1080 N.am      5 SEP2        0.0000 
     43 N          33.6700   48.7180   55.8005 N.am      2 SEC2        0.0000 
     44 N          34.3190   47.6210   56.4650 N.am      8 SEL2        0.0000 
     45 N          33.0210   49.8150   55.1360 N.am      5 SEP2        0.0000 
     46 N          31.7095   45.3300   57.0960 N.am      2 SEC2        0.0000 
     47 N          32.6670   45.9950   57.6250 N.am      8 SEL2        0.0000 
     48 N          30.7520   44.6650   56.5670 N.am      5 SEP2        0.0000 
     49 CA         37.4785   46.6490   61.9260 C.3       3 GLC5        0.0000 
     50 CA         35.6060   47.3700   61.5180 C.3       9 GLL5        0.0000 
     51 CA         39.3510   45.9280   62.3340 C.3       6 GLP5        0.0000 
     52 N          35.9555   47.8665   64.0580 N.am      2 SEC2        0.0000 
     53 N          36.2260   47.9930   62.6700 N.am      8 SEL2        0.0000 
     54 N          35.6850   47.7400   65.4460 N.am      5 SEP2        0.0000 
     55 O          37.0075   48.9265   61.9895 O.2       1 ALC1        0.0000 
     56 O          36.2260   47.9930   62.6700 O.2       7 ALL1        0.0000 
     57 O          37.7890   49.8600   61.3090 O.2       4 ALP1        0.0000 
     58 CA         34.8505   46.5305   64.1185 C.3       3 GLC5        0.0000 
     59 CA         34.4440   46.4980   61.9840 C.3       9 GLL5        0.0000 
     60 CA         35.2570   46.5630   66.2530 C.3       6 GLP5        0.0000 
     61 N          35.2130   46.7780   64.3220 N.am      2 SEC2        0.0000 
     62 N          34.7410   45.8160   63.1980 N.am      8 SEL2        0.0000 
     63 O          33.8275   45.1525   63.9440 O.2       1 ALC1        0.0000 
     64 O          34.7410   45.8160   63.1980 O.2       7 ALL1        0.0000 
     65 O          32.9140   44.4890   64.6900 O.2       4 ALP1        0.0000 
     66 CA         32.2810   48.7405   60.6645 C.3       3 GLC5        0.0000 
     67 CA         33.2540   47.4450   62.0770 C.3       9 GLL5        0.0000 
     68 CA         31.3080   50.0360   59.2520 C.3       6 GLP5        0.0000 
     69 CA         33.4190   49.1025   62.6675 C.3       3 GLC5        0.0000 
     70 CA         33.5840   50.7600   63.2580 C.3       6 GLP5        0.0000 
     71 CA         31.4010   48.4360   62.6120 C.3       3 GLC5        0.0000 
     72 CA         29.5480   49.4270   63.1470 C.3       6 GLP5        0.0000 
     73 CA         31.0920   46.3625   64.9350 C.3       3 GLC5        0.0000 
     74 CA         31.3170   46.1510   62.8030 C.3       9 GLL5        0.0000 
     75 CA         30.8670   46.5740   67.0670 C.3       6 GLP5        0.0000 
     76 N          30.0270   44.9855   65.7810 N.am      2 SEC2        0.0000 
     77 N          30.1100   44.4640   64.6470 N.am      8 SEL2        0.0000 
     78 N          29.9440   45.5070   66.9150 N.am      5 SEP2        0.0000 
     79 N          31.5120   44.4765   64.6685 N.am      2 SEC2        0.0000 
     80 N          32.9140   44.4890   64.6900 N.am      5 SEP2        0.0000 
     81 O          27.1735   44.9625   62.7415 O.2       1 ALC1        0.0000 
     82 O          28.1430   44.3780   63.5920 O.2       7 ALL1        0.0000 
     83 O          26.2040   45.5470   61.8910 O.2       4 ALP1        0.0000 
     84 CA         28.3745   46.7485   59.0845 C.3       3 GLC5        0.0000 
     85 CA         30.2690   46.2010   60.1110 C.3       9 GLL5        0.0000 
     86 CA         26.4800   47.2960   58.0580 C.3       6 GLP5        0.0000 
     87 CA         43.3515   45.3485   56.1183 C.3       3 GLC5        0.0000 
     88 CA         45.4560   44.7890   55.8420 C.3       6 GLP5        0.0000 
     89 CA         44.6000   45.4475   57.3598 C.3       3 GLC5        0.0000 
     90 CA         43.5030   46.5730   58.3630 C.3       9 GLL5        0.0000 
     91 CA         42.8315   47.6835   59.7662 C.3       3 GLC5        0.0000 
     92 CA         43.9350   45.4330   61.5570 C.3       3 GLC5        0.0000 
     93 CA         43.9850   45.6390   59.3920 C.3       9 GLL5        0.0000 
     94 CA         43.2460   45.0430   63.4350 C.3       6 GLP5        0.0000 
     95 CA         33.1250   49.1968   59.6025 C.3       3 GLC5        0.0000 
     96 CA         34.8890   48.4700   60.7050 C.3       9 GLL5        0.0000 
     97 CA         34.4158   49.3400   62.1848 C.3       3 GLC5        0.0000 
     98 CA         35.4315   45.2220   61.2650 C.3       3 GLC5        0.0000 
     99 CA         35.8380   43.5100   60.7790 C.3       6 GLP5        0.0000 
    100 CA         30.1030   47.6148   62.9115 C.3       3 GLC5        0.0000 
    101 CA         29.2297   44.2950   59.8293 C.3       3 GLC5        0.0000 
    102 CA         29.4420   45.4810   61.1440 C.3       9 GLL5        0.0000 
    103 CA         28.6040   42.7490   59.0310 C.3       6 GLP5        0.0000 
    104 CA         31.0910   48.2700   59.7707 C.3       3 GLC5        0.0000 
    105 CA         30.1076   47.8755   61.8474 C.3       3 GLC5        0.0000 
    106 CA         31.4790   46.8070   60.4680 C.3       9 GLL5        0.0000 
@<TRIPOS>BOND
@<TRIPOS>SUBSTRUCTURE
     1 ALC1       10 GROUP        1 X    ALC  0     ROOT ALC X 1
     2 SEC2        1 GROUP        1 X    SEC  0     **** SEC X 2
     3 GLC5        4 GROUP        1 X    GLC  0     **** GLC X 6
     4 ALP1       12 GROUP        1 Y    ALP  0     ROOT ALP Y 8
     5 SEP2        3 GROUP        1 Y    SEP  0     **** SEP Y 9
     6 GLP5        6 GROUP        1 Y    GLP  0     **** GLP Y 13
     7 ALL1       11 GROUP        1 Z    ALL  0     ROOT ALL Z 15
     8 SEL2        2 GROUP        1 Z    SEL  0     **** SEL Z 16
     9 GLL5        5 GROUP        1 Z    GLL  0     **** GLL Z 20
@<TRIPOS>SET

