#    Name: 1iy8_NAD_7_ligand
#    Modification time : Tue Mar 25 08:19:01 2014

@<TRIPOS>MOLECULE
1iy8_NAD_7_ligand
   70    74     1     0     0
SMALL
NO_CHARGES


@<TRIPOS>ATOM
      1 PA         35.9970   45.0340   55.8610 P.3       1 NAD7268     0.0000 
      2 O1A        36.7470   43.7460   56.0610 O.co2     1 NAD7268     0.0000 
      3 O2A        35.2360   45.1590   54.5800 O.co2     1 NAD7268     0.0000 
      4 O5B        37.0280   46.2770   55.9140 O.3       1 NAD7268     0.0000 
      5 C5B        37.9570   46.3550   56.9710 C.3       1 NAD7268     0.0000 
      6 C4B        39.2490   46.8970   56.3840 C.3       1 NAD7268     0.0000 
      7 O4B        40.2280   46.9260   57.4350 O.3       1 NAD7268     0.0000 
      8 C3B        39.7930   45.9660   55.2600 C.3       1 NAD7268     0.0000 
      9 O3B        40.1190   46.7230   54.0910 O.3       1 NAD7268     0.0000 
     10 C2B        41.0360   45.3650   55.9150 C.3       1 NAD7268     0.0000 
     11 O2B        42.0670   44.9780   54.9950 O.3       1 NAD7268     0.0000 
     12 C1B        41.4580   46.4510   56.8740 C.3       1 NAD7268     0.0000 
     13 N9A        42.3150   45.9290   57.9390 N.pl3     1 NAD7268     0.0000 
     14 C8A        42.1410   44.8050   58.6800 C.2       1 NAD7268     0.0000 
     15 N7A        43.1610   44.6390   59.5900 N.2       1 NAD7268     0.0000 
     16 C5A        43.9850   45.6390   59.3920 C.ar      1 NAD7268     0.0000 
     17 C6A        45.2630   46.0070   59.9660 C.ar      1 NAD7268     0.0000 
     18 N6A        45.8590   45.2780   60.8480 N.pl3     1 NAD7268     0.0000 
     19 N1A        45.8210   47.2010   59.5070 N.ar      1 NAD7268     0.0000 
     20 C2A        45.2430   47.9710   58.6120 C.ar      1 NAD7268     0.0000 
     21 N3A        44.0360   47.6850   57.9710 N.ar      1 NAD7268     0.0000 
     22 C4A        43.5030   46.5730   58.3630 C.ar      1 NAD7268     0.0000 
     23 O3         34.9880   45.2050   57.1050 O.3       1 NAD7268     0.0000 
     24 PN         34.0670   46.4870   57.4570 P.3       1 NAD7268     0.0000 
     25 O1N        34.3190   47.6210   56.4650 O.co2     1 NAD7268     0.0000 
     26 O2N        32.6670   45.9950   57.6250 O.co2     1 NAD7268     0.0000 
     27 O5D        34.6550   46.9010   58.9290 O.3       1 NAD7268     0.0000 
     28 C5D        34.9950   48.2450   59.2010 C.3       1 NAD7268     0.0000 
     29 C4D        34.8890   48.4700   60.7050 C.3       1 NAD7268     0.0000 
     30 O4D        33.4940   48.4150   61.0590 O.3       1 NAD7268     0.0000 
     31 C3D        35.6060   47.3700   61.5180 C.3       1 NAD7268     0.0000 
     32 O3D        36.2260   47.9930   62.6700 O.3       1 NAD7268     0.0000 
     33 C2D        34.4440   46.4980   61.9840 C.3       1 NAD7268     0.0000 
     34 O2D        34.7410   45.8160   63.1980 O.3       1 NAD7268     0.0000 
     35 C1D        33.2540   47.4450   62.0770 C.3       1 NAD7268     0.0000 
     36 N1N        31.9720   46.7750   61.7680 N.pl3     1 NAD7268     0.0000 
     37 C2N        31.3170   46.1510   62.8030 C.ar      1 NAD7268     0.0000 
     38 C3N        29.9990   45.4540   62.5490 C.ar      1 NAD7268     0.0000 
     39 C7N        29.3850   44.7310   63.6610 C.2       1 NAD7268     0.0000 
     40 O7N        30.1100   44.4640   64.6470 O.2       1 NAD7268     0.0000 
     41 N7N        28.1430   44.3780   63.5920 N.am      1 NAD7268     0.0000 
     42 C4N        29.4420   45.4810   61.1440 C.ar      1 NAD7268     0.0000 
     43 C5N        30.2690   46.2010   60.1110 C.ar      1 NAD7268     0.0000 
     44 C6N        31.4790   46.8070   60.4680 C.ar      1 NAD7268     0.0000 
     45 H          38.1701   45.3820   57.4085 H         1 NAD7268     0.0000 
     46 H          37.6350   47.0349   57.7568 H         1 NAD7268     0.0000 
     47 H          39.0847   47.8608   55.9761 H         1 NAD7268     0.0000 
     48 H          39.0857   45.2023   55.1101 H         1 NAD7268     0.0000 
     49 H          40.6870   44.5289   56.5243 H         1 NAD7268     0.0000 
     50 H          41.9411   47.2227   56.3236 H         1 NAD7268     0.0000 
     51 H          41.3899   44.1847   58.5874 H         1 NAD7268     0.0000 
     52 H          45.3782   44.4479   61.1305 H         1 NAD7268     0.0000 
     53 H          46.7463   45.6108   61.1671 H         1 NAD7268     0.0000 
     54 H          45.7088   48.8976   58.3302 H         1 NAD7268     0.0000 
     55 H          34.3197   48.9501   58.7107 H         1 NAD7268     0.0000 
     56 H          36.0182   48.4820   58.9005 H         1 NAD7268     0.0000 
     57 H          35.3088   49.4142   60.9575 H         1 NAD7268     0.0000 
     58 H          36.2351   46.8430   60.9106 H         1 NAD7268     0.0000 
     59 H          34.2337   45.8047   61.1649 H         1 NAD7268     0.0000 
     60 H          33.2399   47.8922   63.0330 H         1 NAD7268     0.0000 
     61 H          31.6646   46.1239   63.7525 H         1 NAD7268     0.0000 
     62 H          27.6506   44.6598   62.7685 H         1 NAD7268     0.0000 
     63 H          27.7901   43.8559   64.3685 H         1 NAD7268     0.0000 
     64 H          28.6058   45.0611   60.9242 H         1 NAD7268     0.0000 
     65 H          29.9075   46.2207   59.1662 H         1 NAD7268     0.0000 
     66 H          32.0279   47.2993   59.7299 H         1 NAD7268     0.0000 
     67 H          40.3430   47.6372   54.4289 H         1 NAD7268     0.0000 
     68 H          42.5145   45.8331   54.7333 H         1 NAD7268     0.0000 
     69 H          36.4395   48.9249   62.3766 H         1 NAD7268     0.0000 
     70 H          33.9045   45.3178   63.4262 H         1 NAD7268     0.0000 
@<TRIPOS>BOND
     1    2    1 ar   
     2    3    1 ar   
     3    4    1 1    
     4   23    1 1    
     5    5    4 1    
     6    6    5 1    
     7   45    5 1    
     8   46    5 1    
     9    7    6 1    
    10    8    6 1    
    11   47    6 1    
    12   12    7 1    
    13    9    8 1    
    14   10    8 1    
    15   48    8 1    
    16   67    9 1    
    17   11   10 1    
    18   12   10 1    
    19   49   10 1    
    20   68   11 1    
    21   13   12 1    
    22   50   12 1    
    23   14   13 1    
    24   22   13 1    
    25   15   14 2    
    26   51   14 1    
    27   16   15 1    
    28   17   16 ar   
    29   22   16 ar   
    30   18   17 1    
    31   19   17 ar   
    32   52   18 1    
    33   53   18 1    
    34   20   19 ar   
    35   21   20 ar   
    36   54   20 1    
    37   22   21 ar   
    38   24   23 1    
    39   25   24 ar   
    40   26   24 ar   
    41   27   24 1    
    42   28   27 1    
    43   29   28 1    
    44   55   28 1    
    45   56   28 1    
    46   30   29 1    
    47   31   29 1    
    48   57   29 1    
    49   35   30 1    
    50   32   31 1    
    51   33   31 1    
    52   58   31 1    
    53   69   32 1    
    54   34   33 1    
    55   35   33 1    
    56   59   33 1    
    57   70   34 1    
    58   36   35 1    
    59   60   35 1    
    60   37   36 ar   
    61   44   36 ar   
    62   38   37 ar   
    63   61   37 1    
    64   39   38 1    
    65   42   38 ar   
    66   40   39 2    
    67   41   39 am   
    68   62   41 1    
    69   63   41 1    
    70   43   42 ar   
    71   64   42 1    
    72   44   43 ar   
    73   65   43 1    
    74   66   44 1    
@<TRIPOS>SUBSTRUCTURE
     1 NAD7268     1 GROUP   
@<TRIPOS>SET

