#    Name: 2ixc_TRH_4_INTS_M
#    Modification time : Tue Mar 25 18:57:25 2014

@<TRIPOS>MOLECULE
2ixc_TRH_4_INTS_M
   92     0    12     0     0
SMALL
NO_CHARGES


@<TRIPOS>ATOM
      1 NZ         23.0670   25.5840   24.1120 N.4       3 LYC4        0.0000 
      2 NZ         21.9030   26.1100   24.6970 N.4      11 LYL4        0.0000 
      3 NZ         24.6690   23.7990   23.5310 N.4       7 LYP4        0.0000 
      4 N          23.0670   25.5840   24.1120 N.am      2 SEC2        0.0000 
      5 N          21.9030   26.1100   24.6970 N.am     10 SEL2        0.0000 
      6 N          24.2310   25.0580   23.5270 N.am      6 SEP2        0.0000 
      7 N          21.4675   25.8040   23.3360 N.am      2 SEC2        0.0000 
      8 N          21.0320   25.4980   21.9750 N.am      6 SEP2        0.0000 
      9 NZ         23.6785   24.7585   27.1130 N.4       3 LYC4        0.0000 
     10 NZ         22.4720   25.4630   27.3460 N.4      11 LYL4        0.0000 
     11 NZ         26.1020   24.5650   27.1090 N.4       7 LYP4        0.0000 
     12 N          23.6785   24.7585   27.1130 N.am      2 SEC2        0.0000 
     13 N          22.4720   25.4630   27.3460 N.am     10 SEL2        0.0000 
     14 N          24.8850   24.0540   26.8800 N.am      6 SEP2        0.0000 
     15 O          18.6020   28.5800   26.0065 O.2       1 ALC1        0.0000 
     16 O          17.9120   27.8460   26.9720 O.2       9 ALL1        0.0000 
     17 O          19.2920   29.3140   25.0410 O.2       5 ALP1        0.0000 
     18 N          16.7080   30.3560   29.3395 N.am      2 SEC2        0.0000 
     19 N          17.2320   29.0330   29.2930 N.am     10 SEL2        0.0000 
     20 N          16.1840   31.6790   29.3860 N.am      6 SEP2        0.0000 
     21 CA         18.3840   30.4930   26.8290 C.3       4 GLC5        0.0000 
     22 CA         19.3300   29.9640   28.4930 C.3      12 GLL5        0.0000 
     23 CA         17.4380   31.0220   25.1650 C.3       8 GLP5        0.0000 
     24 N          17.7275   31.3510   29.4200 N.am      2 SEC2        0.0000 
     25 N          19.2710   31.0230   29.4540 N.am     10 SEL2        0.0000 
     26 N          19.8620   32.2160   29.7240 N.am      2 SEC2        0.0000 
     27 N          20.4530   33.4090   29.9940 N.am      6 SEP2        0.0000 
     28 CA         19.5845   29.8680   26.2880 C.3       4 GLC5        0.0000 
     29 CA         20.7620   29.5750   28.1650 C.3      12 GLL5        0.0000 
     30 CA         18.4070   30.1610   24.4110 C.3       8 GLP5        0.0000 
     31 CA         23.0640   29.8465   26.6090 C.3       4 GLC5        0.0000 
     32 CA         21.5750   30.7390   27.6220 C.3      12 GLL5        0.0000 
     33 CA         24.5530   28.9540   25.5960 C.3       8 GLP5        0.0000 
     34 CA         22.1315   32.4925   27.0745 C.3       4 GLC5        0.0000 
     35 CA         22.6880   34.2460   26.5270 C.3       8 GLP5        0.0000 
     36 CA         23.3855   30.4100   28.6270 C.3       4 GLC5        0.0000 
     37 CA         25.1960   30.0810   29.6320 C.3       8 GLP5        0.0000 
     38 NZ         22.4830   23.0945   23.7330 N.4       3 LYC4        0.0000 
     39 NZ         21.0770   23.3700   23.4770 N.4      11 LYL4        0.0000 
     40 N          22.4830   23.0945   23.7330 N.am      2 SEC2        0.0000 
     41 N          21.0770   23.3700   23.4770 N.am     10 SEL2        0.0000 
     42 N          23.8890   22.8190   23.9890 N.am      6 SEP2        0.0000 
     43 NZ         17.5740   25.1290   23.2455 N.4       3 LYC4        0.0000 
     44 NZ         18.6320   24.1460   24.5840 N.4      11 LYL4        0.0000 
     45 NZ         16.5160   26.1120   21.9070 N.4       7 LYP4        0.0000 
     46 CA         21.2810   18.0995   26.8105 C.3       4 GLC5        0.0000 
     47 CA         20.4280   19.7200   26.0480 C.3      12 GLL5        0.0000 
     48 CA         22.1340   16.4790   27.5730 C.3       8 GLP5        0.0000 
     49 CA         20.0875   17.5390   26.5930 C.3       4 GLC5        0.0000 
     50 CA         19.3680   19.1020   25.1470 C.3      12 GLL5        0.0000 
     51 CA         20.8070   15.9760   28.0390 C.3       8 GLP5        0.0000 
     52 O          18.6335   16.6770   24.9345 O.2       1 ALC1        0.0000 
     53 O          19.6130   17.6890   25.1450 O.2       9 ALL1        0.0000 
     54 O          17.6540   15.6650   24.7240 O.2       5 ALP1        0.0000 
     55 CA         16.0175   20.1640   26.2095 C.3       4 GLC5        0.0000 
     56 CA         18.0150   19.3910   25.8110 C.3      12 GLL5        0.0000 
     57 CA         14.0200   20.9370   26.6080 C.3       8 GLP5        0.0000 
     58 CA         19.2110   17.8990   28.1790 C.3       4 GLC5        0.0000 
     59 CA         18.4000   19.4510   27.2790 C.3      12 GLL5        0.0000 
     60 CA         20.0220   16.3470   29.0790 C.3       8 GLP5        0.0000 
     61 CA         19.5070   20.0745   28.7170 C.3       4 GLC5        0.0000 
     62 CA         20.6140   20.6980   30.1550 C.3       8 GLP5        0.0000 
     63 N          15.6460   17.6505   29.0995 N.am      2 SEC2        0.0000 
     64 N          16.7720   18.6050   29.3840 N.am     10 SEL2        0.0000 
     65 N          14.5200   16.6960   28.8150 N.am      6 SEP2        0.0000 
     66 N          16.5360   17.6230   28.3750 N.am      2 SEC2        0.0000 
     67 N          16.3000   16.6410   27.3660 N.am      6 SEP2        0.0000 
     68 O          15.4100   20.0980   30.8565 O.2       1 ALC1        0.0000 
     69 O          16.1740   20.7680   29.9160 O.2       9 ALL1        0.0000 
     70 O          14.6460   19.4280   31.7970 O.2       5 ALP1        0.0000 
     71 N          16.4070   23.6470   31.6170 N.am      2 SEC2        0.0000 
     72 N          15.5640   22.9030   30.4990 N.am     10 SEL2        0.0000 
     73 N          17.2500   24.3910   32.7350 N.am      6 SEP2        0.0000 
     74 N          14.9110   24.1035   30.4770 N.am      2 SEC2        0.0000 
     75 N          14.2580   25.3040   30.4550 N.am      6 SEP2        0.0000 
     76 CA         18.6140   21.5190   29.3010 C.3       4 GLC5        0.0000 
     77 CA         17.7180   21.7040   27.8630 C.3      12 GLL5        0.0000 
     78 CA         19.5100   21.3340   30.7390 C.3       8 GLP5        0.0000 
     79 CA         19.0320   27.6463   30.4313 C.3       4 GLC5        0.0000 
     80 CA         18.6920   27.5580   28.1240 C.3      12 GLL5        0.0000 
     81 CA         19.4100   27.1420   32.2670 C.3       8 GLP5        0.0000 
     82 CA         17.3630   30.3783   29.7930 C.3       4 GLC5        0.0000 
     83 CA         18.6160   28.7430   29.0670 C.3      12 GLL5        0.0000 
     84 CA         15.7530   31.4030   30.8060 C.3       8 GLP5        0.0000 
     85 CA         21.8020   20.5717   27.4750 C.3       4 GLC5        0.0000 
     86 CA         20.9400   21.0750   25.5460 C.3      12 GLL5        0.0000 
     87 CA         22.9200   20.7460   29.1530 C.3       8 GLP5        0.0000 
     88 CA         18.2860   23.0245   29.6970 C.3       4 GLC5        0.0000 
     89 CA         17.0130   22.5990   28.6630 C.3      12 GLL5        0.0000 
     90 CA         19.5070   22.7060   30.8640 C.3       8 GLP5        0.0000 
     91 CA         15.6433   22.3858   27.6182 C.3       4 GLC5        0.0000 
     92 CA         13.8950   22.2480   27.0400 C.3       8 GLP5        0.0000 
@<TRIPOS>BOND
@<TRIPOS>SUBSTRUCTURE
     1 ALC1       15 GROUP        1 X    ALC  0     ROOT ALC X 1
     2 SEC2        4 GROUP        1 X    SEC  0     **** SEC X 2
     3 LYC4        1 GROUP        1 X    LYC  0     **** LYC X 4
     4 GLC5       21 GROUP        1 X    GLC  0     **** GLC X 6
     5 ALP1       17 GROUP        1 Y    ALP  0     ROOT ALP Y 8
     6 SEP2        6 GROUP        1 Y    SEP  0     **** SEP Y 9
     7 LYP4        3 GROUP        1 Y    LYP  0     **** LYP Y 11
     8 GLP5       23 GROUP        1 Y    GLP  0     **** GLP Y 13
     9 ALL1       16 GROUP        1 Z    ALL  0     ROOT ALL Z 15
    10 SEL2        5 GROUP        1 Z    SEL  0     **** SEL Z 16
    11 LYL4        2 GROUP        1 Z    LYL  0     **** LYL Z 18
    12 GLL5       22 GROUP        1 Z    GLL  0     **** GLL Z 20
@<TRIPOS>SET

