#    Name: 2ixc_TRH_4_ligand
#    Modification time : Tue Mar 25 18:57:25 2014

@<TRIPOS>MOLECULE
2ixc_TRH_4_ligand
   59    61     1     0     0
SMALL
NO_CHARGES


@<TRIPOS>ATOM
      1 O4P        21.9030   26.1100   24.6970 O.co2     1 TRH1199     0.0000 
      2 P2         21.4410   25.5490   26.1350 P.3       1 TRH1199     0.0000 
      3 O3P        22.4720   25.4630   27.3460 O.co2     1 TRH1199     0.0000 
      4 O1         20.1030   26.3530   26.6080 O.3       1 TRH1199     0.0000 
      5 C1         20.1360   27.2900   27.6880 C.3       1 TRH1199     0.0000 
      6 C2         18.6920   27.5580   28.1240 C.3       1 TRH1199     0.0000 
      7 O2         17.9120   27.8460   26.9720 O.3       1 TRH1199     0.0000 
      8 C3         18.6160   28.7430   29.0670 C.3       1 TRH1199     0.0000 
      9 O3         17.2320   29.0330   29.2930 O.3       1 TRH1199     0.0000 
     10 C4         19.3300   29.9640   28.4930 C.3       1 TRH1199     0.0000 
     11 O4         19.2710   31.0230   29.4540 O.3       1 TRH1199     0.0000 
     12 C5         20.7620   29.5750   28.1650 C.3       1 TRH1199     0.0000 
     13 O5         20.7370   28.4990   27.2080 O.3       1 TRH1199     0.0000 
     14 C6         21.5750   30.7390   27.6220 C.3       1 TRH1199     0.0000 
     15 OPP        20.8370   24.0370   26.0170 O.3       1 TRH1199     0.0000 
     16 P          20.0680   23.4500   24.7210 P.3       1 TRH1199     0.0000 
     17 O1P        21.0770   23.3700   23.4770 O.co2     1 TRH1199     0.0000 
     18 O2P        18.6320   24.1460   24.5840 O.co2     1 TRH1199     0.0000 
     19 O5'        19.8260   21.9390   25.2310 O.3       1 TRH1199     0.0000 
     20 C5'        20.9400   21.0750   25.5460 C.3       1 TRH1199     0.0000 
     21 C4'        20.4280   19.7200   26.0480 C.3       1 TRH1199     0.0000 
     22 O4'        19.7660   19.8840   27.3130 O.3       1 TRH1199     0.0000 
     23 C3'        19.3680   19.1020   25.1470 C.3       1 TRH1199     0.0000 
     24 O3'        19.6130   17.6890   25.1450 O.3       1 TRH1199     0.0000 
     25 C2'        18.0150   19.3910   25.8110 C.3       1 TRH1199     0.0000 
     26 C1'        18.4000   19.4510   27.2790 C.3       1 TRH1199     0.0000 
     27 N11        17.6260   20.3840   28.1000 N.am      1 TRH1199     0.0000 
     28 C21        16.8590   19.9140   29.1300 C.2       1 TRH1199     0.0000 
     29 O21        16.7720   18.6050   29.3840 O.2       1 TRH1199     0.0000 
     30 N31        16.1740   20.7680   29.9160 N.am      1 TRH1199     0.0000 
     31 C41        16.2350   22.0910   29.7050 C.2       1 TRH1199     0.0000 
     32 O41        15.5640   22.9030   30.4990 O.2       1 TRH1199     0.0000 
     33 C51        17.0130   22.5990   28.6630 C.2       1 TRH1199     0.0000 
     34 C5A        17.1170   24.0870   28.3970 C.3       1 TRH1199     0.0000 
     35 C61        17.7180   21.7040   27.8630 C.2       1 TRH1199     0.0000 
     36 H          20.6680   26.8929   28.5228 H         1 TRH1199     0.0000 
     37 H          18.3253   26.6857   28.6342 H         1 TRH1199     0.0000 
     38 H          19.1008   28.4663   29.9943 H         1 TRH1199     0.0000 
     39 H          18.8286   30.2325   27.5769 H         1 TRH1199     0.0000 
     40 H          21.2335   29.2318   29.0878 H         1 TRH1199     0.0000 
     41 H          21.5718   21.5064   26.3290 H         1 TRH1199     0.0000 
     42 H          21.5660   20.8927   24.6666 H         1 TRH1199     0.0000 
     43 H          21.2422   19.0346   26.1388 H         1 TRH1199     0.0000 
     44 H          19.4082   19.5377   24.2061 H         1 TRH1199     0.0000 
     45 H          17.3582   18.5867   25.6391 H         1 TRH1199     0.0000 
     46 H          17.6567   20.3270   25.4897 H         1 TRH1199     0.0000 
     47 H          18.3411   18.4492   27.6873 H         1 TRH1199     0.0000 
     48 H          15.5883   20.3914   30.6996 H         1 TRH1199     0.0000 
     49 H          18.3036   22.0744   27.0957 H         1 TRH1199     0.0000 
     50 H          22.5135   30.4684   27.4073 H         1 TRH1199     0.0000 
     51 H          21.1777   31.1100   26.7827 H         1 TRH1199     0.0000 
     52 H          21.6298   31.4918   28.2780 H         1 TRH1199     0.0000 
     53 H          17.4947   24.5790   29.1814 H         1 TRH1199     0.0000 
     54 H          17.7084   24.2841   27.6150 H         1 TRH1199     0.0000 
     55 H          16.2245   24.4921   28.1989 H         1 TRH1199     0.0000 
     56 H          18.3523   28.6403   26.5534 H         1 TRH1199     0.0000 
     57 H          16.7520   28.6244   28.5168 H         1 TRH1199     0.0000 
     58 H          19.7230   30.6589   30.2683 H         1 TRH1199     0.0000 
     59 H          18.7721   17.2811   24.7894 H         1 TRH1199     0.0000 
@<TRIPOS>BOND
     1    2    1 ar   
     2    3    2 ar   
     3    4    2 1    
     4   15    2 1    
     5    5    4 1    
     6    6    5 1    
     7   13    5 1    
     8   36    5 1    
     9    7    6 1    
    10    8    6 1    
    11   37    6 1    
    12   56    7 1    
    13    9    8 1    
    14   10    8 1    
    15   38    8 1    
    16   57    9 1    
    17   11   10 1    
    18   12   10 1    
    19   39   10 1    
    20   58   11 1    
    21   13   12 1    
    22   14   12 1    
    23   40   12 1    
    24   50   14 1    
    25   51   14 1    
    26   52   14 1    
    27   16   15 1    
    28   17   16 ar   
    29   18   16 ar   
    30   19   16 1    
    31   20   19 1    
    32   21   20 1    
    33   41   20 1    
    34   42   20 1    
    35   22   21 1    
    36   23   21 1    
    37   43   21 1    
    38   26   22 1    
    39   24   23 1    
    40   25   23 1    
    41   44   23 1    
    42   59   24 1    
    43   26   25 1    
    44   45   25 1    
    45   46   25 1    
    46   27   26 1    
    47   47   26 1    
    48   28   27 1    
    49   35   27 1    
    50   29   28 2    
    51   30   28 1    
    52   31   30 1    
    53   48   30 1    
    54   32   31 2    
    55   33   31 1    
    56   34   33 1    
    57   35   33 2    
    58   53   34 1    
    59   54   34 1    
    60   55   34 1    
    61   49   35 1    
@<TRIPOS>SUBSTRUCTURE
     1 TRH1199     1 GROUP   
@<TRIPOS>SET

