#    Name: 2wv8_VGN_2_INTS_M
#    Modification time : Tue Mar 25 04:42:52 2014

@<TRIPOS>MOLECULE
2wv8_VGN_2_INTS_M
   80     0     9     0     0
SMALL
NO_CHARGES


@<TRIPOS>ATOM
      1 CA         47.7505   41.8265   -1.1140 C.3       3 GLC5        0.0000 
      2 CA         49.5040   41.3600   -1.2740 C.3       9 GLL5        0.0000 
      3 CA         45.9970   42.2930   -0.9540 C.3       6 GLP5        0.0000 
      4 NZ         48.6035   40.1715   -6.5915 N.4       2 LYC4        0.0000 
      5 NZ         47.7700   40.5140   -5.1420 N.4       8 LYL4        0.0000 
      6 NZ         48.2210   39.7290   -8.5620 N.4       5 LYP4        0.0000 
      7 N          47.4680   40.3345   -6.5080 N.am      1 SEC2        0.0000 
      8 N          47.7700   40.5140   -5.1420 N.am      7 SEL2        0.0000 
      9 N          47.1660   40.1550   -7.8740 N.am      4 SEP2        0.0000 
     10 N          48.6035   40.1715   -6.5915 N.am      1 SEC2        0.0000 
     11 N          49.4370   39.8290   -8.0410 N.am      4 SEP2        0.0000 
     12 CA         50.0465   45.8120    0.2445 C.3       3 GLC5        0.0000 
     13 CA         51.5080   45.1940   -0.9750 C.3       9 GLL5        0.0000 
     14 CA         48.5850   46.4300    1.4640 C.3       6 GLP5        0.0000 
     15 CA         53.4435   49.2285   -1.7500 C.3       3 GLC5        0.0000 
     16 CA         54.8410   48.4700   -2.5870 C.3       9 GLL5        0.0000 
     17 CA         52.0460   49.9870   -0.9130 C.3       6 GLP5        0.0000 
     18 CA         52.2095   46.6615   -4.1665 C.3       3 GLC5        0.0000 
     19 CA         53.5330   45.5330   -2.8710 C.3       9 GLL5        0.0000 
     20 CA         50.8860   47.7900   -5.4620 C.3       6 GLP5        0.0000 
     21 NZ         49.2895   40.8995   -7.0545 N.4       2 LYC4        0.0000 
     22 NZ         49.1420   41.9700   -6.0680 N.4       8 LYL4        0.0000 
     23 N          47.9940   42.6140   -6.6695 N.am      1 SEC2        0.0000 
     24 N          49.1420   41.9700   -6.0680 N.am      7 SEL2        0.0000 
     25 N          46.8460   43.2580   -7.2710 N.am      4 SEP2        0.0000 
     26 N          48.1540   41.0625   -6.9710 N.am      1 SEC2        0.0000 
     27 N          49.2895   40.8995   -7.0545 N.am      1 SEC2        0.0000 
     28 CA         50.8055   47.0320    0.2875 C.3       3 GLC5        0.0000 
     29 CA         52.4580   46.2300   -0.7850 C.3       9 GLL5        0.0000 
     30 CA         49.1530   47.8340    1.3600 C.3       6 GLP5        0.0000 
     31 CA         57.4515   50.5485    0.3005 C.3       3 GLC5        0.0000 
     32 CA         56.6910   49.3430   -1.2130 C.3       9 GLL5        0.0000 
     33 CA         58.2120   51.7540    1.8140 C.3       6 GLP5        0.0000 
     34 CA         47.0915   37.2965   -3.7635 C.3       3 GLC5        0.0000 
     35 CA         46.6690   37.7530   -1.7330 C.3       9 GLL5        0.0000 
     36 CA         47.5140   36.8400   -5.7940 C.3       6 GLP5        0.0000 
     37 CA         45.8665   36.3065   -2.2515 C.3       3 GLC5        0.0000 
     38 CA         45.0640   34.8600   -2.7700 C.3       6 GLP5        0.0000 
     39 CA         44.5045   37.5695   -2.2385 C.3       3 GLC5        0.0000 
     40 CA         42.3400   37.3860   -2.7440 C.3       6 GLP5        0.0000 
     41 CA         45.8355   36.9010   -0.1650 C.3       3 GLC5        0.0000 
     42 CA         45.0020   36.0490    1.4030 C.3       6 GLP5        0.0000 
     43 N          47.7640   38.8305    1.0475 N.am      1 SEC2        0.0000 
     44 N          48.0990   39.1450   -0.1390 N.am      7 SEL2        0.0000 
     45 N          47.4290   38.5160    2.2340 N.am      4 SEP2        0.0000 
     46 CA         52.2353   42.7818   -1.0597 C.3       3 GLC5        0.0000 
     47 CA         50.3840   42.5060   -1.1980 C.3       9 GLL5        0.0000 
     48 CA         53.9590   42.7100   -0.3490 C.3       6 GLP5        0.0000 
     49 CA         53.7387   44.3370   -1.3335 C.3       3 GLC5        0.0000 
     50 CA         52.5135   48.1497   -1.0940 C.3       3 GLC5        0.0000 
     51 CA         53.5040   46.3950   -1.7650 C.3       9 GLL5        0.0000 
     52 CA         56.1508   51.1142   -0.7998 C.3       3 GLC5        0.0000 
     53 CA         55.8900   49.3980   -2.3660 C.3       9 GLL5        0.0000 
     54 CA         56.0110   52.8580    0.1900 C.3       6 GLP5        0.0000 
     55 CA         52.9710   44.2110   -0.6145 C.3       3 GLC5        0.0000 
     56 CA         50.9192   45.4795   -3.7477 C.3       3 GLC5        0.0000 
     57 CA         52.6170   44.5160   -3.0790 C.3       9 GLL5        0.0000 
     58 CA         49.7360   46.5310   -4.9030 C.3       6 GLP5        0.0000 
     59 CA         53.3380   44.7327   -4.7620 C.3       3 GLC5        0.0000 
     60 CA         53.6010   44.4410   -6.5490 C.3       6 GLP5        0.0000 
     61 CA         53.0307   43.5690   -1.4708 C.3       3 GLC5        0.0000 
     62 CA         57.6215   46.6437   -0.1052 C.3       3 GLC5        0.0000 
     63 CA         55.4230   47.4130   -0.4430 C.3       9 GLL5        0.0000 
     64 CA         59.3010   45.4070    0.1330 C.3       6 GLP5        0.0000 
     65 CA         56.1935   48.5897    1.3643 C.3       3 GLC5        0.0000 
     66 CA         56.4610   48.3480   -0.2440 C.3       9 GLL5        0.0000 
     67 CA         56.4450   49.2990    3.0720 C.3       6 GLP5        0.0000 
     68 CA         50.8782   40.1320   -1.5935 C.3       3 GLC5        0.0000 
     69 CA         52.3270   38.8190   -1.3160 C.3       6 GLP5        0.0000 
     70 CA         47.5427   42.0978   -2.7280 C.3       3 GLC5        0.0000 
     71 CA         48.9150   40.9570   -2.5060 C.3       9 GLL5        0.0000 
     72 CA         46.0150   42.8560   -2.3730 C.3       6 GLP5        0.0000 
     73 CA         50.0493   44.7772   -3.9333 C.3       3 GLC5        0.0000 
     74 CA         50.0860   42.8460   -3.5840 C.3       9 GLL5        0.0000 
     75 CA         50.9125   41.1800   -4.6165 C.3       3 GLC5        0.0000 
     76 CA         52.1690   40.0760   -5.6110 C.3       6 GLP5        0.0000 
     77 CA         48.5094   43.5424   -2.5366 C.3       3 GLC5        0.0000 
     78 CA         46.7200   44.2350   -2.3960 C.3       6 GLP5        0.0000 
     79 CA         54.3236   49.1261   -0.3651 C.3       3 GLC5        0.0000 
     80 CA         52.9540   50.1030    0.2940 C.3       6 GLP5        0.0000 
@<TRIPOS>BOND
@<TRIPOS>SUBSTRUCTURE
     1 SEC2        7 GROUP        1 X    SEC  0     ROOT SEC X 2
     2 LYC4        4 GROUP        1 X    LYC  0     **** LYC X 4
     3 GLC5        1 GROUP        1 X    GLC  0     **** GLC X 6
     4 SEP2        9 GROUP        1 Y    SEP  0     ROOT SEP Y 9
     5 LYP4        6 GROUP        1 Y    LYP  0     **** LYP Y 11
     6 GLP5        3 GROUP        1 Y    GLP  0     **** GLP Y 13
     7 SEL2        8 GROUP        1 Z    SEL  0     ROOT SEL Z 16
     8 LYL4        5 GROUP        1 Z    LYL  0     **** LYL Z 18
     9 GLL5        2 GROUP        1 Z    GLL  0     **** GLL Z 20
@<TRIPOS>SET

