#    Name: 2wv8_VGN_2_ligand
#    Modification time : Tue Mar 25 04:42:52 2014

@<TRIPOS>MOLECULE
2wv8_VGN_2_ligand
   41    43     1     0     0
SMALL
NO_CHARGES


@<TRIPOS>ATOM
      1 CB         49.5040   41.3600   -1.2740 C.ar      1 VGN400      0.0000 
      2 CG         50.3840   42.5060   -1.1980 C.ar      1 VGN400      0.0000 
      3 C16        53.5040   46.3950   -1.7650 C.ar      1 VGN400      0.0000 
      4 O1         47.7700   40.5140   -5.1420 O.co2     1 VGN400      0.0000 
      5 C22        55.8900   49.3980   -2.3660 C.ar      1 VGN400      0.0000 
      6 C9         51.5080   45.1940   -0.9750 C.ar      1 VGN400      0.0000 
      7 C19        54.8410   48.4700   -2.5870 C.ar      1 VGN400      0.0000 
      8 C17        54.5980   47.4650   -1.6200 C.ar      1 VGN400      0.0000 
      9 C8         52.6170   44.5160   -3.0790 C.ar      1 VGN400      0.0000 
     10 C12        53.5330   45.5330   -2.8710 C.ar      1 VGN400      0.0000 
     11 C18        55.4230   47.4130   -0.4430 C.ar      1 VGN400      0.0000 
     12 C6         48.9150   40.9570   -2.5060 C.ar      1 VGN400      0.0000 
     13 C3         50.6390   43.2010   -2.3430 C.ar      1 VGN400      0.0000 
     14 C4         49.2260   41.7220   -3.6600 C.ar      1 VGN400      0.0000 
     15 O2         49.1420   41.9700   -6.0680 O.co2     1 VGN400      0.0000 
     16 C13        52.4580   46.2300   -0.7850 C.ar      1 VGN400      0.0000 
     17 C5         48.6340   41.3360   -4.9930 C.2       1 VGN400      0.0000 
     18 C2         50.0860   42.8460   -3.5840 C.ar      1 VGN400      0.0000 
     19 C21        56.6910   49.3430   -1.2130 C.ar      1 VGN400      0.0000 
     20 C23        51.5880   44.3400   -2.1060 C.ar      1 VGN400      0.0000 
     21 C20        56.4610   48.3480   -0.2440 C.ar      1 VGN400      0.0000 
     22 N10        48.0080   39.7740   -2.5810 N.am      1 VGN400      0.0000 
     23 C1         46.6690   37.7530   -1.7330 C.3       1 VGN400      0.0000 
     24 C14        47.6180   38.9180   -1.4670 C.2       1 VGN400      0.0000 
     25 O15        48.0990   39.1450   -0.1390 O.2       1 VGN400      0.0000 
     26 H          49.3068   40.8341   -0.4181 H         1 VGN400      0.0000 
     27 H          50.7804   42.7538   -0.3007 H         1 VGN400      0.0000 
     28 H          56.0652   50.1302   -3.0731 H         1 VGN400      0.0000 
     29 H          50.7588   45.0608   -0.2915 H         1 VGN400      0.0000 
     30 H          54.2746   48.5261   -3.4245 H         1 VGN400      0.0000 
     31 H          52.6583   43.9104   -3.8830 H         1 VGN400      0.0000 
     32 H          54.2996   45.6737   -3.5809 H         1 VGN400      0.0000 
     33 H          55.2455   46.6837    0.2526 H         1 VGN400      0.0000 
     34 H          52.4131   46.8414    0.0109 H         1 VGN400      0.0000 
     35 H          50.2959   43.3837   -4.4194 H         1 VGN400      0.0000 
     36 H          57.4410   50.0248   -1.0766 H         1 VGN400      0.0000 
     37 H          57.0377   48.3022    0.5936 H         1 VGN400      0.0000 
     38 H          47.6227   39.5485   -3.5273 H         1 VGN400      0.0000 
     39 H          47.0499   37.1074   -2.3950 H         1 VGN400      0.0000 
     40 H          46.4723   37.2365   -0.8996 H         1 VGN400      0.0000 
     41 H          45.7919   38.0645   -2.0986 H         1 VGN400      0.0000 
@<TRIPOS>BOND
     1    2    1 ar   
     2   12    1 ar   
     3   26    1 1    
     4   13    2 ar   
     5   27    2 1    
     6    8    3 1    
     7   10    3 ar   
     8   16    3 ar   
     9   17    4 ar   
    10    7    5 ar   
    11   19    5 ar   
    12   28    5 1    
    13   16    6 ar   
    14   20    6 ar   
    15   29    6 1    
    16    8    7 ar   
    17   30    7 1    
    18   11    8 ar   
    19   10    9 ar   
    20   20    9 ar   
    21   31    9 1    
    22   32   10 1    
    23   21   11 ar   
    24   33   11 1    
    25   14   12 ar   
    26   22   12 1    
    27   18   13 ar   
    28   20   13 1    
    29   17   14 1    
    30   18   14 ar   
    31   17   15 ar   
    32   34   16 1    
    33   35   18 1    
    34   21   19 ar   
    35   36   19 1    
    36   37   21 1    
    37   24   22 am   
    38   38   22 1    
    39   24   23 1    
    40   39   23 1    
    41   40   23 1    
    42   41   23 1    
    43   25   24 2    
@<TRIPOS>SUBSTRUCTURE
     1 VGN400      1 GROUP   
@<TRIPOS>SET

