#    Name: 1i5c_ADP_2_INTS_M
#    Modification time : Tue Mar 25 06:41:36 2014

@<TRIPOS>MOLECULE
1i5c_ADP_2_INTS_M
   46     0     9     0     0
SMALL
NO_CHARGES


@<TRIPOS>ATOM
      1 N          29.7510  -28.9585   29.6970 N.am      2 SEC2        0.0000 
      2 N          28.7620  -29.7000   29.0730 N.am      8 SEL2        0.0000 
      3 N          30.7400  -28.2170   30.3210 N.am      5 SEP2        0.0000 
      4 N          25.1110  -29.5650   28.0220 N.am      2 SEC2        0.0000 
      5 N          25.5630  -28.5710   27.3290 N.am      8 SEL2        0.0000 
      6 N          24.6590  -30.5590   28.7150 N.am      5 SEP2        0.0000 
      7 N          25.3125  -27.9870   28.6250 N.am      2 SEC2        0.0000 
      8 N          25.0620  -27.4030   29.9210 N.am      5 SEP2        0.0000 
      9 N          24.7615  -28.8310   24.7905 N.am      2 SEC2        0.0000 
     10 N          26.0790  -28.4490   24.8390 N.am      8 SEL2        0.0000 
     11 N          23.4440  -29.2130   24.7420 N.am      5 SEP2        0.0000 
     12 CA         28.6325  -27.4170   23.8970 C.3       3 GLC5        0.0000 
     13 CA         28.3740  -26.5630   25.8840 C.3       9 GLL5        0.0000 
     14 CA         28.8910  -28.2710   21.9100 C.3       6 GLP5        0.0000 
     15 CA         30.0640  -26.5655   29.0300 C.3       3 GLC5        0.0000 
     16 CA         30.0870  -25.9540   27.1800 C.3       9 GLL5        0.0000 
     17 CA         30.0410  -27.1770   30.8800 C.3       6 GLP5        0.0000 
     18 CA         30.7490  -25.5155   29.6645 C.3       3 GLC5        0.0000 
     19 CA         30.5500  -24.7530   28.0080 C.3       9 GLL5        0.0000 
     20 CA         30.9480  -26.2780   31.3210 C.3       6 GLP5        0.0000 
     21 N          33.2985  -23.7560   27.1735 N.am      2 SEC2        0.0000 
     22 N          31.7400  -24.2480   27.4250 N.am      8 SEL2        0.0000 
     23 N          34.8570  -23.2640   26.9220 N.am      5 SEP2        0.0000 
     24 CA         26.6260  -25.0675   31.5020 C.3       3 GLC5        0.0000 
     25 CA         27.3890  -23.2060   30.8540 C.3       9 GLL5        0.0000 
     26 CA         25.8630  -26.9290   32.1500 C.3       6 GLP5        0.0000 
     27 CA         28.5805  -22.3160   33.7735 C.3       3 GLC5        0.0000 
     28 CA         27.3780  -22.4520   32.0630 C.3       9 GLL5        0.0000 
     29 CA         29.7830  -22.1800   35.4840 C.3       6 GLP5        0.0000 
     30 CA         26.1770  -20.7775   32.3280 C.3       3 GLC5        0.0000 
     31 CA         24.9760  -19.1030   32.5930 C.3       6 GLP5        0.0000 
     32 O          25.8790  -21.8110   34.2475 O.2       1 ALC1        0.0000 
     33 O          26.3420  -22.5570   32.9380 O.2       7 ALL1        0.0000 
     34 O          25.4160  -21.0650   35.5570 O.2       4 ALP1        0.0000 
     35 CA         30.1165  -23.2175   31.7725 C.3       3 GLC5        0.0000 
     36 CA         29.4620  -21.4620   31.5180 C.3       9 GLL5        0.0000 
     37 CA         30.7710  -24.9730   32.0270 C.3       6 GLP5        0.0000 
     38 CA         29.6225  -21.8210   33.5010 C.3       3 GLC5        0.0000 
     39 CA         31.1035  -20.4145   32.4875 C.3       3 GLC5        0.0000 
     40 CA         32.7450  -19.3670   33.4570 C.3       6 GLP5        0.0000 
     41 CA         29.4205  -20.0490   30.1700 C.3       3 GLC5        0.0000 
     42 CA         29.3790  -18.6360   28.8220 C.3       6 GLP5        0.0000 
     43 CA         29.3624  -23.9410   31.3959 C.3       3 GLC5        0.0000 
     44 CA         27.5589  -21.3530   29.6864 C.3       3 GLC5        0.0000 
     45 CA         28.5240  -22.9890   30.0710 C.3       9 GLL5        0.0000 
     46 CA         27.1640  -19.7970   28.6080 C.3       6 GLP5        0.0000 
@<TRIPOS>BOND
@<TRIPOS>SUBSTRUCTURE
     1 ALC1       32 GROUP        1 X    ALC  0     ROOT ALC X 1
     2 SEC2        1 GROUP        1 X    SEC  0     **** SEC X 2
     3 GLC5       12 GROUP        1 X    GLC  0     **** GLC X 6
     4 ALP1       34 GROUP        1 Y    ALP  0     ROOT ALP Y 8
     5 SEP2        3 GROUP        1 Y    SEP  0     **** SEP Y 9
     6 GLP5       14 GROUP        1 Y    GLP  0     **** GLP Y 13
     7 ALL1       33 GROUP        1 Z    ALL  0     ROOT ALL Z 15
     8 SEL2        2 GROUP        1 Z    SEL  0     **** SEL Z 16
     9 GLL5       13 GROUP        1 Z    GLL  0     **** GLL Z 20
@<TRIPOS>SET

