#    Name: 1i5c_ADP_2_ligand
#    Modification time : Tue Mar 25 06:41:36 2014

@<TRIPOS>MOLECULE
1i5c_ADP_2_ligand
   39    41     1     0     0
SMALL
NO_CHARGES


@<TRIPOS>ATOM
      1 PB         28.9770  -29.9360   27.4970 P.3       1 ADP999      0.0000 
      2 O1B        28.8310  -31.4250   27.3800 O.co2     1 ADP999      0.0000 
      3 O2B        30.2340  -29.4720   26.8890 O.co2     1 ADP999      0.0000 
      4 O3B        28.7620  -29.7000   29.0730 O.co2     1 ADP999      0.0000 
      5 PA         26.6100  -28.3610   26.2450 P.3       1 ADP999      0.0000 
      6 O1A        25.5630  -28.5710   27.3290 O.co2     1 ADP999      0.0000 
      7 O2A        26.0790  -28.4490   24.8390 O.co2     1 ADP999      0.0000 
      8 O3A        27.8230  -29.3890   26.4270 O.3       1 ADP999      0.0000 
      9 O5'        27.3110  -27.0120   26.7540 O.3       1 ADP999      0.0000 
     10 C5'        28.3740  -26.5630   25.8840 C.3       1 ADP999      0.0000 
     11 C4'        29.3160  -25.3320   26.0580 C.3       1 ADP999      0.0000 
     12 O4'        28.6410  -24.2710   26.6770 O.3       1 ADP999      0.0000 
     13 C3'        30.0870  -25.9540   27.1800 C.3       1 ADP999      0.0000 
     14 O3'        31.1020  -26.7860   26.6530 O.3       1 ADP999      0.0000 
     15 C2'        30.5500  -24.7530   28.0080 C.3       1 ADP999      0.0000 
     16 O2'        31.7400  -24.2480   27.4250 O.3       1 ADP999      0.0000 
     17 C1'        29.3660  -23.8790   27.8430 C.3       1 ADP999      0.0000 
     18 N9         28.3680  -23.7830   28.9820 N.pl3     1 ADP999      0.0000 
     19 C8         27.1890  -24.4050   29.1860 C.2       1 ADP999      0.0000 
     20 N7         26.5560  -24.0930   30.3100 N.2       1 ADP999      0.0000 
     21 C5         27.3890  -23.2060   30.8540 C.ar      1 ADP999      0.0000 
     22 C6         27.3780  -22.4520   32.0630 C.ar      1 ADP999      0.0000 
     23 N6         26.3420  -22.5570   32.9380 N.pl3     1 ADP999      0.0000 
     24 N1         28.4120  -21.5860   32.3730 N.ar      1 ADP999      0.0000 
     25 C2         29.4620  -21.4620   31.5180 C.ar      1 ADP999      0.0000 
     26 N3         29.5590  -22.1460   30.3460 N.ar      1 ADP999      0.0000 
     27 C4         28.5240  -22.9890   30.0710 C.ar      1 ADP999      0.0000 
     28 H          27.9482  -26.4579   24.7903 H         1 ADP999      0.0000 
     29 H          29.1022  -27.4666   25.6796 H         1 ADP999      0.0000 
     30 H          29.8725  -25.1942   25.2710 H         1 ADP999      0.0000 
     31 H          29.3663  -26.5016   27.7835 H         1 ADP999      0.0000 
     32 H          30.6333  -25.0734   28.9996 H         1 ADP999      0.0000 
     33 H          29.7315  -22.8326   27.6560 H         1 ADP999      0.0000 
     34 H          26.8162  -25.0717   28.5123 H         1 ADP999      0.0000 
     35 H          26.4174  -22.0166   33.7761 H         1 ADP999      0.0000 
     36 H          25.5964  -23.1653   32.6661 H         1 ADP999      0.0000 
     37 H          30.2477  -20.7964   31.7785 H         1 ADP999      0.0000 
     38 H          31.0043  -27.6537   27.1404 H         1 ADP999      0.0000 
     39 H          32.0312  -24.9536   26.7790 H         1 ADP999      0.0000 
@<TRIPOS>BOND
     1    2    1 ar   
     2    3    1 ar   
     3    4    1 ar   
     4    8    1 1    
     5    6    5 ar   
     6    7    5 ar   
     7    8    5 1    
     8    9    5 1    
     9   10    9 1    
    10   11   10 1    
    11   28   10 1    
    12   29   10 1    
    13   12   11 1    
    14   13   11 1    
    15   30   11 1    
    16   17   12 1    
    17   14   13 1    
    18   15   13 1    
    19   31   13 1    
    20   38   14 1    
    21   16   15 1    
    22   17   15 1    
    23   32   15 1    
    24   39   16 1    
    25   18   17 1    
    26   33   17 1    
    27   19   18 1    
    28   27   18 1    
    29   20   19 2    
    30   34   19 1    
    31   21   20 1    
    32   22   21 ar   
    33   27   21 ar   
    34   23   22 1    
    35   24   22 ar   
    36   35   23 1    
    37   36   23 1    
    38   25   24 ar   
    39   26   25 ar   
    40   37   25 1    
    41   27   26 ar   
@<TRIPOS>SUBSTRUCTURE
     1 ADP999      1 GROUP   
@<TRIPOS>SET

