#    Name: 1z3c_SA8_1_INTS_M
#    Modification time : Tue Mar 25 11:26:33 2014

@<TRIPOS>MOLECULE
1z3c_SA8_1_INTS_M
   73     0    12     0     0
SMALL
NO_CHARGES


@<TRIPOS>ATOM
      1 O          14.0505   28.9025   91.1195 O.2       1 ALC1        0.0000 
      2 O          13.3520   30.1670   91.2330 O.2       9 ALL1        0.0000 
      3 O          14.7490   27.6380   91.0060 O.2       5 ALP1        0.0000 
      4 O          13.1225   30.5905   89.9870 O.2       1 ALC1        0.0000 
      5 O          12.8930   31.0140   88.7410 O.2       5 ALP1        0.0000 
      6 O          12.3615   29.1205   90.8675 O.2       1 ALC1        0.0000 
      7 O          11.3710   28.0740   90.5020 O.2       5 ALP1        0.0000 
      8 NZ         11.6990   33.7415   92.2200 N.4       3 LYC4        0.0000 
      9 NZ         12.1940   32.5580   91.6530 N.4      11 LYL4        0.0000 
     10 NZ         11.2040   34.9250   92.7870 N.4       7 LYP4        0.0000 
     11 N          11.6990   33.7415   92.2200 N.am      2 SEC2        0.0000 
     12 N          12.1940   32.5580   91.6530 N.am     10 SEL2        0.0000 
     13 N          11.2040   34.9250   92.7870 N.am      6 SEP2        0.0000 
     14 NZ         12.4350   34.0740   92.9940 N.4       3 LYC4        0.0000 
     15 NZ         13.6660   33.2230   93.2010 N.4      11 LYL4        0.0000 
     16 CA         15.8035   32.8380   88.3185 C.3       4 GLC5        0.0000 
     17 CA         17.4310   32.3390   89.2770 C.3      12 GLL5        0.0000 
     18 CA         14.1760   33.3370   87.3600 C.3       8 GLP5        0.0000 
     19 CA         18.4100   29.5390   87.0965 C.3       4 GLC5        0.0000 
     20 CA         17.8040   29.6040   89.0590 C.3      12 GLL5        0.0000 
     21 CA         19.0160   29.4740   85.1340 C.3       8 GLP5        0.0000 
     22 CA         16.4005   26.8885   89.7345 C.3       4 GLC5        0.0000 
     23 CA         18.0040   28.2250   89.6270 C.3      12 GLL5        0.0000 
     24 CA         14.7970   25.5520   89.8420 C.3       8 GLP5        0.0000 
     25 O          18.3255   26.8260   92.0150 O.2       1 ALC1        0.0000 
     26 O          19.1480   27.9260   91.6880 O.2       9 ALL1        0.0000 
     27 O          17.5030   25.7260   92.3420 O.2       5 ALP1        0.0000 
     28 O          19.8455   25.0365   91.3775 O.2       1 ALC1        0.0000 
     29 O          20.4780   25.7300   90.5810 O.2       9 ALL1        0.0000 
     30 O          19.2130   24.3430   92.1740 O.2       5 ALP1        0.0000 
     31 O          18.9905   25.7280   91.4615 O.2       1 ALC1        0.0000 
     32 CA         16.7150   25.8760   89.3975 C.3       4 GLC5        0.0000 
     33 CA         18.6330   26.2000   88.9530 C.3      12 GLL5        0.0000 
     34 CA         16.9880   27.2195   87.8265 C.3       4 GLC5        0.0000 
     35 CA         15.3430   28.2390   86.7000 C.3       8 GLP5        0.0000 
     36 CA         18.7960   24.9880   84.7350 C.3       4 GLC5        0.0000 
     37 CA         18.8730   23.6050   86.5050 C.3      12 GLL5        0.0000 
     38 CA         18.7190   26.3710   82.9650 C.3       8 GLP5        0.0000 
     39 CA         19.5305   21.7995   87.6805 C.3       4 GLC5        0.0000 
     40 CA         18.4490   22.2990   86.1130 C.3      12 GLL5        0.0000 
     41 CA         20.6120   21.3000   89.2480 C.3       8 GLP5        0.0000 
     42 CA         18.5285   20.1735   86.7685 C.3       4 GLC5        0.0000 
     43 CA         18.6080   18.0480   87.4240 C.3       8 GLP5        0.0000 
     44 CA         17.2600   21.6255   84.3885 C.3       4 GLC5        0.0000 
     45 CA         16.0710   20.9520   82.6640 C.3       8 GLP5        0.0000 
     46 O          18.6490   20.3010   84.8800 O.2       1 ALC1        0.0000 
     47 O          18.8890   21.7110   84.9710 O.2       9 ALL1        0.0000 
     48 O          18.4090   18.8910   84.7890 O.2       5 ALP1        0.0000 
     49 N          16.9310   20.1395   86.9505 N.am      2 SEC2        0.0000 
     50 N          17.5590   21.6140   86.9220 N.am     10 SEL2        0.0000 
     51 N          16.3030   18.6650   86.9790 N.am      6 SEP2        0.0000 
     52 N          15.9465   21.1355   87.2190 N.am      2 SEC2        0.0000 
     53 N          14.3340   20.6570   87.5160 N.am      6 SEP2        0.0000 
     54 CA         15.9645   23.8880   88.9515 C.3       4 GLC5        0.0000 
     55 CA         17.1320   22.2240   88.0610 C.3      12 GLL5        0.0000 
     56 CA         17.0435   22.2820   90.1635 C.3       4 GLC5        0.0000 
     57 CA         16.9550   22.3400   92.2660 C.3       8 GLP5        0.0000 
     58 CA         18.8720   21.7620   88.6545 C.3       4 GLC5        0.0000 
     59 CA         17.8700   20.1360   87.7425 C.3       4 GLC5        0.0000 
     60 CA         15.5505   20.7545   87.7485 C.3       4 GLC5        0.0000 
     61 CA         13.9690   19.2850   87.4360 C.3       8 GLP5        0.0000 
     62 N          18.1915   22.5955   89.7500 N.am      2 SEC2        0.0000 
     63 N          17.4750   23.4500   88.5240 N.am     10 SEL2        0.0000 
     64 N          18.9080   21.7410   90.9760 N.am      6 SEP2        0.0000 
     65 CA         16.5765   24.8220   88.7640 C.3       4 GLC5        0.0000 
     66 CA         18.3560   24.0920   87.6860 C.3      12 GLL5        0.0000 
     67 CA         16.1485   29.5497   92.8595 C.3       4 GLC5        0.0000 
     68 CA         15.9290   30.5380   90.8050 C.3      12 GLL5        0.0000 
     69 CA         16.6270   28.1140   94.3900 C.3       8 GLP5        0.0000 
     70 CA         16.6235   28.5768   88.0215 C.3       4 GLC5        0.0000 
     71 CA         20.2645   24.5580   89.2742 C.3       4 GLC5        0.0000 
     72 CA         21.2770   22.6790   89.2050 C.3       8 GLP5        0.0000 
     73 CA         19.9458   23.2638   88.1502 C.3       4 GLC5        0.0000 
@<TRIPOS>BOND
@<TRIPOS>SUBSTRUCTURE
     1 ALC1        1 GROUP        1 X    ALC  0     ROOT ALC X 1
     2 SEC2       11 GROUP        1 X    SEC  0     **** SEC X 2
     3 LYC4        8 GROUP        1 X    LYC  0     **** LYC X 4
     4 GLC5       16 GROUP        1 X    GLC  0     **** GLC X 6
     5 ALP1        3 GROUP        1 Y    ALP  0     ROOT ALP Y 8
     6 SEP2       13 GROUP        1 Y    SEP  0     **** SEP Y 9
     7 LYP4       10 GROUP        1 Y    LYP  0     **** LYP Y 11
     8 GLP5       18 GROUP        1 Y    GLP  0     **** GLP Y 13
     9 ALL1        2 GROUP        1 Z    ALL  0     ROOT ALL Z 15
    10 SEL2       12 GROUP        1 Z    SEL  0     **** SEL Z 16
    11 LYL4        9 GROUP        1 Z    LYL  0     **** LYL Z 18
    12 GLL5       17 GROUP        1 Z    GLL  0     **** GLL Z 20
@<TRIPOS>SET

