#    Name: 1z3c_SA8_1_ligand
#    Modification time : Tue Mar 25 11:26:33 2014

@<TRIPOS>MOLECULE
1z3c_SA8_1_ligand
   50    52     1     0     0
SMALL
NO_CHARGES


@<TRIPOS>ATOM
      1 N          13.3520   30.1670   91.2330 N.4       1 SA8299      0.0000 
      2 CA         13.9720   31.0910   92.2340 C.3       1 SA8299      0.0000 
      3 C          13.1940   32.3900   92.3540 C.2       1 SA8299      0.0000 
      4 O          12.1940   32.5580   91.6530 O.co2     1 SA8299      0.0000 
      5 OXT        13.6660   33.2230   93.2010 O.co2     1 SA8299      0.0000 
      6 CB         15.4110   31.4330   91.8530 C.3       1 SA8299      0.0000 
      7 CG         15.9290   30.5380   90.8050 C.3       1 SA8299      0.0000 
      8 ND         17.6110   30.8330   90.2350 N.3       1 SA8299      0.0000 
      9 CE         17.4310   32.3390   89.2770 C.3       1 SA8299      0.0000 
     10 C5'        17.8040   29.6040   89.0590 C.3       1 SA8299      0.0000 
     11 C4'        18.0040   28.2250   89.6270 C.3       1 SA8299      0.0000 
     12 O4'        18.0560   27.3540   88.4990 O.3       1 SA8299      0.0000 
     13 C3'        19.3930   28.0230   90.2500 C.3       1 SA8299      0.0000 
     14 O3'        19.1480   27.9260   91.6880 O.3       1 SA8299      0.0000 
     15 C2'        19.8710   26.6740   89.7340 C.3       1 SA8299      0.0000 
     16 O2'        20.4780   25.7300   90.5810 O.3       1 SA8299      0.0000 
     17 C1'        18.6330   26.2000   88.9530 C.3       1 SA8299      0.0000 
     18 N9         18.9140   25.3370   87.8390 N.pl3     1 SA8299      0.0000 
     19 C8         19.7200   25.5360   86.7550 C.2       1 SA8299      0.0000 
     20 N7         19.7330   24.5300   85.9260 N.2       1 SA8299      0.0000 
     21 C5         18.8730   23.6050   86.5050 C.ar      1 SA8299      0.0000 
     22 C6         18.4490   22.2990   86.1130 C.ar      1 SA8299      0.0000 
     23 N6         18.8890   21.7110   84.9710 N.pl3     1 SA8299      0.0000 
     24 N1         17.5590   21.6140   86.9220 N.ar      1 SA8299      0.0000 
     25 C2         17.1320   22.2240   88.0610 C.ar      1 SA8299      0.0000 
     26 N3         17.4750   23.4500   88.5240 N.ar      1 SA8299      0.0000 
     27 C4         18.3560   24.0920   87.6860 C.ar      1 SA8299      0.0000 
     28 H          13.9907   30.6164   93.2086 H         1 SA8299      0.0000 
     29 H          16.0324   31.3655   92.7578 H         1 SA8299      0.0000 
     30 H          15.4384   32.4787   91.5136 H         1 SA8299      0.0000 
     31 H          15.3662   30.5803   89.8590 H         1 SA8299      0.0000 
     32 H          15.9812   29.4789   91.1035 H         1 SA8299      0.0000 
     33 H          18.6559   29.9342   88.4635 H         1 SA8299      0.0000 
     34 H          16.9032   29.6737   88.4481 H         1 SA8299      0.0000 
     35 H          17.2649   27.9568   90.2926 H         1 SA8299      0.0000 
     36 H          20.0167   28.7803   89.9816 H         1 SA8299      0.0000 
     37 H          20.5876   26.9640   88.8746 H         1 SA8299      0.0000 
     38 H          17.9826   25.7089   89.6737 H         1 SA8299      0.0000 
     39 H          20.2397   26.3872   86.6373 H         1 SA8299      0.0000 
     40 H          18.5460   20.7892   84.7903 H         1 SA8299      0.0000 
     41 H          19.5172   22.2517   84.4115 H         1 SA8299      0.0000 
     42 H          16.4281   21.6548   88.6741 H         1 SA8299      0.0000 
     43 H          13.3161   30.5769   90.3216 H         1 SA8299      0.0000 
     44 H          13.8639   29.3120   91.1499 H         1 SA8299      0.0000 
     45 H          12.4145   29.9243   91.4824 H         1 SA8299      0.0000 
     46 H          18.2679   32.5641   88.7781 H         1 SA8299      0.0000 
     47 H          16.6980   32.2637   88.6009 H         1 SA8299      0.0000 
     48 H          17.2153   33.1246   89.8570 H         1 SA8299      0.0000 
     49 H          18.5802   27.1104   91.7992 H         1 SA8299      0.0000 
     50 H          19.8887   25.6897   91.3879 H         1 SA8299      0.0000 
@<TRIPOS>BOND
     1    2    1 1    
     2   43    1 1    
     3   44    1 1    
     4   45    1 1    
     5    3    2 1    
     6    6    2 1    
     7   28    2 1    
     8    4    3 ar   
     9    5    3 ar   
    10    7    6 1    
    11   29    6 1    
    12   30    6 1    
    13    8    7 1    
    14   31    7 1    
    15   32    7 1    
    16    9    8 1    
    17   10    8 1    
    18   46    9 1    
    19   47    9 1    
    20   48    9 1    
    21   11   10 1    
    22   33   10 1    
    23   34   10 1    
    24   12   11 1    
    25   13   11 1    
    26   35   11 1    
    27   17   12 1    
    28   14   13 1    
    29   15   13 1    
    30   36   13 1    
    31   49   14 1    
    32   16   15 1    
    33   17   15 1    
    34   37   15 1    
    35   50   16 1    
    36   18   17 1    
    37   38   17 1    
    38   19   18 1    
    39   27   18 1    
    40   20   19 2    
    41   39   19 1    
    42   21   20 1    
    43   22   21 ar   
    44   27   21 ar   
    45   23   22 1    
    46   24   22 ar   
    47   40   23 1    
    48   41   23 1    
    49   25   24 ar   
    50   26   25 ar   
    51   42   25 1    
    52   27   26 ar   
@<TRIPOS>SUBSTRUCTURE
     1 SA8299      1 GROUP   
@<TRIPOS>SET

