#    Name: 3NXQ_2_CAVITY_N1_6.mol2
#    Modification time : Tue Mar 11 18:43:21 2014

@<TRIPOS>MOLECULE
3NXQ_2_CAVITY_N1_6.mol2
  151     0     7     0     0
SMALL
NO_CHARGES


@<TRIPOS>ATOM
      1 CA          3.5470   10.2635   33.2172 C.3       6 GLY6        0.0000 
      2 CZ          4.9189   10.1139   32.6292 C.ar      5 PHE5        0.0000 
      3 CA          4.7385    8.6254   32.5871 C.3       6 GLY6        0.0000 
      4 N          -1.7320   14.0861   27.5808 N.2       2 ALA2        0.0000 
      5 O          -0.3602   13.9365   26.9928 O.2       2 ALA2        0.0000 
      6 CA          1.0116   13.7869   26.4049 C.3       6 GLY6        0.0000 
      7 CA          2.3835   13.6373   25.8169 C.3       6 GLY6        0.0000 
      8 CA          3.7553   13.4877   25.2290 C.3       6 GLY6        0.0000 
      9 OG         -3.2843   12.7472   28.1265 O.2       1 SER1        0.0000 
     10 OG         -1.9124   12.5976   27.5386 O.2       1 SER1        0.0000 
     11 N          -0.5406   12.4480   26.9507 N.2       2 ALA2        0.0000 
     12 DU          0.8313   12.2984   26.3627 H         7 CUB7        0.0000 
     13 DU          2.2031   12.1488   25.7748 H         7 CUB7        0.0000 
     14 DU          3.5749   11.9992   25.1868 H         7 CUB7        0.0000 
     15 CZ          4.9468   11.8496   24.5989 C.ar      5 PHE5        0.0000 
     16 OG         -3.4647   11.2587   28.0844 O.2       1 SER1        0.0000 
     17 O          -2.0928   11.1091   27.4964 O.2       2 ALA2        0.0000 
     18 DU         -0.7210   10.9595   26.9085 H         7 CUB7        0.0000 
     19 DU          0.6509   10.8099   26.3205 H         7 CUB7        0.0000 
     20 DU          2.0227   10.6603   25.7326 H         7 CUB7        0.0000 
     21 OG          3.3945   10.5107   25.1447 O.2       1 SER1        0.0000 
     22 CA          4.7664   10.3611   24.5567 C.3       6 GLY6        0.0000 
     23 O          -0.9014    9.4709   26.8663 O.2       2 ALA2        0.0000 
     24 DU          0.4705    9.3213   26.2784 H         7 CUB7        0.0000 
     25 OG          1.8423    9.1717   25.6904 O.2       1 SER1        0.0000 
     26 OG          3.2141    9.0221   25.1025 O.2       1 SER1        0.0000 
     27 CA          4.5860    8.8725   24.5146 C.3       6 GLY6        0.0000 
     28 O          -1.0818    7.9824   26.8241 O.2       2 ALA2        0.0000 
     29 NZ         -0.7590   15.5343   25.6557 N.2       4 LYS4        0.0000 
     30 N           0.6128   15.3847   25.0677 N.2       2 ALA2        0.0000 
     31 N           3.3565   15.0855   23.8919 N.2       2 ALA2        0.0000 
     32 CA         -2.3113   14.1954   26.2014 C.3       6 GLY6        0.0000 
     33 OD1        -0.9394   14.0458   25.6135 O.3       3 ASP3        0.0000 
     34 DU          0.4324   13.8962   25.0256 H         7 CUB7        0.0000 
     35 N           1.8043   13.7466   24.4376 N.2       2 ALA2        0.0000 
     36 CZ          3.1761   13.5970   23.8497 C.ar      5 PHE5        0.0000 
     37 N          -2.4917   12.7068   26.1593 N.2       2 ALA2        0.0000 
     38 DU         -1.1198   12.5572   25.5713 H         7 CUB7        0.0000 
     39 DU          0.2520   12.4076   24.9834 H         7 CUB7        0.0000 
     40 DU          1.6239   12.2581   24.3954 H         7 CUB7        0.0000 
     41 CZ          2.9957   12.1085   23.8075 C.ar      5 PHE5        0.0000 
     42 NZ         -2.6721   11.2183   26.1171 N.2       4 LYS4        0.0000 
     43 O          -1.3002   11.0687   25.5292 O.2       2 ALA2        0.0000 
     44 OG          0.0716   10.9191   24.9412 O.2       1 SER1        0.0000 
     45 OG          1.4435   10.7695   24.3533 O.2       1 SER1        0.0000 
     46 CA          2.8153   10.6199   23.7653 C.3       6 GLY6        0.0000 
     47 O          -2.8525    9.7298   26.0749 O.2       2 ALA2        0.0000 
     48 O          -1.4806    9.5802   25.4870 O.2       2 ALA2        0.0000 
     49 O          -0.1088    9.4306   24.8990 O.2       2 ALA2        0.0000 
     50 CZ          2.5690   11.9705   30.5007 C.ar      5 PHE5        0.0000 
     51 CZ          3.9408   11.8209   29.9128 C.ar      5 PHE5        0.0000 
     52 CZ          5.3126   11.6713   29.3248 C.ar      5 PHE5        0.0000 
     53 NZ          6.6845   11.5218   28.7369 N.2       4 LYS4        0.0000 
     54 O          -0.3551   10.7812   31.6344 O.2       2 ALA2        0.0000 
     55 N           1.0167   10.6316   31.0465 N.2       2 ALA2        0.0000 
     56 DU          2.3886   10.4820   30.4585 H         7 CUB7        0.0000 
     57 DU          3.7604   10.3324   29.8706 H         7 CUB7        0.0000 
     58 CZ          5.1322   10.1828   29.2826 C.ar      5 PHE5        0.0000 
     59 NZ          6.5041   10.0332   28.6947 N.2       4 LYS4        0.0000 
     60 NZ          7.8759    9.8836   28.1068 N.2       4 LYS4        0.0000 
     61 NZ          9.2478    9.7340   27.5188 N.2       4 LYS4        0.0000 
     62 OG         -0.5355    9.2927   31.5922 O.2       1 SER1        0.0000 
     63 DU          0.8363    9.1431   31.0043 H         7 CUB7        0.0000 
     64 DU          4.9518    8.6943   29.2405 H         7 CUB7        0.0000 
     65 DU          6.3237    8.5447   28.6525 H         7 CUB7        0.0000 
     66 DU          7.6955    8.3951   28.0646 H         7 CUB7        0.0000 
     67 OG         -0.7159    7.8042   31.5501 O.2       1 SER1        0.0000 
     68 OG          0.6559    7.6546   30.9621 O.2       1 SER1        0.0000 
     69 DU          6.1433    7.0562   28.6104 H         7 CUB7        0.0000 
     70 NZ          6.4660   14.6081   27.4419 N.2       4 LYS4        0.0000 
     71 NZ          7.8379   14.4585   26.8540 N.2       4 LYS4        0.0000 
     72 N           2.1701   13.5683   29.1635 N.2       2 ALA2        0.0000 
     73 CA          3.5420   13.4187   28.5756 C.3       6 GLY6        0.0000 
     74 CZ          4.9138   13.2691   27.9877 C.ar      5 PHE5        0.0000 
     75 NZ          6.2856   13.1195   27.3997 N.2       4 LYS4        0.0000 
     76 N           1.9897   12.0798   29.1214 N.2       2 ALA2        0.0000 
     77 DU          3.3616   11.9302   28.5334 H         7 CUB7        0.0000 
     78 CZ          4.7334   11.7806   27.9455 C.ar      5 PHE5        0.0000 
     79 NZ          6.1052   11.6310   27.3575 N.2       4 LYS4        0.0000 
     80 NZ          7.4771   11.4814   26.7696 N.2       4 LYS4        0.0000 
     81 N           8.8489   11.3318   26.1817 N.2       2 ALA2        0.0000 
     82 OG         -0.9344   10.8905   30.2551 O.2       1 SER1        0.0000 
     83 N           0.4375   10.7409   29.6671 N.2       2 ALA2        0.0000 
     84 DU          1.8093   10.5913   29.0792 H         7 CUB7        0.0000 
     85 DU          4.5530   10.2921   27.9033 H         7 CUB7        0.0000 
     86 DU          5.9248   10.1425   27.3154 H         7 CUB7        0.0000 
     87 DU          7.2967    9.9929   26.7274 H         7 CUB7        0.0000 
     88 N           8.6685    9.8433   26.1395 N.2       2 ALA2        0.0000 
     89 O          -1.1147    9.4020   30.2129 O.2       2 ALA2        0.0000 
     90 DU          0.2571    9.2524   29.6250 H         7 CUB7        0.0000 
     91 DU          7.1163    8.5044   26.6853 H         7 CUB7        0.0000 
     92 DU          8.4881    8.3548   26.0973 H         7 CUB7        0.0000 
     93 O          -1.2951    7.9135   30.1707 O.2       2 ALA2        0.0000 
     94 DU          0.0767    7.7639   29.5828 H         7 CUB7        0.0000 
     95 DU          6.9359    7.0159   26.6431 H         7 CUB7        0.0000 
     96 O           1.5960   10.5223   32.4258 O.2       2 ALA2        0.0000 
     97 CZ          2.9678   10.3728   31.8379 C.ar      5 PHE5        0.0000 
     98 CZ          5.7115   10.0736   30.6620 C.ar      5 PHE5        0.0000 
     99 CA          7.0833    9.9240   30.0740 C.3       6 GLY6        0.0000 
    100 N           0.0437    9.1834   32.9716 N.2       2 ALA2        0.0000 
    101 CA          1.4156    9.0338   32.3836 C.3       6 GLY6        0.0000 
    102 CA          2.7874    8.8842   31.7957 C.3       6 GLY6        0.0000 
    103 DU          4.1592    8.7346   31.2077 H         7 CUB7        0.0000 
    104 OG          5.5311    8.5850   30.6198 O.2       1 SER1        0.0000 
    105 CZ          1.2352    7.5453   32.3415 C.ar      5 PHE5        0.0000 
    106 CA          2.6070    7.3957   31.7535 C.3       6 GLY6        0.0000 
    107 DU          3.9788    7.2461   31.1656 H         7 CUB7        0.0000 
    108 CZ          1.0548    6.0568   32.2993 C.ar      5 PHE5        0.0000 
    109 CA          3.9357   14.9762   25.2712 C.3       6 GLY6        0.0000 
    110 CZ          5.3076   14.8266   24.6832 C.ar      5 PHE5        0.0000 
    111 OG          5.8868   14.7173   26.0626 O.2       1 SER1        0.0000 
    112 CA          7.2586   14.5677   25.4746 C.3       6 GLY6        0.0000 
    113 CA          1.5909   13.6776   27.7842 C.3       6 GLY6        0.0000 
    114 CA          4.3346   13.3784   26.6083 C.3       6 GLY6        0.0000 
    115 CZ          5.7064   13.2288   26.0204 C.ar      5 PHE5        0.0000 
    116 CZ          7.0782   13.0792   25.4325 C.ar      5 PHE5        0.0000 
    117 N           0.0386   12.3387   28.3300 N.2       2 ALA2        0.0000 
    118 N           1.4105   12.1891   27.7420 N.2       2 ALA2        0.0000 
    119 CA          2.7823   12.0395   27.1541 C.3       6 GLY6        0.0000 
    120 DU          4.1542   11.8899   26.5662 H         7 CUB7        0.0000 
    121 CZ          5.5260   11.7403   25.9782 C.ar      5 PHE5        0.0000 
    122 OG         -1.5136   10.9998   28.8758 O.2       1 SER1        0.0000 
    123 N          -0.1417   10.8502   28.2878 N.2       2 ALA2        0.0000 
    124 DU          1.2301   10.7006   27.6999 H         7 CUB7        0.0000 
    125 DU          5.3456   10.2518   25.9360 H         7 CUB7        0.0000 
    126 N           6.7175   10.1022   25.3481 N.2       2 ALA2        0.0000 
    127 O          -1.6940    9.5113   28.8336 O.2       2 ALA2        0.0000 
    128 O          -0.3221    9.3617   28.2456 O.2       2 ALA2        0.0000 
    129 DU          2.4215    9.0625   27.0698 H         7 CUB7        0.0000 
    130 DU          3.7934    8.9129   26.4818 H         7 CUB7        0.0000 
    131 N           5.1652    8.7633   25.8939 N.2       2 ALA2        0.0000 
    132 N           6.5371    8.6137   25.3059 N.2       2 ALA2        0.0000 
    133 N           7.9089    8.4641   24.7180 N.2       2 ALA2        0.0000 
    134 O          -0.5025    7.8731   28.2035 O.2       2 ALA2        0.0000 
    135 DU          0.8693    7.7235   27.6155 H         7 CUB7        0.0000 
    136 DU          2.2411    7.5740   27.0276 H         7 CUB7        0.0000 
    137 N           4.9848    7.2748   25.8517 N.2       2 ALA2        0.0000 
    138 N           6.3567    7.1252   25.2638 N.2       2 ALA2        0.0000 
    139 N           7.7285    6.9756   24.6758 N.2       2 ALA2        0.0000 
    140 OD1        -1.3383   15.6436   24.2763 O.3       3 ASP3        0.0000 
    141 N           0.0336   15.4940   23.6884 N.2       2 ALA2        0.0000 
    142 OD1        -1.5187   14.1550   24.2342 O.3       3 ASP3        0.0000 
    143 OG         -0.1468   14.0054   23.6462 O.2       1 SER1        0.0000 
    144 OG          1.2250   13.8558   23.0583 O.2       1 SER1        0.0000 
    145 NZ         -1.6991   12.6665   24.1920 N.2       4 LYS4        0.0000 
    146 OG         -0.3272   12.5169   23.6041 O.2       1 SER1        0.0000 
    147 OG          1.0446   12.3673   23.0161 O.2       1 SER1        0.0000 
    148 CA          2.4165   12.2177   22.4282 C.3       6 GLY6        0.0000 
    149 NZ         -1.8795   11.1780   24.1498 N.2       4 LYS4        0.0000 
    150 O          -0.5076   11.0284   23.5619 O.2       2 ALA2        0.0000 
    151 OG          0.8642   10.8788   22.9740 O.2       1 SER1        0.0000 
@<TRIPOS>BOND
@<TRIPOS>SUBSTRUCTURE
     1 SER1        9 GROUP   
     2 ALA2        4 GROUP   
     3 ASP3       33 GROUP   
     4 LYS4       29 GROUP   
     5 PHE5        2 GROUP   
     6 GLY6        1 GROUP   
     7 CUB7       12 GROUP   
@<TRIPOS>SET

