#    Name: 3nxq_RX4_2_INTS_M
#    Modification time : Tue Mar 25 02:54:51 2014

@<TRIPOS>MOLECULE
3nxq_RX4_2_INTS_M
   70     0    15     0     0
SMALL
NO_CHARGES


@<TRIPOS>ATOM
      1 N           0.1545   15.2835   27.9260 N.am      2 SEC2        0.0000 
      2 N           0.0970   14.2670   26.9400 N.am     12 SEL2        0.0000 
      3 N           0.2120   16.3000   28.9120 N.am      7 SEP2        0.0000 
      4 CA         -3.8200   13.8685   27.2895 C.3       5 GLC5        0.0000 
      5 CA         -2.5850   12.5330   27.2210 C.3      15 GLL5        0.0000 
      6 CA         -5.0550   15.2040   27.3580 C.3      10 GLP5        0.0000 
      7 NZ         -3.6730    9.1825   27.5630 N.4       3 LYC4        0.0000 
      8 NZ         -3.4620   10.3300   26.8880 N.4      13 LYL4        0.0000 
      9 NZ         -4.2890    7.5540   29.4030 N.4       8 LYP4        0.0000 
     10 N          -3.6730    9.1825   27.5630 N.am      2 SEC2        0.0000 
     11 N          -3.4620   10.3300   26.8880 N.am     12 SEL2        0.0000 
     12 N          -3.8840    8.0350   28.2380 N.am      7 SEP2        0.0000 
     13 NZ         -3.7580    9.6155   28.5690 N.4       3 LYC4        0.0000 
     14 NZ         -3.6320   11.1960   28.9000 N.4      13 LYL4        0.0000 
     15 N          -3.9570    9.7725   29.6865 N.am      2 SEC2        0.0000 
     16 N          -3.6320   11.1960   28.9000 N.am     12 SEL2        0.0000 
     17 N          -4.2820    8.3490   30.4730 N.am      7 SEP2        0.0000 
     18 N          -3.7580    9.6155   28.5690 N.am      2 SEC2        0.0000 
     19 O          -0.2800   12.9390   29.2550 O.2       1 ALC1        0.0000 
     20 O          -0.4860   11.9060   28.1580 O.2      11 ALL1        0.0000 
     21 O          -0.0740   13.9720   30.3520 O.2       6 ALP1        0.0000 
     22 CA          2.8060    9.5430   23.3240 C.3       5 GLC5        0.0000 
     23 CA          2.8080   10.7640   24.7830 C.3      15 GLL5        0.0000 
     24 CA          2.8040    8.3220   21.8650 C.3      10 GLP5        0.0000 
     25 CA          2.4525   15.3340   22.3560 C.3       5 GLC5        0.0000 
     26 CA          1.1210   13.7790   23.1670 C.3      15 GLL5        0.0000 
     27 CA          3.7840   16.8890   21.5450 C.3      10 GLP5        0.0000 
     28 CA          0.9985   15.7495   25.7050 C.3       5 GLC5        0.0000 
     29 CA          0.1840   14.5070   24.1610 C.3      15 GLL5        0.0000 
     30 CA          1.8130   16.9920   27.2490 C.3      10 GLP5        0.0000 
     31 Zn         -2.7615   15.7570   23.9400 Zn        4 ZIC7        0.0000 
     32 Zn         -1.8290   16.2560   24.4510 Zn       14 ZIL7        0.0000 
     33 Zn         -3.6940   15.2580   23.4290 Zn        9 ZIP7        0.0000 
     34 N          -1.5615   17.2495   25.4045 N.am      2 SEC2        0.0000 
     35 N          -1.8290   16.2560   24.4510 N.am     12 SEL2        0.0000 
     36 N          -1.2940   18.2430   26.3580 N.am      7 SEP2        0.0000 
     37 Zn         -2.7835   14.9645   22.9275 Zn        4 ZIC7        0.0000 
     38 Zn         -1.8730   14.6710   22.4260 Zn       14 ZIL7        0.0000 
     39 N          -1.5620   13.8825   21.4950 N.am      2 SEC2        0.0000 
     40 N          -1.8730   14.6710   22.4260 N.am     12 SEL2        0.0000 
     41 N          -1.2510   13.0940   20.5640 N.am      7 SEP2        0.0000 
     42 CA          1.8470   16.8370   21.9960 C.3       5 GLC5        0.0000 
     43 CA         -0.0900   16.7850   22.4470 C.3      15 GLL5        0.0000 
     44 CA          0.7875   19.7280   22.7860 C.3       5 GLC5        0.0000 
     45 CA         -0.2940   18.8800   21.1270 C.3      15 GLL5        0.0000 
     46 CA          1.8690   20.5760   24.4450 C.3      10 GLP5        0.0000 
     47 CA         -0.7015   20.8580   21.8750 C.3       5 GLC5        0.0000 
     48 CA         -1.1090   22.8360   22.6230 C.3      10 GLP5        0.0000 
     49 N           1.7640   16.4240   20.1370 N.am      2 SEC2        0.0000 
     50 N           0.4570   16.0600   19.9000 N.am     12 SEL2        0.0000 
     51 N           3.0710   16.7880   20.3740 N.am      7 SEP2        0.0000 
     52 CA         -2.2975   15.0485   18.6385 C.3       5 GLC5        0.0000 
     53 CA         -1.2940   16.3080   17.7310 C.3      15 GLL5        0.0000 
     54 CA         -3.3010   13.7890   19.5460 C.3      10 GLP5        0.0000 
     55 CA         -2.8220   16.3280   14.9765 C.3       5 GLC5        0.0000 
     56 CA         -2.5330   16.5890   16.8770 C.3      15 GLL5        0.0000 
     57 CA         -3.1110   16.0670   13.0760 C.3      10 GLP5        0.0000 
     58 CA         -3.3585   15.1580   17.6695 C.3       5 GLC5        0.0000 
     59 CA         -4.1840   13.7270   18.4620 C.3      10 GLP5        0.0000 
     60 N           0.1275   18.1025   15.7120 N.am      2 SEC2        0.0000 
     61 N           0.3830   17.9540   17.2900 N.am     12 SEL2        0.0000 
     62 N          -0.1280   18.2510   14.1340 N.am      7 SEP2        0.0000 
     63 CA          2.6360   10.9240   22.5900 C.3       5 GLC5        0.0000 
     64 CA          2.1060   12.9340   23.9510 C.3      15 GLL5        0.0000 
     65 CA          3.2600    9.6040   21.1790 C.3      10 GLP5        0.0000 
     66 CA          3.2917   14.5463   26.1752 C.3       5 GLC5        0.0000 
     67 CA          3.1980   13.5290   24.5950 C.3      15 GLL5        0.0000 
     68 CA          2.9400   15.9610   27.3900 C.3      10 GLP5        0.0000 
     69 CA         -2.3535   17.6437   22.5360 C.3       5 GLC5        0.0000 
     70 CA         -4.2470   18.1660   23.1960 C.3      10 GLP5        0.0000 
@<TRIPOS>BOND
@<TRIPOS>SUBSTRUCTURE
     1 ALC1       19 GROUP        1 X    ALC  0     ROOT ALC X 1
     2 SEC2        1 GROUP        1 X    SEC  0     **** SEC X 2
     3 LYC4        7 GROUP        1 X    LYC  0     **** LYC X 4
     4 ZIC7       31 GROUP        1 X    ZIC  0     **** ZIC X 5
     5 GLC5        4 GROUP        1 X    GLC  0     **** GLC X 6
     6 ALP1       21 GROUP        1 Y    ALP  0     ROOT ALP Y 8
     7 SEP2        3 GROUP        1 Y    SEP  0     **** SEP Y 9
     8 LYP4        9 GROUP        1 Y    LYP  0     **** LYP Y 11
     9 ZIP7       33 GROUP        1 Y    ZIP  0     **** ZIP Y 12
    10 GLP5        6 GROUP        1 Y    GLP  0     **** GLP Y 13
    11 ALL1       20 GROUP        1 Z    ALL  0     ROOT ALL Z 15
    12 SEL2        2 GROUP        1 Z    SEL  0     **** SEL Z 16
    13 LYL4        8 GROUP        1 Z    LYL  0     **** LYL Z 18
    14 ZIL7       32 GROUP        1 Z    ZIL  0     **** ZIL Z 19
    15 GLL5        5 GROUP        1 Z    GLL  0     **** GLL Z 20
@<TRIPOS>SET

