#    Name: 3nxq_RX4_2_ligand
#    Modification time : Tue Mar 25 02:54:51 2014

@<TRIPOS>MOLECULE
3nxq_RX4_2_ligand
   63    63     1     0     0
SMALL
NO_CHARGES


@<TRIPOS>ATOM
      1 CAX         0.2580   10.8080   28.3180 C.2       1 RX4700      0.0000 
      2 CAA         0.8290   10.6260   29.6950 C.3       1 RX4700      0.0000 
      3 OAE         0.4710    9.9940   27.4230 O.2       1 RX4700      0.0000 
      4 CBB        -0.4430   13.4110   26.2440 C.2       1 RX4700      0.0000 
      5 OAI         0.0970   14.2670   26.9400 O.2       1 RX4700      0.0000 
      6 CBF        -1.1210   12.2350   26.8890 C.3       1 RX4700      0.0000 
      7 CAR        -2.5850   12.5330   27.2210 C.3       1 RX4700      0.0000 
      8 CAZ        -3.2760   11.2680   27.7020 C.2       1 RX4700      0.0000 
      9 OAK        -3.4620   10.3300   26.8880 O.co2     1 RX4700      0.0000 
     10 OAG        -3.6320   11.1960   28.9000 O.co2     1 RX4700      0.0000 
     11 NAU        -0.4860   11.9060   28.1580 N.am      1 RX4700      0.0000 
     12 CAP         1.9180   11.5540   24.0510 C.ar      1 RX4700      0.0000 
     13 CAN         2.8080   10.7640   24.7830 C.ar      1 RX4700      0.0000 
     14 CAM         3.8970   11.3560   25.4230 C.ar      1 RX4700      0.0000 
     15 CAO         4.0890   12.7340   25.3260 C.ar      1 RX4700      0.0000 
     16 CAQ         3.1980   13.5290   24.5950 C.ar      1 RX4700      0.0000 
     17 CBC         2.1060   12.9340   23.9510 C.ar      1 RX4700      0.0000 
     18 CAS         1.1210   13.7790   23.1670 C.3       1 RX4700      0.0000 
     19 CBG         0.1840   14.5070   24.1610 C.3       1 RX4700      0.0000 
     20 P1         -1.0600   15.5540   23.3560 P.3       1 RX4700      0.0000 
     21 O4         -1.8290   16.2560   24.4510 O.co2     1 RX4700      0.0000 
     22 O3         -1.8730   14.6710   22.4260 O.co2     1 RX4700      0.0000 
     23 NAW        -0.4680   13.4460   24.9090 N.am      1 RX4700      0.0000 
     24 CAT        -0.0900   16.7850   22.4470 C.3       1 RX4700      0.0000 
     25 CBD        -0.8300   17.4580   21.3050 C.3       1 RX4700      0.0000 
     26 CAB        -0.2940   18.8800   21.1270 C.3       1 RX4700      0.0000 
     27 CBA        -0.5540   16.7340   20.0210 C.2       1 RX4700      0.0000 
     28 OAH         0.4570   16.0600   19.9000 O.2       1 RX4700      0.0000 
     29 N          -1.4430   16.9180   19.0440 N.am      1 RX4700      0.0000 
     30 CA         -1.2940   16.3080   17.7310 C.3       1 RX4700      0.0000 
     31 CB         -2.5330   16.5890   16.8770 C.3       1 RX4700      0.0000 
     32 C          -0.0630   16.8330   17.0490 C.2       1 RX4700      0.0000 
     33 O           0.3830   17.9540   17.2900 O.2       1 RX4700      0.0000 
     34 NAD         0.5280   16.0080   16.2040 N.am      1 RX4700      0.0000 
     35 H          -1.0953   11.3861   26.2339 H         1 RX4700      0.0000 
     36 H          -3.0837   12.9041   26.3308 H         1 RX4700      0.0000 
     37 H          -2.6270   13.2890   27.9991 H         1 RX4700      0.0000 
     38 H          -0.6482   12.5819   28.9359 H         1 RX4700      0.0000 
     39 H           1.1138   11.1129   23.5797 H         1 RX4700      0.0000 
     40 H           2.6602    9.7515   24.8491 H         1 RX4700      0.0000 
     41 H           4.5523   10.7814   25.9615 H         1 RX4700      0.0000 
     42 H           4.8938   13.1736   25.7961 H         1 RX4700      0.0000 
     43 H           3.3438   14.5393   24.5315 H         1 RX4700      0.0000 
     44 H           0.5240   13.1503   22.5237 H         1 RX4700      0.0000 
     45 H           1.6495   14.5176   22.5832 H         1 RX4700      0.0000 
     46 H           0.7226   15.1708   24.7729 H         1 RX4700      0.0000 
     47 H          -0.9530   12.7189   24.3448 H         1 RX4700      0.0000 
     48 H           0.7674   16.2065   22.1251 H         1 RX4700      0.0000 
     49 H           0.2044   17.4688   23.2339 H         1 RX4700      0.0000 
     50 H          -1.8623   17.4936   21.4971 H         1 RX4700      0.0000 
     51 H          -2.2929   17.5114   19.1746 H         1 RX4700      0.0000 
     52 H          -1.2010   15.2301   17.8306 H         1 RX4700      0.0000 
     53 H           0.1172   15.1007   16.1149 H         1 RX4700      0.0000 
     54 H           1.3327   16.3656   15.7300 H         1 RX4700      0.0000 
     55 H           1.8285   10.5989   29.6820 H         1 RX4700      0.0000 
     56 H           0.5639   11.3701   30.3083 H         1 RX4700      0.0000 
     57 H           0.5181    9.7740   30.1163 H         1 RX4700      0.0000 
     58 H           0.6830   18.8847   20.9138 H         1 RX4700      0.0000 
     59 H          -0.7585   19.3617   20.3838 H         1 RX4700      0.0000 
     60 H          -0.4162   19.4292   21.9537 H         1 RX4700      0.0000 
     61 H          -2.6777   17.5695   16.7438 H         1 RX4700      0.0000 
     62 H          -2.4590   16.1775   15.9686 H         1 RX4700      0.0000 
     63 H          -3.3641   16.2245   17.2971 H         1 RX4700      0.0000 
@<TRIPOS>BOND
     1    2    1 1    
     2    3    1 2    
     3   11    1 am   
     4   55    2 1    
     5   56    2 1    
     6   57    2 1    
     7    5    4 2    
     8    6    4 1    
     9   23    4 am   
    10    7    6 1    
    11   11    6 1    
    12   35    6 1    
    13    8    7 1    
    14   36    7 1    
    15   37    7 1    
    16    9    8 ar   
    17   10    8 ar   
    18   38   11 1    
    19   13   12 ar   
    20   17   12 ar   
    21   39   12 1    
    22   14   13 ar   
    23   40   13 1    
    24   15   14 ar   
    25   41   14 1    
    26   16   15 ar   
    27   42   15 1    
    28   17   16 ar   
    29   43   16 1    
    30   18   17 1    
    31   19   18 1    
    32   44   18 1    
    33   45   18 1    
    34   20   19 1    
    35   23   19 1    
    36   46   19 1    
    37   21   20 ar   
    38   22   20 ar   
    39   24   20 1    
    40   47   23 1    
    41   25   24 1    
    42   48   24 1    
    43   49   24 1    
    44   26   25 1    
    45   27   25 1    
    46   50   25 1    
    47   58   26 1    
    48   59   26 1    
    49   60   26 1    
    50   28   27 2    
    51   29   27 am   
    52   30   29 1    
    53   51   29 1    
    54   31   30 1    
    55   32   30 1    
    56   52   30 1    
    57   61   31 1    
    58   62   31 1    
    59   63   31 1    
    60   33   32 2    
    61   34   32 am   
    62   53   34 1    
    63   54   34 1    
@<TRIPOS>SUBSTRUCTURE
     1 RX4700      1 GROUP   
@<TRIPOS>SET

