#    Name: 3U8F_1_CAVITY_N1_6.mol2
#    Modification time : Tue Mar 11 06:29:04 2014

@<TRIPOS>MOLECULE
3U8F_1_CAVITY_N1_6.mol2
  100     0     6     0     0
SMALL
NO_CHARGES


@<TRIPOS>ATOM
      1 CA        -14.0080   21.2766    6.3505 C.3       5 GLY6        0.0000 
      2 CA        -11.6155   20.4163    6.8849 C.3       5 GLY6        0.0000 
      3 NZ        -12.7579   21.6926    5.6335 N.2       3 LYS4        0.0000 
      4 NZ        -13.9002   22.9688    4.3820 N.2       3 LYS4        0.0000 
      5 DU        -10.8050   22.2649    6.2324 H         6 CUB7        0.0000 
      6 CA        -10.3653   20.8322    6.1680 C.3       5 GLY6        0.0000 
      7 NZ        -11.9474   23.5412    4.9810 N.2       3 LYS4        0.0000 
      8 NZ        -11.5077   22.1085    4.9165 N.2       3 LYS4        0.0000 
      9 CA         -4.0197   19.3213   13.2178 C.3       5 GLY6        0.0000 
     10 CA         -5.1620   20.5976   11.9663 C.3       5 GLY6        0.0000 
     11 CA         -4.7224   19.1649   11.9018 C.3       5 GLY6        0.0000 
     12 DU         -6.3044   21.8738   10.7148 H         6 CUB7        0.0000 
     13 O          -5.8647   20.4412   10.6503 O.2       2 ALA2        0.0000 
     14 O          -5.4251   19.0085   10.5858 O.2       2 ALA2        0.0000 
     15 DU         -7.4468   23.1501    9.4633 H         6 CUB7        0.0000 
     16 CA         -7.0071   21.7174    9.3988 C.3       5 GLY6        0.0000 
     17 O          -6.5674   20.2847    9.3344 O.2       2 ALA2        0.0000 
     18 CA         -8.1494   22.9937    8.1474 C.3       5 GLY6        0.0000 
     19 CA         -7.7098   21.5610    8.0829 C.3       5 GLY6        0.0000 
     20 CA         -8.8521   22.8372    6.8314 C.3       5 GLY6        0.0000 
     21 CA         -8.4125   21.4046    6.7669 C.3       5 GLY6        0.0000 
     22 CZ         -9.5548   22.6808    5.5154 C.ar      4 PHE5        0.0000 
     23 O          -9.1152   21.2482    5.4510 O.2       2 ALA2        0.0000 
     24 CZ        -10.6972   23.9571    4.2640 C.ar      4 PHE5        0.0000 
     25 NZ        -10.2575   22.5244    4.1995 N.2       3 LYS4        0.0000 
     26 NZ         -9.8179   21.0917    4.1350 N.2       3 LYS4        0.0000 
     27 NZ        -11.3999   23.8007    2.9480 N.2       3 LYS4        0.0000 
     28 N          -3.2092   21.1699   12.5652 N.2       2 ALA2        0.0000 
     29 N          -2.7695   19.7373   12.5008 N.2       2 ALA2        0.0000 
     30 N          -4.3515   22.4462   11.3138 N.2       2 ALA2        0.0000 
     31 N          -3.9119   21.0135   11.2493 N.2       2 ALA2        0.0000 
     32 CA         -3.4722   19.5808   11.1848 C.3       5 GLY6        0.0000 
     33 DU         -5.9336   25.1551   10.1268 H         6 CUB7        0.0000 
     34 CZ         -5.0542   22.2898    9.9978 C.ar      4 PHE5        0.0000 
     35 CA         -4.6146   20.8571    9.9333 C.3       5 GLY6        0.0000 
     36 OG         -7.0759   26.4313    8.8753 O.2       1 SER1        0.0000 
     37 OG         -6.6363   24.9987    8.8108 O.2       1 SER1        0.0000 
     38 DU         -6.1966   23.5660    8.7463 H         6 CUB7        0.0000 
     39 DU         -5.7569   22.1333    8.6818 H         6 CUB7        0.0000 
     40 O          -5.3173   20.7007    8.6174 O.2       2 ALA2        0.0000 
     41 OG         -7.3389   24.8423    7.4948 O.2       1 SER1        0.0000 
     42 DU         -6.8993   23.4096    7.4304 H         6 CUB7        0.0000 
     43 CA         -6.4596   21.9769    7.3659 C.3       5 GLY6        0.0000 
     44 CZ         -7.6020   23.2532    6.1144 C.ar      4 PHE5        0.0000 
     45 CA         -7.1623   21.8205    6.0499 C.3       5 GLY6        0.0000 
     46 CZ         -8.3047   23.0968    4.7984 C.ar      4 PHE5        0.0000 
     47 N          -7.8650   21.6641    4.7340 N.2       2 ALA2        0.0000 
     48 CZ         -9.0074   22.9403    3.4825 C.ar      4 PHE5        0.0000 
     49 N          -8.5677   21.5077    3.4180 N.2       2 ALA2        0.0000 
     50 CA         -9.7101   22.7839    2.1665 C.3       5 GLY6        0.0000 
     51 N          -9.2704   21.3513    2.1020 N.2       2 ALA2        0.0000 
     52 N          -3.9807   25.7274   10.7257 N.2       2 ALA2        0.0000 
     53 N          -3.5410   24.2948   10.6612 N.2       2 ALA2        0.0000 
     54 N          -3.1014   22.8621   10.5968 N.2       2 ALA2        0.0000 
     55 N          -2.6617   21.4294   10.5323 N.2       2 ALA2        0.0000 
     56 CA         -5.1231   27.0037    9.4743 C.3       5 GLY6        0.0000 
     57 DU         -4.6834   25.5710    9.4098 H         6 CUB7        0.0000 
     58 N          -4.2437   24.1384    9.3453 N.2       2 ALA2        0.0000 
     59 CZ         -3.8041   22.7057    9.2808 C.ar      4 PHE5        0.0000 
     60 OG         -5.8257   26.8473    8.1583 O.2       1 SER1        0.0000 
     61 OG         -5.3861   25.4146    8.0938 O.2       1 SER1        0.0000 
     62 DU         -4.9464   23.9819    8.0293 H         6 CUB7        0.0000 
     63 CZ         -4.5068   22.5493    7.9648 C.ar      4 PHE5        0.0000 
     64 OG         -6.0888   25.2582    6.7778 O.2       1 SER1        0.0000 
     65 CZ         -5.6491   23.8255    6.7134 C.ar      4 PHE5        0.0000 
     66 CZ         -5.2094   22.3929    6.6489 C.ar      4 PHE5        0.0000 
     67 CZ         -4.7698   20.9602    6.5844 C.ar      4 PHE5        0.0000 
     68 CZ         -6.3518   23.6691    5.3974 C.ar      4 PHE5        0.0000 
     69 DU         -5.9121   22.2364    5.3329 H         6 CUB7        0.0000 
     70 N          -5.4725   20.8038    5.2684 N.2       2 ALA2        0.0000 
     71 CZ         -6.6148   22.0800    4.0170 C.ar      4 PHE5        0.0000 
     72 N          -6.1752   20.6474    3.9525 N.2       2 ALA2        0.0000 
     73 CA         -7.3175   21.9236    2.7010 C.3       5 GLY6        0.0000 
     74 N          -6.8779   20.4909    2.6365 N.2       2 ALA2        0.0000 
     75 N          -8.0202   21.7672    1.3850 N.2       2 ALA2        0.0000 
     76 N          -7.5806   20.3345    1.3206 N.2       2 ALA2        0.0000 
     77 N          -3.4332   25.9870    8.6928 N.2       2 ALA2        0.0000 
     78 N          -2.9936   24.5543    8.6283 N.2       2 ALA2        0.0000 
     79 CZ         -2.5539   23.1216    8.5638 C.ar      4 PHE5        0.0000 
     80 CZ         -4.5756   27.2632    7.4413 C.ar      4 PHE5        0.0000 
     81 CZ         -4.1359   25.8305    7.3768 C.ar      4 PHE5        0.0000 
     82 N          -3.6963   24.3979    7.3123 N.2       2 ALA2        0.0000 
     83 CZ         -3.2566   22.9652    7.2478 C.ar      4 PHE5        0.0000 
     84 CZ         -4.8386   25.6741    6.0608 C.ar      4 PHE5        0.0000 
     85 CZ         -4.3989   24.2415    5.9964 C.ar      4 PHE5        0.0000 
     86 CZ         -3.9593   22.8088    5.9319 C.ar      4 PHE5        0.0000 
     87 CZ         -3.5196   21.3761    5.8674 C.ar      4 PHE5        0.0000 
     88 CZ         -5.1016   24.0850    4.6804 C.ar      4 PHE5        0.0000 
     89 DU         -4.6620   22.6524    4.6159 H         6 CUB7        0.0000 
     90 CA         -4.2223   21.2197    4.5514 C.3       5 GLY6        0.0000 
     91 CZ         -5.3647   22.4959    3.3000 C.ar      4 PHE5        0.0000 
     92 CA         -4.9250   21.0633    3.2355 C.3       5 GLY6        0.0000 
     93 CA         -6.0674   22.3395    1.9840 C.3       5 GLY6        0.0000 
     94 CA         -5.6277   20.9069    1.9195 C.3       5 GLY6        0.0000 
     95 O          -6.3304   20.7504    0.6036 O.2       2 ALA2        0.0000 
     96 CZ         -2.8857   26.2465    6.6598 C.ar      4 PHE5        0.0000 
     97 NZ         -2.4461   24.8138    6.5953 N.2       3 LYS4        0.0000 
     98 CA         -4.1145   22.9119    2.5830 C.3       5 GLY6        0.0000 
     99 N          -4.8172   22.7555    1.2670 N.2       2 ALA2        0.0000 
    100 CA         -4.3775   21.3228    1.2025 C.3       5 GLY6        0.0000 
@<TRIPOS>BOND
@<TRIPOS>SUBSTRUCTURE
     1 SER1       36 GROUP   
     2 ALA2       13 GROUP   
     3 LYS4        3 GROUP   
     4 PHE5       22 GROUP   
     5 GLY6        1 GROUP   
     6 CUB7        5 GROUP   
@<TRIPOS>SET

