#    Name: 3u8f_FGM_1_INTS_M
#    Modification time : Mon Mar 24 21:44:32 2014

@<TRIPOS>MOLECULE
3u8f_FGM_1_INTS_M
   58     0    12     0     0
SMALL
NO_CHARGES


@<TRIPOS>ATOM
      1 CA        -12.7265   18.5775    6.4500 C.3       4 GLC5        0.0000 
      2 CA        -12.6350   20.5070    7.2130 C.3      12 GLL5        0.0000 
      3 CA        -12.8180   16.6480    5.6870 C.3       8 GLP5        0.0000 
      4 CA         -7.3720   21.5525   -0.3610 C.3       4 GLC5        0.0000 
      5 CA         -7.7120   21.3750    1.6210 C.3      12 GLL5        0.0000 
      6 CA         -7.0320   21.7300   -2.3430 C.3       8 GLP5        0.0000 
      7 CA         -8.1175   19.4115    0.6930 C.3       4 GLC5        0.0000 
      8 CA         -8.5230   17.4480   -0.2350 C.3       8 GLP5        0.0000 
      9 CA         -5.3295   19.7280    2.2945 C.3       4 GLC5        0.0000 
     10 CA         -6.7700   21.3160    2.8180 C.3      12 GLL5        0.0000 
     11 CA         -3.8890   18.1400    1.7710 C.3       8 GLP5        0.0000 
     12 O          -6.6360   19.1550    3.7115 O.2       1 ALC1        0.0000 
     13 O          -6.1880   20.0110    2.9040 O.2       9 ALL1        0.0000 
     14 O          -7.0840   18.2990    4.5190 O.2       5 ALP1        0.0000 
     15 CA         -3.2935   21.1370    6.0430 C.3       4 GLC5        0.0000 
     16 CA         -5.1760   21.3860    4.9590 C.3      12 GLL5        0.0000 
     17 CA         -1.4110   20.8880    7.1270 C.3       8 GLP5        0.0000 
     18 CA         -6.2090   24.2190    5.1165 C.3       4 GLC5        0.0000 
     19 CA         -5.6390   22.3250    6.0660 C.3      12 GLL5        0.0000 
     20 CA         -6.7790   26.1130    4.1670 C.3       8 GLP5        0.0000 
     21 CA         -3.9440   21.2935    7.0585 C.3       4 GLC5        0.0000 
     22 CA         -2.2490   20.2620    8.0510 C.3       8 GLP5        0.0000 
     23 CA         -3.9910   20.6885    8.1580 C.3       4 GLC5        0.0000 
     24 CA         -5.7330   21.1150    8.2650 C.3      12 GLL5        0.0000 
     25 CA         -7.6720   20.3100    8.8860 C.3       4 GLC5        0.0000 
     26 CA         -6.4500   21.4490    9.5680 C.3      12 GLL5        0.0000 
     27 CA         -8.8940   19.1710    8.2040 C.3       8 GLP5        0.0000 
     28 CA         -5.0035   19.8555    9.2305 C.3       4 GLC5        0.0000 
     29 CA         -3.5570   18.2620    8.8930 C.3       8 GLP5        0.0000 
     30 N          -5.9500   22.3145   -0.3455 N.am      2 SEC2        0.0000 
     31 N          -5.1540   21.9580    0.5740 N.am     10 SEL2        0.0000 
     32 N          -6.7460   22.6710   -1.2650 N.am      6 SEP2        0.0000 
     33 NZ         -3.0340   24.8205    2.3005 N.4       3 LYC4        0.0000 
     34 NZ         -3.5410   23.0120    1.6290 N.4      11 LYL4        0.0000 
     35 NZ         -2.5270   26.6290    2.9720 N.4       7 LYP4        0.0000 
     36 CA        -10.2830   20.2428    8.4405 C.3       4 GLC5        0.0000 
     37 CA        -11.1470   21.8580    8.7050 C.3      12 GLL5        0.0000 
     38 CA        -10.5025   19.9627    7.4610 C.3       4 GLC5        0.0000 
     39 CA         -9.8905   24.0892    3.7157 C.3       4 GLC5        0.0000 
     40 CA         -9.7870   22.0620    4.4550 C.3      12 GLL5        0.0000 
     41 CA         -9.2910   25.8260    3.0230 C.3       8 GLP5        0.0000 
     42 CA         -9.2443   19.5260    3.1335 C.3       4 GLC5        0.0000 
     43 CA         -9.1140   21.7910    2.0500 C.3      12 GLL5        0.0000 
     44 CA         -9.1660   17.6210    3.5790 C.3       8 GLP5        0.0000 
     45 CA         -8.3750   23.1710    1.3822 C.3       4 GLC5        0.0000 
     46 CA         -8.3370   24.7590    0.9290 C.3       8 GLP5        0.0000 
     47 CA         -9.7561   22.1620    0.9497 C.3       4 GLC5        0.0000 
     48 CA        -10.9950   22.9210   -0.2550 C.3       8 GLP5        0.0000 
     49 CA         -8.2035   19.4832    2.8993 C.3       4 GLC5        0.0000 
     50 CA         -6.1660   23.7692    3.0839 C.3       4 GLC5        0.0000 
     51 CA         -4.6110   22.1680    3.7790 C.3      12 GLL5        0.0000 
     52 CA         -6.9180   25.5360    2.9000 C.3       8 GLP5        0.0000 
     53 CA         -6.7148   20.2653    6.2788 C.3       4 GLC5        0.0000 
     54 CA         -8.0220   18.6750    7.0450 C.3       8 GLP5        0.0000 
     55 CA         -3.4909   21.2057    3.1025 C.3       4 GLC5        0.0000 
     56 CA         -1.8250   20.5870    2.1070 C.3       8 GLP5        0.0000 
     57 CA         -7.0777   20.0155    7.3543 C.3       4 GLC5        0.0000 
     58 CA         -6.5340   21.5970    7.0620 C.3      12 GLL5        0.0000 
@<TRIPOS>BOND
@<TRIPOS>SUBSTRUCTURE
     1 ALC1       12 GROUP        1 X    ALC  0     ROOT ALC X 1
     2 SEC2       30 GROUP        1 X    SEC  0     **** SEC X 2
     3 LYC4       33 GROUP        1 X    LYC  0     **** LYC X 4
     4 GLC5        1 GROUP        1 X    GLC  0     **** GLC X 6
     5 ALP1       14 GROUP        1 Y    ALP  0     ROOT ALP Y 8
     6 SEP2       32 GROUP        1 Y    SEP  0     **** SEP Y 9
     7 LYP4       35 GROUP        1 Y    LYP  0     **** LYP Y 11
     8 GLP5        3 GROUP        1 Y    GLP  0     **** GLP Y 13
     9 ALL1       13 GROUP        1 Z    ALL  0     ROOT ALL Z 15
    10 SEL2       31 GROUP        1 Z    SEL  0     **** SEL Z 16
    11 LYL4       34 GROUP        1 Z    LYL  0     **** LYL Z 18
    12 GLL5        2 GROUP        1 Z    GLL  0     **** GLL Z 20
@<TRIPOS>SET

