#    Name: 3u8f_FGM_1_ligand
#    Modification time : Mon Mar 24 21:44:32 2014

@<TRIPOS>MOLECULE
3u8f_FGM_1_ligand
   59    58     1     0     0
SMALL
NO_CHARGES


@<TRIPOS>ATOM
      1 CBU       -11.1470   21.8580    8.7050 C.3       1 FGM3945     0.0000 
      2 CBV       -12.1970   20.7710    8.6490 C.3       1 FGM3945     0.0000 
      3 CBW       -12.6350   20.5070    7.2130 C.3       1 FGM3945     0.0000 
      4 CBX       -11.5870   21.0020    6.2230 C.3       1 FGM3945     0.0000 
      5 CBY       -11.9910   22.3450    5.6260 C.3       1 FGM3945     0.0000 
      6 CBZ       -11.1930   22.6430    4.3620 C.3       1 FGM3945     0.0000 
      7 CCA        -9.7870   22.0620    4.4550 C.3       1 FGM3945     0.0000 
      8 CCB        -9.5310   21.0710    3.3260 C.3       1 FGM3945     0.0000 
      9 CCC        -9.1140   21.7910    2.0500 C.3       1 FGM3945     0.0000 
     10 CCD        -7.7120   21.3750    1.6210 C.3       1 FGM3945     0.0000 
     11 CCE        -6.7700   21.3160    2.8180 C.3       1 FGM3945     0.0000 
     12 OCF        -6.1880   20.0110    2.9040 O.3       1 FGM3945     0.0000 
     13 CCG        -5.6640   22.3580    2.6950 C.3       1 FGM3945     0.0000 
     14 CCH        -4.6110   22.1680    3.7790 C.3       1 FGM3945     0.0000 
     15 CCI        -5.1760   21.3860    4.9590 C.3       1 FGM3945     0.0000 
     16 CCJ        -5.6390   22.3250    6.0660 C.3       1 FGM3945     0.0000 
     17 CCK        -6.5340   21.5970    7.0620 C.3       1 FGM3945     0.0000 
     18 CCL        -5.7330   21.1150    8.2650 C.3       1 FGM3945     0.0000 
     19 CCM        -6.4500   21.4490    9.5680 C.3       1 FGM3945     0.0000 
     20 CCQ        -4.6760   22.4900    1.5980 C.2       1 FGM3945     0.0000 
     21 OCR        -5.1540   21.9580    0.5740 O.co2     1 FGM3945     0.0000 
     22 OCS        -3.5410   23.0120    1.6290 O.co2     1 FGM3945     0.0000 
     23 H         -13.0660   21.0716    9.2375 H         1 FGM3945     0.0000 
     24 H         -11.7927   19.8501    9.0737 H         1 FGM3945     0.0000 
     25 H         -13.5785   21.0196    7.0246 H         1 FGM3945     0.0000 
     26 H         -12.7845   19.4362    7.0735 H         1 FGM3945     0.0000 
     27 H         -11.4752   20.2711    5.4218 H         1 FGM3945     0.0000 
     28 H         -10.6304   21.1089    6.7350 H         1 FGM3945     0.0000 
     29 H         -11.8125   23.1327    6.3583 H         1 FGM3945     0.0000 
     30 H         -13.0540   22.3263    5.3844 H         1 FGM3945     0.0000 
     31 H         -11.1280   23.7223    4.2235 H         1 FGM3945     0.0000 
     32 H         -11.7052   22.2101    3.5026 H         1 FGM3945     0.0000 
     33 H          -9.6699   21.5547    5.4128 H         1 FGM3945     0.0000 
     34 H          -9.0587   22.8710    4.3960 H         1 FGM3945     0.0000 
     35 H         -10.4401   20.4991    3.1362 H         1 FGM3945     0.0000 
     36 H          -8.7409   20.3812    3.6250 H         1 FGM3945     0.0000 
     37 H          -9.1331   22.8677    2.2212 H         1 FGM3945     0.0000 
     38 H          -9.8197   21.5513    1.2540 H         1 FGM3945     0.0000 
     39 H          -7.3289   22.0942    0.8968 H         1 FGM3945     0.0000 
     40 H          -7.7563   20.3931    1.1493 H         1 FGM3945     0.0000 
     41 H          -7.3437   21.5378    3.7094 H         1 FGM3945     0.0000 
     42 H          -6.0532   23.3743    2.9136 H         1 FGM3945     0.0000 
     43 H          -4.2697   23.1442    4.1249 H         1 FGM3945     0.0000 
     44 H          -3.7598   21.6274    3.3638 H         1 FGM3945     0.0000 
     45 H          -4.4067   20.7196    5.3504 H         1 FGM3945     0.0000 
     46 H          -6.0202   20.7843    4.6207 H         1 FGM3945     0.0000 
     47 H          -6.1917   23.1556    5.6259 H         1 FGM3945     0.0000 
     48 H          -4.7684   22.7227    6.5885 H         1 FGM3945     0.0000 
     49 H          -6.9966   20.7405    6.5708 H         1 FGM3945     0.0000 
     50 H          -7.3201   22.2728    7.4000 H         1 FGM3945     0.0000 
     51 H          -4.7533   21.5936    8.2607 H         1 FGM3945     0.0000 
     52 H          -5.5950   20.0356    8.1969 H         1 FGM3945     0.0000 
     53 H         -10.8491   22.0386    9.6423 H         1 FGM3945     0.0000 
     54 H         -10.3315   21.6140    8.1801 H         1 FGM3945     0.0000 
     55 H         -11.4868   22.7221    8.3338 H         1 FGM3945     0.0000 
     56 H          -5.9352   21.1357   10.3660 H         1 FGM3945     0.0000 
     57 H          -6.5860   22.4339    9.6751 H         1 FGM3945     0.0000 
     58 H          -7.3528   21.0216    9.6152 H         1 FGM3945     0.0000 
     59 H          -6.9288   19.4176    3.2188 H         1 FGM3945     0.0000 
@<TRIPOS>BOND
     1    2    1 1    
     2   53    1 1    
     3   54    1 1    
     4   55    1 1    
     5    3    2 1    
     6   23    2 1    
     7   24    2 1    
     8    4    3 1    
     9   25    3 1    
    10   26    3 1    
    11    5    4 1    
    12   27    4 1    
    13   28    4 1    
    14    6    5 1    
    15   29    5 1    
    16   30    5 1    
    17    7    6 1    
    18   31    6 1    
    19   32    6 1    
    20    8    7 1    
    21   33    7 1    
    22   34    7 1    
    23    9    8 1    
    24   35    8 1    
    25   36    8 1    
    26   10    9 1    
    27   37    9 1    
    28   38    9 1    
    29   11   10 1    
    30   39   10 1    
    31   40   10 1    
    32   12   11 1    
    33   13   11 1    
    34   41   11 1    
    35   59   12 1    
    36   14   13 1    
    37   20   13 1    
    38   42   13 1    
    39   15   14 1    
    40   43   14 1    
    41   44   14 1    
    42   16   15 1    
    43   45   15 1    
    44   46   15 1    
    45   17   16 1    
    46   47   16 1    
    47   48   16 1    
    48   18   17 1    
    49   49   17 1    
    50   50   17 1    
    51   19   18 1    
    52   51   18 1    
    53   52   18 1    
    54   56   19 1    
    55   57   19 1    
    56   58   19 1    
    57   21   20 ar   
    58   22   20 ar   
@<TRIPOS>SUBSTRUCTURE
     1 FGM3945     1 GROUP   
@<TRIPOS>SET

