#    Name: 2qhm_7CS_1_INTS_M
#    Modification time : Mon Mar 24 22:09:31 2014

@<TRIPOS>MOLECULE
2qhm_7CS_1_INTS_M
   49     0     9     0     0
SMALL
NO_CHARGES


@<TRIPOS>ATOM
      1 CA         17.9590   -5.0400   17.8285 C.3       3 GLC5        0.0000 
      2 CA         16.4680   -5.4170   16.3680 C.3       9 GLL5        0.0000 
      3 CA         19.4500   -4.6630   19.2890 C.3       6 GLP5        0.0000 
      4 CA         12.2370    1.4230   11.0010 C.3       3 GLC5        0.0000 
      5 CA         13.1870   -0.2350   10.3460 C.3       9 GLL5        0.0000 
      6 CA         11.2870    3.0810   11.6560 C.3       6 GLP5        0.0000 
      7 CA         11.3935    0.3510    9.5525 C.3       3 GLC5        0.0000 
      8 CA          9.6000    0.9370    8.7590 C.3       6 GLP5        0.0000 
      9 CA         15.7470   -2.4165   16.9750 C.3       3 GLC5        0.0000 
     10 CA         15.0470   -3.5920   15.2380 C.3       9 GLL5        0.0000 
     11 CA         16.4470   -1.2410   18.7120 C.3       6 GLP5        0.0000 
     12 CA         17.8160    1.7780    8.7640 C.3       3 GLC5        0.0000 
     13 CA         17.6560   -0.3570    8.8730 C.3       9 GLL5        0.0000 
     14 CA         17.9760    3.9130    8.6550 C.3       6 GLP5        0.0000 
     15 N          16.6810    1.8320    8.3755 N.am      2 SEC2        0.0000 
     16 N          16.4400    0.4320    8.8490 N.am      8 SEL2        0.0000 
     17 N          16.9220    3.2320    7.9020 N.am      5 SEP2        0.0000 
     18 CA         15.8450   -1.2275    7.7760 C.3       3 GLC5        0.0000 
     19 CA         15.2540   -0.0220    9.5040 C.3       9 GLL5        0.0000 
     20 CA         16.4360   -2.4330    6.0480 C.3       6 GLP5        0.0000 
     21 CA         15.1630    1.5305    7.9010 C.3       3 GLC5        0.0000 
     22 CA         15.0720    3.0830    6.2980 C.3       6 GLP5        0.0000 
     23 CA         16.8275   -3.2820    8.7505 C.3       3 GLC5        0.0000 
     24 CA         16.4230   -2.0040   10.3650 C.3       9 GLL5        0.0000 
     25 CA         17.2320   -4.5600    7.1360 C.3       6 GLP5        0.0000 
     26 CA         15.0255   -3.2155    9.2550 C.3       3 GLC5        0.0000 
     27 CA         13.6280   -4.4270    8.1450 C.3       6 GLP5        0.0000 
     28 O          13.6180    1.7060    8.9825 O.2       1 ALC1        0.0000 
     29 O          14.0100    0.5880    9.5780 O.2       7 ALL1        0.0000 
     30 O          13.2260    2.8240    8.3870 O.2       4 ALP1        0.0000 
     31 CA         14.0675   -2.8480    9.3620 C.3       3 GLC5        0.0000 
     32 CA         13.8370   -1.3160   10.8560 C.3       9 GLL5        0.0000 
     33 CA         17.3555   -1.7530   13.9690 C.3       3 GLC5        0.0000 
     34 CA         16.1430   -2.9440   14.3900 C.3       9 GLL5        0.0000 
     35 CA         18.2330   -0.0330   13.9720 C.3       6 GLP5        0.0000 
     36 CA         13.6888   -5.4512   11.4893 C.3       3 GLC5        0.0000 
     37 CA         13.8970   -4.3220   13.0530 C.3       9 GLL5        0.0000 
     38 CA         12.9760   -5.9960    9.9830 C.3       6 GLP5        0.0000 
     39 CA         12.8033   -3.1988   16.0418 C.3       3 GLC5        0.0000 
     40 CA         13.7200   -3.6970   14.5090 C.3       9 GLL5        0.0000 
     41 CA         11.2230   -2.7530   17.2100 C.3       6 GLP5        0.0000 
     42 CA         17.0532   -1.7067    7.6485 C.3       3 GLC5        0.0000 
     43 CA         17.6850   -1.6040    9.6250 C.3       9 GLL5        0.0000 
     44 CA         16.5829   -0.3901   11.2865 C.3       3 GLC5        0.0000 
     45 CA         16.1190    0.7120   12.7660 C.3       6 GLP5        0.0000 
     46 CA         13.7584   -0.6619    8.4495 C.3       3 GLC5        0.0000 
     47 CA         15.1770   -1.2220   10.3020 C.3       9 GLL5        0.0000 
     48 CA         13.1530   -0.6250    6.6470 C.3       6 GLP5        0.0000 
     49 CA         15.2414    0.0066   11.5090 C.3       3 GLC5        0.0000 
@<TRIPOS>BOND
@<TRIPOS>SUBSTRUCTURE
     1 ALC1       28 GROUP        1 X    ALC  0     ROOT ALC X 1
     2 SEC2       15 GROUP        1 X    SEC  0     **** SEC X 2
     3 GLC5        1 GROUP        1 X    GLC  0     **** GLC X 6
     4 ALP1       30 GROUP        1 Y    ALP  0     ROOT ALP Y 8
     5 SEP2       17 GROUP        1 Y    SEP  0     **** SEP Y 9
     6 GLP5        3 GROUP        1 Y    GLP  0     **** GLP Y 13
     7 ALL1       29 GROUP        1 Z    ALL  0     ROOT ALL Z 15
     8 SEL2       16 GROUP        1 Z    SEL  0     **** SEL Z 16
     9 GLL5        2 GROUP        1 Z    GLL  0     **** GLL Z 20
@<TRIPOS>SET

