#    Name: 2qhm_7CS_1_ligand
#    Modification time : Mon Mar 24 22:09:31 2014

@<TRIPOS>MOLECULE
2qhm_7CS_1_ligand
   41    44     1     0     0
SMALL
NO_CHARGES


@<TRIPOS>ATOM
      1 C12        13.8370   -1.3160   10.8560 C.2       1 7CS500      0.0000 
      2 O4         12.2160   -2.3190   12.1620 O.2       1 7CS500      0.0000 
      3 C8         16.4680   -5.4170   16.3680 C.3       1 7CS500      0.0000 
      4 C9         13.3400   -2.2880   11.7160 C.2       1 7CS500      0.0000 
      5 C11        13.1870   -0.2350   10.3460 C.2       1 7CS500      0.0000 
      6 O3         14.2450   -3.2380   12.0760 O.3       1 7CS500      0.0000 
      7 C7         16.1430   -2.9440   14.3900 C.3       1 7CS500      0.0000 
      8 C6         16.8130   -4.0020   13.5420 C.3       1 7CS500      0.0000 
      9 N1         15.6680   -4.9830   15.1890 N.4       1 7CS500      0.0000 
     10 C5         16.1490   -5.3540   13.7870 C.3       1 7CS500      0.0000 
     11 C4         14.9060   -5.4910   12.9380 C.3       1 7CS500      0.0000 
     12 C1         15.0470   -3.5920   15.2380 C.3       1 7CS500      0.0000 
     13 C2         13.7200   -3.6970   14.5090 C.3       1 7CS500      0.0000 
     14 C3         13.8970   -4.3220   13.0530 C.3       1 7CS500      0.0000 
     15 C13        17.6560   -0.3570    8.8730 C.ar      1 7CS500      0.0000 
     16 N14        16.4400    0.4320    8.8490 N.ar      1 7CS500      0.0000 
     17 C15        15.2540   -0.0220    9.5040 C.ar      1 7CS500      0.0000 
     18 C16        15.1770   -1.2220   10.3020 C.ar      1 7CS500      0.0000 
     19 C17        16.4230   -2.0040   10.3650 C.ar      1 7CS500      0.0000 
     20 C18        17.6850   -1.6040    9.6250 C.ar      1 7CS500      0.0000 
     21 N10        14.0100    0.5880    9.5780 N.pl3     1 7CS500      0.0000 
     22 H          12.2321   -0.0379   10.4940 H         1 7CS500      0.0000 
     23 H          15.6981   -2.1890   13.7517 H         1 7CS500      0.0000 
     24 H          16.8726   -2.4823   15.0457 H         1 7CS500      0.0000 
     25 H          17.8649   -4.0689   13.8031 H         1 7CS500      0.0000 
     26 H          16.7186   -3.7436   12.4916 H         1 7CS500      0.0000 
     27 H          14.6627   -5.6766   15.2749 H         1 7CS500      0.0000 
     28 H          16.7773   -6.0934   13.8026 H         1 7CS500      0.0000 
     29 H          14.3778   -6.4271   13.2050 H         1 7CS500      0.0000 
     30 H          15.1950   -5.5908   11.8735 H         1 7CS500      0.0000 
     31 H          15.0276   -3.2484   16.1618 H         1 7CS500      0.0000 
     32 H          13.2733   -2.7138   14.3891 H         1 7CS500      0.0000 
     33 H          13.0347   -4.3377   15.0572 H         1 7CS500      0.0000 
     34 H          12.8993   -4.7138   12.7654 H         1 7CS500      0.0000 
     35 H          18.4719   -0.0494    8.3770 H         1 7CS500      0.0000 
     36 H          16.4571   -2.8516   10.9238 H         1 7CS500      0.0000 
     37 H          18.4736   -2.1803    9.6684 H         1 7CS500      0.0000 
     38 H          13.7627    1.4077    9.1833 H         1 7CS500      0.0000 
     39 H          17.3979   -5.0501   16.3413 H         1 7CS500      0.0000 
     40 H          16.0575   -5.1129   17.2277 H         1 7CS500      0.0000 
     41 H          16.5470   -6.4127   16.4170 H         1 7CS500      0.0000 
@<TRIPOS>BOND
     1    4    1 1    
     2    5    1 2    
     3   18    1 1    
     4    4    2 2    
     5    9    3 1    
     6   39    3 1    
     7   40    3 1    
     8   41    3 1    
     9    6    4 1    
    10   21    5 1    
    11   22    5 1    
    12   14    6 1    
    13    8    7 1    
    14   12    7 1    
    15   23    7 1    
    16   24    7 1    
    17   10    8 1    
    18   25    8 1    
    19   26    8 1    
    20   10    9 1    
    21   12    9 1    
    22   27    9 1    
    23   11   10 1    
    24   28   10 1    
    25   14   11 1    
    26   29   11 1    
    27   30   11 1    
    28   13   12 1    
    29   31   12 1    
    30   14   13 1    
    31   32   13 1    
    32   33   13 1    
    33   34   14 1    
    34   16   15 ar   
    35   20   15 ar   
    36   35   15 1    
    37   17   16 ar   
    38   18   17 ar   
    39   21   17 1    
    40   19   18 ar   
    41   20   19 ar   
    42   36   19 1    
    43   37   20 1    
    44   38   21 1    
@<TRIPOS>SUBSTRUCTURE
     1 7CS500      1 GROUP   
@<TRIPOS>SET

