#    Name: 1kru_IPT_3_INTS_M
#    Modification time : Tue Mar 25 10:32:43 2014

@<TRIPOS>MOLECULE
1kru_IPT_3_INTS_M
   37     0     9     0     0
SMALL
NO_CHARGES


@<TRIPOS>ATOM
      1 CA        -47.5425  -23.0325   -3.6210 C.3       3 GLC5        0.0000 
      2 CA        -49.1770  -22.7130   -4.9890 C.3       9 GLL5        0.0000 
      3 CA        -45.9080  -23.3520   -2.2530 C.3       6 GLP5        0.0000 
      4 CA        -51.3355  -24.1715   -7.2320 C.3       3 GLC5        0.0000 
      5 CA        -49.8910  -23.9760   -5.6380 C.3       9 GLL5        0.0000 
      6 CA        -52.7800  -24.3670   -8.8260 C.3       6 GLP5        0.0000 
      7 O         -50.3885  -26.7175   -7.1265 O.2       1 ALC1        0.0000 
      8 O         -49.3990  -26.3050   -6.3460 O.2       7 ALL1        0.0000 
      9 O         -51.3780  -27.1300   -7.9070 O.2       4 ALP1        0.0000 
     10 CA        -46.4940  -23.3325   -4.1280 C.3       3 GLC5        0.0000 
     11 CA        -47.0800  -23.3130   -6.0030 C.3       9 GLL5        0.0000 
     12 CA        -45.6585  -22.4335   -4.7320 C.3       3 GLC5        0.0000 
     13 CA        -45.9690  -22.7360   -6.8610 C.3       9 GLL5        0.0000 
     14 CA        -45.3480  -22.1310   -2.6030 C.3       6 GLP5        0.0000 
     15 CA        -44.7235  -21.0090   -6.6435 C.3       3 GLC5        0.0000 
     16 CA        -43.4780  -19.2820   -6.4260 C.3       6 GLP5        0.0000 
     17 N         -43.8895  -21.3115   -6.9030 N.am      2 SEC2        0.0000 
     18 N         -45.4280  -21.5510   -6.2600 N.am      8 SEL2        0.0000 
     19 N         -42.3510  -21.0720   -7.5460 N.am      5 SEP2        0.0000 
     20 O         -43.8895  -21.3115   -6.9030 O.2       1 ALC1        0.0000 
     21 O         -45.4280  -21.5510   -6.2600 O.2       7 ALL1        0.0000 
     22 O         -42.3510  -21.0720   -7.5460 O.2       4 ALP1        0.0000 
     23 CA        -51.3240  -21.1570   -6.3875 C.3       3 GLC5        0.0000 
     24 CA        -50.0790  -21.5870   -4.8660 C.3       9 GLL5        0.0000 
     25 CA        -52.5690  -20.7270   -7.9090 C.3       6 GLP5        0.0000 
     26 CA        -48.1010  -20.5825   -1.8420 C.3       3 GLC5        0.0000 
     27 CA        -49.5150  -20.2190   -2.7170 C.3       9 GLL5        0.0000 
     28 CA        -46.6870  -20.9460   -0.9670 C.3       6 GLP5        0.0000 
     29 CA        -46.7750  -19.6580   -3.8380 C.3       3 GLC5        0.0000 
     30 CA        -48.5830  -19.4410   -5.0820 C.3       9 GLL5        0.0000 
     31 CA        -44.9670  -19.8750   -2.5940 C.3       6 GLP5        0.0000 
     32 CA        -48.0915  -26.1455   -7.7443 C.3       3 GLC5        0.0000 
     33 CA        -47.6920  -24.5890   -6.6340 C.3       9 GLL5        0.0000 
     34 CA        -47.9180  -27.4390   -9.2960 C.3       6 GLP5        0.0000 
     35 CA        -50.1325  -19.8455   -6.5795 C.3       3 GLC5        0.0000 
     36 CA        -49.7550  -20.2870   -4.3220 C.3       9 GLL5        0.0000 
     37 CA        -51.0960  -19.8270   -8.4570 C.3       6 GLP5        0.0000 
@<TRIPOS>BOND
@<TRIPOS>SUBSTRUCTURE
     1 ALC1        7 GROUP        1 X    ALC  0     ROOT ALC X 1
     2 SEC2       17 GROUP        1 X    SEC  0     **** SEC X 2
     3 GLC5        1 GROUP        1 X    GLC  0     **** GLC X 6
     4 ALP1        9 GROUP        1 Y    ALP  0     ROOT ALP Y 8
     5 SEP2       19 GROUP        1 Y    SEP  0     **** SEP Y 9
     6 GLP5        3 GROUP        1 Y    GLP  0     **** GLP Y 13
     7 ALL1        8 GROUP        1 Z    ALL  0     ROOT ALL Z 15
     8 SEL2       18 GROUP        1 Z    SEL  0     **** SEL Z 16
     9 GLL5        2 GROUP        1 Z    GLL  0     **** GLL Z 20
@<TRIPOS>SET

