#    Name: 1kru_IPT_3_ligand
#    Modification time : Tue Mar 25 10:32:43 2014

@<TRIPOS>MOLECULE
1kru_IPT_3_ligand
   33    33     1     0     0
SMALL
NO_CHARGES


@<TRIPOS>ATOM
      1 C1        -49.1770  -22.7130   -4.9890 C.3       1 IPT212      0.0000 
      2 C2        -49.8910  -23.9760   -5.6380 C.3       1 IPT212      0.0000 
      3 O2        -51.0130  -24.4290   -4.8490 O.3       1 IPT212      0.0000 
      4 C3        -48.8380  -25.1150   -5.7510 C.3       1 IPT212      0.0000 
      5 O3        -49.3990  -26.3050   -6.3460 O.3       1 IPT212      0.0000 
      6 C4        -47.6920  -24.5890   -6.6340 C.3       1 IPT212      0.0000 
      7 O4        -48.2040  -24.2590   -7.9330 O.3       1 IPT212      0.0000 
      8 C5        -47.0800  -23.3130   -6.0030 C.3       1 IPT212      0.0000 
      9 O5        -48.0820  -22.2810   -5.7800 O.3       1 IPT212      0.0000 
     10 C6        -45.9690  -22.7360   -6.8610 C.3       1 IPT212      0.0000 
     11 O6        -45.4280  -21.5510   -6.2600 O.3       1 IPT212      0.0000 
     12 S1        -50.0790  -21.5870   -4.8660 S.3       1 IPT212      0.0000 
     13 C1'       -49.7550  -20.2870   -4.3220 C.3       1 IPT212      0.0000 
     14 C2'       -49.5150  -20.2190   -2.7170 C.3       1 IPT212      0.0000 
     15 C3'       -48.5830  -19.4410   -5.0820 C.3       1 IPT212      0.0000 
     16 H         -48.8381  -23.0224   -4.0048 H         1 IPT212      0.0000 
     17 H         -50.1777  -23.7001   -6.6346 H         1 IPT212      0.0000 
     18 H         -48.4425  -25.2969   -4.7735 H         1 IPT212      0.0000 
     19 H         -46.9291  -25.3346   -6.6860 H         1 IPT212      0.0000 
     20 H         -46.6370  -23.6033   -5.0432 H         1 IPT212      0.0000 
     21 H         -46.3836  -22.5258   -7.8582 H         1 IPT212      0.0000 
     22 H         -45.1974  -23.5105   -6.9844 H         1 IPT212      0.0000 
     23 H         -50.6745  -19.5906   -4.4555 H         1 IPT212      0.0000 
     24 H         -48.7583  -20.8061   -2.4294 H         1 IPT212      0.0000 
     25 H         -49.2983  -19.2914   -2.4129 H         1 IPT212      0.0000 
     26 H         -50.3239  -20.5129   -2.2077 H         1 IPT212      0.0000 
     27 H         -47.7112  -19.9308   -5.0808 H         1 IPT212      0.0000 
     28 H         -48.8160  -19.2597   -6.0374 H         1 IPT212      0.0000 
     29 H         -48.4223  -18.5554   -4.6463 H         1 IPT212      0.0000 
     30 H         -50.6277  -25.0942   -4.2094 H         1 IPT212      0.0000 
     31 H         -50.1345  -25.9760   -6.9383 H         1 IPT212      0.0000 
     32 H         -48.5220  -25.1272   -8.3139 H         1 IPT212      0.0000 
     33 H         -44.5170  -21.4509   -6.6600 H         1 IPT212      0.0000 
@<TRIPOS>BOND
     1    2    1 1    
     2    9    1 1    
     3   12    1 1    
     4   16    1 1    
     5    3    2 1    
     6    4    2 1    
     7   17    2 1    
     8   30    3 1    
     9    5    4 1    
    10    6    4 1    
    11   18    4 1    
    12   31    5 1    
    13    7    6 1    
    14    8    6 1    
    15   19    6 1    
    16   32    7 1    
    17    9    8 1    
    18   10    8 1    
    19   20    8 1    
    20   11   10 1    
    21   21   10 1    
    22   22   10 1    
    23   33   11 1    
    24   13   12 1    
    25   14   13 1    
    26   15   13 1    
    27   23   13 1    
    28   24   14 1    
    29   25   14 1    
    30   26   14 1    
    31   27   15 1    
    32   28   15 1    
    33   29   15 1    
@<TRIPOS>SUBSTRUCTURE
     1 IPT212      1 GROUP   
@<TRIPOS>SET

