#    Name: 4gdy_0X1_2_INTS_M
#    Modification time : Mon Mar 24 21:52:51 2014

@<TRIPOS>MOLECULE
4gdy_0X1_2_INTS_M
  101     0     9     0     0
SMALL
NO_CHARGES


@<TRIPOS>ATOM
      1 CA          7.8285   35.2160   17.1755 C.3       3 GLC5        0.0000 
      2 CA          9.8300   35.3210   16.9470 C.3       9 GLL5        0.0000 
      3 CA          5.8270   35.1110   17.4040 C.3       6 GLP5        0.0000 
      4 CA         13.3475   38.0790   15.2665 C.3       3 GLC5        0.0000 
      5 CA         12.2090   36.6210   16.3840 C.3       9 GLL5        0.0000 
      6 CA         14.4860   39.5370   14.1490 C.3       6 GLP5        0.0000 
      7 CA          3.4835   39.8765   23.4225 C.3       3 GLC5        0.0000 
      8 CA          5.2800   39.0810   23.3600 C.3       9 GLL5        0.0000 
      9 CA          1.6870   40.6720   23.4850 C.3       6 GLP5        0.0000 
     10 CA          6.2475   38.9990   25.1950 C.3       3 GLC5        0.0000 
     11 CA          7.2150   38.9170   27.0300 C.3       6 GLP5        0.0000 
     12 CA          7.4630   39.1815   20.4545 C.3       3 GLC5        0.0000 
     13 CA          7.9850   37.5810   21.2860 C.3       9 GLL5        0.0000 
     14 CA          6.9410   40.7820   19.6230 C.3       6 GLP5        0.0000 
     15 CA          9.1655   34.8835   19.4335 C.3       3 GLC5        0.0000 
     16 CA          9.5340   36.6670   18.9810 C.3       9 GLL5        0.0000 
     17 CA          8.7970   33.1000   19.8860 C.3       6 GLP5        0.0000 
     18 CA          7.6805   35.8890   18.1925 C.3       3 GLC5        0.0000 
     19 CA          9.0900   39.4445   19.6945 C.3       3 GLC5        0.0000 
     20 CA          9.9490   37.6170   19.8330 C.3       9 GLL5        0.0000 
     21 CA          8.2310   41.2720   19.5560 C.3       6 GLP5        0.0000 
     22 CA          7.6870   42.3110   22.7180 C.3       3 GLC5        0.0000 
     23 CA          7.7670   41.4860   24.4480 C.3       9 GLL5        0.0000 
     24 CA          7.6070   43.1360   20.9880 C.3       6 GLP5        0.0000 
     25 CA          7.4165   43.0650   25.6285 C.3       3 GLC5        0.0000 
     26 CA          7.0660   44.6440   26.8090 C.3       6 GLP5        0.0000 
     27 CA          9.6875   42.4440   24.0210 C.3       3 GLC5        0.0000 
     28 CA         11.6080   43.4020   23.5940 C.3       6 GLP5        0.0000 
     29 CA          9.5210   40.8535   25.5930 C.3       3 GLC5        0.0000 
     30 CA         11.2750   40.2210   26.7380 C.3       6 GLP5        0.0000 
     31 CA          3.5455   37.1195   20.7320 C.3       3 GLC5        0.0000 
     32 CA          5.1950   37.1510   21.7880 C.3       9 GLL5        0.0000 
     33 CA          1.8960   37.0880   19.6760 C.3       6 GLP5        0.0000 
     34 N           5.0970   41.1455   24.5780 N.am      1 SEC2        0.0000 
     35 N           5.8310   40.1110   24.0140 N.am      7 SEL2        0.0000 
     36 N           4.3630   42.1800   25.1420 N.am      4 SEP2        0.0000 
     37 N           2.9430   34.2900   23.5980 N.am      1 SEC2        0.0000 
     38 N           4.3520   34.2690   23.6260 N.am      7 SEL2        0.0000 
     39 N           1.5340   34.3110   23.5700 N.am      4 SEP2        0.0000 
     40 N           3.7965   35.4395   24.1365 N.am      1 SEC2        0.0000 
     41 N           3.2410   36.6100   24.6470 N.am      4 SEP2        0.0000 
     42 N           4.8985   33.8475   24.6620 N.am      1 SEC2        0.0000 
     43 N           5.4450   33.4260   25.6980 N.am      4 SEP2        0.0000 
     44 N           5.4630   32.9475   23.4600 N.am      1 SEC2        0.0000 
     45 N           6.5740   31.6260   23.2940 N.am      4 SEP2        0.0000 
     46 NZ          5.0865   32.4735   20.8420 N.4       2 LYC4        0.0000 
     47 NZ          5.6870   33.6120   21.5670 N.4       8 LYL4        0.0000 
     48 NZ          3.5760   31.7170   19.2270 N.4       5 LYP4        0.0000 
     49 N           7.0425   33.7220   21.2785 N.am      1 SEC2        0.0000 
     50 N           5.6870   33.6120   21.5670 N.am      7 SEL2        0.0000 
     51 N           8.3980   33.8320   20.9900 N.am      4 SEP2        0.0000 
     52 N           6.1305   32.6190   22.4305 N.am      1 SEC2        0.0000 
     53 N           5.0865   32.4735   20.8420 N.am      1 SEC2        0.0000 
     54 N           4.4860   31.3350   20.1170 N.am      4 SEP2        0.0000 
     55 NZ          3.3250   33.9260   20.2910 N.4       2 LYC4        0.0000 
     56 NZ          3.5780   34.9080   21.2860 N.4       8 LYL4        0.0000 
     57 N           2.4185   35.7215   21.6380 N.am      1 SEC2        0.0000 
     58 N           3.5780   34.9080   21.2860 N.am      7 SEL2        0.0000 
     59 N           1.2590   36.5350   21.9900 N.am      4 SEP2        0.0000 
     60 N           3.3250   33.9260   20.2910 N.am      1 SEC2        0.0000 
     61 N           3.0720   32.9440   19.2960 N.am      4 SEP2        0.0000 
     62 N          10.4300   40.7790   22.3165 N.am      1 SEC2        0.0000 
     63 N           9.2010   39.8370   22.7270 N.am      7 SEL2        0.0000 
     64 N          11.6590   41.7210   21.9060 N.am      4 SEP2        0.0000 
     65 N           4.4165   36.2835   23.5340 N.am      1 SEC2        0.0000 
     66 N           5.5920   35.9570   22.4210 N.am      7 SEL2        0.0000 
     67 CA          7.6170   32.3385   11.0215 C.3       3 GLC5        0.0000 
     68 CA          7.3580   33.8040   12.6410 C.3       9 GLL5        0.0000 
     69 CA          7.8760   30.8730    9.4020 C.3       6 GLP5        0.0000 
     70 CA          5.9710   36.3915   14.7605 C.3       3 GLC5        0.0000 
     71 CA          7.5710   36.1120   13.2390 C.3       9 GLL5        0.0000 
     72 CA          4.3710   36.6710   16.2820 C.3       6 GLP5        0.0000 
     73 CA          7.2340   35.4390   15.7185 C.3       3 GLC5        0.0000 
     74 CA          8.6410   35.7670   14.0330 C.3       9 GLL5        0.0000 
     75 N          15.0020   37.8875   17.9355 N.am      1 SEC2        0.0000 
     76 N          13.9150   38.6740   17.4400 N.am      7 SEL2        0.0000 
     77 N          16.0890   37.1010   18.4310 N.am      4 SEP2        0.0000 
     78 N          14.8700   39.7850   17.8140 N.am      1 SEC2        0.0000 
     79 N          15.8250   40.8960   18.1880 N.am      4 SEP2        0.0000 
     80 N          11.7415   40.4870   21.0275 N.am      1 SEC2        0.0000 
     81 N          11.8240   39.2530   20.1490 N.am      7 SEL2        0.0000 
     82 CA         10.1195   33.0207   16.3835 C.3       3 GLC5        0.0000 
     83 CA         10.0420   30.8680   16.3860 C.3       6 GLP5        0.0000 
     84 CA         12.6883   34.4059   16.4031 C.3       3 GLC5        0.0000 
     85 CA         10.5640   35.0260   15.8150 C.3       9 GLL5        0.0000 
     86 CA         13.6930   32.8320   16.7790 C.3       6 GLP5        0.0000 
     87 CA          7.4227   39.8132   25.4591 C.3       3 GLC5        0.0000 
     88 CA          9.2605   34.5983   12.1547 C.3       3 GLC5        0.0000 
     89 CA          9.0640   34.4520   14.1380 C.3       9 GLL5        0.0000 
     90 CA          9.7760   35.2400   10.5220 C.3       6 GLP5        0.0000 
     91 CA          9.3935   32.4123   15.0868 C.3       3 GLC5        0.0000 
     92 CA          8.4260   33.4610   13.4370 C.3       9 GLL5        0.0000 
     93 CA          6.8695   32.1502   13.9675 C.3       3 GLC5        0.0000 
     94 CA          5.8470   30.6680   14.8960 C.3       6 GLP5        0.0000 
     95 CA          8.4605   34.8498   11.5565 C.3       3 GLC5        0.0000 
     96 CA          5.7025   34.3368   14.1375 C.3       3 GLC5        0.0000 
     97 CA          6.9320   35.1150   12.5410 C.3       9 GLL5        0.0000 
     98 CA          4.2600   34.2140   15.6840 C.3       6 GLP5        0.0000 
     99 CA          5.9013   36.8997   11.8265 C.3       3 GLC5        0.0000 
    100 CA          4.5510   38.1860   10.7630 C.3       6 GLP5        0.0000 
    101 CA          8.9410   35.5898   12.0790 C.3       3 GLC5        0.0000 
@<TRIPOS>BOND
@<TRIPOS>SUBSTRUCTURE
     1 SEC2       34 GROUP        1 X    SEC  0     ROOT SEC X 2
     2 LYC4       46 GROUP        1 X    LYC  0     **** LYC X 4
     3 GLC5        1 GROUP        1 X    GLC  0     **** GLC X 6
     4 SEP2       36 GROUP        1 Y    SEP  0     ROOT SEP Y 9
     5 LYP4       48 GROUP        1 Y    LYP  0     **** LYP Y 11
     6 GLP5        3 GROUP        1 Y    GLP  0     **** GLP Y 13
     7 SEL2       35 GROUP        1 Z    SEL  0     ROOT SEL Z 16
     8 LYL4       47 GROUP        1 Z    LYL  0     **** LYL Z 18
     9 GLL5        2 GROUP        1 Z    GLL  0     **** GLL Z 20
@<TRIPOS>SET

