#    Name: 4gdy_0X1_2_ligand
#    Modification time : Mon Mar 24 21:52:51 2014

@<TRIPOS>MOLECULE
4gdy_0X1_2_ligand
   57    61     1     0     0
SMALL
NO_CHARGES


@<TRIPOS>ATOM
      1 C1          9.8300   35.3210   16.9470 C.ar      1 0X1501      0.0000 
      2 C2         10.5640   35.0260   15.8150 C.ar      1 0X1501      0.0000 
      3 C3         12.2090   36.6210   16.3840 C.ar      1 0X1501      0.0000 
      4 C4          5.2800   39.0810   23.3600 C.ar      1 0X1501      0.0000 
      5 C5          7.2680   38.4700   22.2400 C.ar      1 0X1501      0.0000 
      6 C6         10.2930   36.3040   17.7930 C.ar      1 0X1501      0.0000 
      7 C7          5.9290   38.2460   22.4730 C.ar      1 0X1501      0.0000 
      8 C8         11.4730   36.9510   17.4990 C.ar      1 0X1501      0.0000 
      9 C9         11.7520   35.6510   15.5260 C.ar      1 0X1501      0.0000 
     10 C10         7.8630   39.5380   22.8980 C.ar      1 0X1501      0.0000 
     11 C11         7.1250   40.3280   23.7590 C.ar      1 0X1501      0.0000 
     12 C12        11.2260   38.3030   19.5030 C.2       1 0X1501      0.0000 
     13 C13         7.9850   37.5810   21.2860 C.3       1 0X1501      0.0000 
     14 C14         9.5340   36.6670   18.9810 C.2       1 0X1501      0.0000 
     15 C15         9.9490   37.6170   19.8330 C.2       1 0X1501      0.0000 
     16 C16         7.7670   41.4860   24.4480 C.3       1 0X1501      0.0000 
     17 C17         5.1950   37.1510   21.7880 C.3       1 0X1501      0.0000 
     18 N18         5.8310   40.1110   24.0140 N.ar      1 0X1501      0.0000 
     19 N19         9.3140   38.0440   20.9750 N.pl3     1 0X1501      0.0000 
     20 N20        11.9080   37.9410   18.3810 N.am      1 0X1501      0.0000 
     21 O21         4.3520   34.2690   23.6260 O.co2     1 0X1501      0.0000 
     22 O22         5.6870   33.6120   21.5670 O.co2     1 0X1501      0.0000 
     23 O23         3.5780   34.9080   21.2860 O.co2     1 0X1501      0.0000 
     24 O24         9.2010   39.8370   22.7270 O.3       1 0X1501      0.0000 
     25 C25        13.0350   38.7010   18.2940 C.2       1 0X1501      0.0000 
     26 O26         5.5920   35.9570   22.4210 O.3       1 0X1501      0.0000 
     27 P27         4.7280   34.5830   22.2040 P.3       1 0X1501      0.0000 
     28 O28        10.1330   34.0590   14.9340 O.3       1 0X1501      0.0000 
     29 C29         9.0640   34.4520   14.1380 C.ar      1 0X1501      0.0000 
     30 C30         8.4260   33.4610   13.4370 C.ar      1 0X1501      0.0000 
     31 C31         7.3580   33.8040   12.6410 C.ar      1 0X1501      0.0000 
     32 C32         6.9320   35.1150   12.5410 C.ar      1 0X1501      0.0000 
     33 C33         7.5710   36.1120   13.2390 C.ar      1 0X1501      0.0000 
     34 C34         8.6410   35.7670   14.0330 C.ar      1 0X1501      0.0000 
     35 N35        12.9370   39.5130   19.4120 N.am      1 0X1501      0.0000 
     36 O36        13.9150   38.6740   17.4400 O.2       1 0X1501      0.0000 
     37 N37        11.8240   39.2530   20.1490 N.2       1 0X1501      0.0000 
     38 H           8.9630   34.8201   17.1507 H         1 0X1501      0.0000 
     39 H          13.1025   37.1023   16.1941 H         1 0X1501      0.0000 
     40 H           4.2349   38.8714   23.5307 H         1 0X1501      0.0000 
     41 H          12.2856   35.3993   14.6890 H         1 0X1501      0.0000 
     42 H           7.3775   37.4941   20.3585 H         1 0X1501      0.0000 
     43 H           8.0221   36.5563   21.7168 H         1 0X1501      0.0000 
     44 H           8.6450   36.1437   19.1324 H         1 0X1501      0.0000 
     45 H           5.4580   37.1591   20.7318 H         1 0X1501      0.0000 
     46 H           4.1258   37.3289   21.8878 H         1 0X1501      0.0000 
     47 H           9.7632   38.6950   21.6277 H         1 0X1501      0.0000 
     48 H           8.7360   32.4878   13.5033 H         1 0X1501      0.0000 
     49 H           6.8600   33.0654   12.1034 H         1 0X1501      0.0000 
     50 H           6.1243   35.3448   11.9342 H         1 0X1501      0.0000 
     51 H           7.2610   37.0823   13.1709 H         1 0X1501      0.0000 
     52 H           9.1444   36.5051   14.5661 H         1 0X1501      0.0000 
     53 H          13.6059   40.1984   19.6365 H         1 0X1501      0.0000 
     54 H           8.5338   41.1982   25.0217 H         1 0X1501      0.0000 
     55 H           8.1237   42.1550   23.7959 H         1 0X1501      0.0000 
     56 H           7.1227   41.9692   25.0407 H         1 0X1501      0.0000 
     57 H           9.2376   40.8345   22.6668 H         1 0X1501      0.0000 
@<TRIPOS>BOND
     1    2    1 ar   
     2    6    1 ar   
     3   38    1 1    
     4    9    2 ar   
     5   28    2 1    
     6    8    3 ar   
     7    9    3 ar   
     8   39    3 1    
     9    7    4 ar   
    10   18    4 ar   
    11   40    4 1    
    12    7    5 ar   
    13   10    5 ar   
    14   13    5 1    
    15    8    6 ar   
    16   14    6 1    
    17   17    7 1    
    18   20    8 1    
    19   41    9 1    
    20   11   10 ar   
    21   24   10 1    
    22   16   11 1    
    23   18   11 ar   
    24   15   12 1    
    25   20   12 1    
    26   37   12 2    
    27   19   13 1    
    28   42   13 1    
    29   43   13 1    
    30   15   14 2    
    31   44   14 1    
    32   19   15 1    
    33   54   16 1    
    34   55   16 1    
    35   56   16 1    
    36   26   17 1    
    37   45   17 1    
    38   46   17 1    
    39   47   19 1    
    40   25   20 am   
    41   27   21 ar   
    42   27   22 ar   
    43   27   23 ar   
    44   57   24 1    
    45   35   25 am   
    46   36   25 2    
    47   27   26 1    
    48   29   28 1    
    49   30   29 ar   
    50   34   29 ar   
    51   31   30 ar   
    52   48   30 1    
    53   32   31 ar   
    54   49   31 1    
    55   33   32 ar   
    56   50   32 1    
    57   34   33 ar   
    58   51   33 1    
    59   52   34 1    
    60   37   35 1    
    61   53   35 1    
@<TRIPOS>SUBSTRUCTURE
     1 0X1501      1 GROUP   
@<TRIPOS>SET

