#    Name: 2a3i_C0R_1_INTS_M
#    Modification time : Mon Mar 24 18:26:39 2014

@<TRIPOS>MOLECULE
2a3i_C0R_1_INTS_M
   77     0     9     0     0
SMALL
NO_CHARGES


@<TRIPOS>ATOM
      1 CA         24.7200   69.3435   16.1130 C.3       3 GLC5        0.0000 
      2 CA         23.9180   70.6490   14.9210 C.3       9 GLL5        0.0000 
      3 CA         25.5220   68.0380   17.3050 C.3       6 GLP5        0.0000 
      4 CA         25.9030   71.5015   14.5740 C.3       3 GLC5        0.0000 
      5 CA         27.8880   72.3540   14.2270 C.3       6 GLP5        0.0000 
      6 CA         22.3170   69.9540   15.9875 C.3       3 GLC5        0.0000 
      7 CA         20.7160   69.2590   17.0540 C.3       6 GLP5        0.0000 
      8 CA         20.3365   69.4970   12.9495 C.3       3 GLC5        0.0000 
      9 CA         21.6850   70.9680   13.5300 C.3       9 GLL5        0.0000 
     10 CA         18.9880   68.0260   12.3690 C.3       6 GLP5        0.0000 
     11 CA         21.2005   70.1135   15.2920 C.3       3 GLC5        0.0000 
     12 CA         20.7460   71.2690   15.3905 C.3       3 GLC5        0.0000 
     13 CA         21.7730   72.3000   13.7040 C.3       9 GLL5        0.0000 
     14 CA         19.7190   70.2380   17.0770 C.3       6 GLP5        0.0000 
     15 CA         19.7210   72.2475   11.4265 C.3       3 GLC5        0.0000 
     16 CA         20.6600   73.1620   13.0740 C.3       9 GLL5        0.0000 
     17 CA         18.7820   71.3330    9.7790 C.3       6 GLP5        0.0000 
     18 CA         21.0000   75.8905   13.1270 C.3       3 GLC5        0.0000 
     19 CA         21.2620   75.0020   14.8500 C.3       9 GLL5        0.0000 
     20 CA         20.7380   76.7790   11.4040 C.3       6 GLP5        0.0000 
     21 CA         25.3845   74.9700   17.3310 C.3       3 GLC5        0.0000 
     22 CA         23.3930   74.7690   16.3940 C.3       9 GLL5        0.0000 
     23 CA         27.3760   75.1710   18.2680 C.3       6 GLP5        0.0000 
     24 CA         25.2565   74.2215   15.3485 C.3       3 GLC5        0.0000 
     25 CA         27.1200   73.6740   14.3030 C.3       6 GLP5        0.0000 
     26 CA         20.4860   77.7210   13.7740 C.3       3 GLC5        0.0000 
     27 CA         19.6460   77.0980   15.4420 C.3       9 GLL5        0.0000 
     28 CA         21.3260   78.3440   12.1060 C.3       6 GLP5        0.0000 
     29 CA         17.9950   76.8450   14.4740 C.3       3 GLC5        0.0000 
     30 CA         16.3440   76.5920   13.5060 C.3       6 GLP5        0.0000 
     31 CA         17.5950   78.6200   16.6295 C.3       3 GLC5        0.0000 
     32 CA         19.7800   78.2040   16.5190 C.3       9 GLL5        0.0000 
     33 CA         15.4100   79.0360   16.7400 C.3       6 GLP5        0.0000 
     34 CA         22.0005   78.0635   13.8725 C.3       3 GLC5        0.0000 
     35 CA         22.6750   77.7830   15.6390 C.3       9 GLL5        0.0000 
     36 CA         23.1215   79.5435   14.7960 C.3       3 GLC5        0.0000 
     37 CA         23.5680   81.3040   13.9530 C.3       6 GLP5        0.0000 
     38 CA         24.5130   75.2090   12.3285 C.3       3 GLC5        0.0000 
     39 CA         23.7520   73.6680   13.3210 C.3       9 GLL5        0.0000 
     40 CA         25.2740   76.7500   11.3360 C.3       6 GLP5        0.0000 
     41 CA         21.6485   77.6550   20.6070 C.3       3 GLC5        0.0000 
     42 CA         22.5500   78.7890   19.3710 C.3       9 GLL5        0.0000 
     43 CA         20.7470   76.5210   21.8430 C.3       6 GLP5        0.0000 
     44 CA         20.6205   79.5470   19.6935 C.3       3 GLC5        0.0000 
     45 CA         18.6910   80.3050   20.0160 C.3       6 GLP5        0.0000 
     46 CA         22.6110   80.9565   19.7925 C.3       3 GLC5        0.0000 
     47 CA         22.6720   83.1240   20.2140 C.3       6 GLP5        0.0000 
     48 CA         24.0375   79.5315   20.7930 C.3       3 GLC5        0.0000 
     49 CA         25.5250   80.2740   22.2150 C.3       6 GLP5        0.0000 
     50 N          24.0865   68.2525   13.7445 N.am      2 SEC2        0.0000 
     51 N          22.6890   68.8280   13.9600 N.am      8 SEL2        0.0000 
     52 N          25.4840   67.6770   13.5290 N.am      5 SEP2        0.0000 
     53 O          24.9665   76.3340   16.6320 O.2       1 ALC1        0.0000 
     54 O          24.3580   75.4270   15.5940 O.2       7 ALL1        0.0000 
     55 O          25.5750   77.2410   17.6700 O.2       4 ALP1        0.0000 
     56 N          24.8670   79.1100   19.4670 N.am      2 SEC2        0.0000 
     57 N          23.5580   79.7860   19.4620 N.am      8 SEL2        0.0000 
     58 N          26.1760   78.4340   19.4720 N.am      5 SEP2        0.0000 
     59 O          23.1775   81.1435   19.1975 O.2       1 ALC1        0.0000 
     60 O          23.5580   79.7860   19.4620 O.2       7 ALL1        0.0000 
     61 O          22.7970   82.5010   18.9330 O.2       4 ALP1        0.0000 
     62 CA         20.5722   75.2268   12.4988 C.3       3 GLC5        0.0000 
     63 CA         22.1313   72.3620   11.6958 C.3       3 GLC5        0.0000 
     64 CA         23.0680   72.3260   10.0460 C.3       6 GLP5        0.0000 
     65 CA         18.5782   73.1743   13.6393 C.3       3 GLC5        0.0000 
     66 CA         16.7500   72.6740   13.6850 C.3       6 GLP5        0.0000 
     67 CA         23.2018   72.8307   11.9755 C.3       3 GLC5        0.0000 
     68 CA         22.9190   73.0030   14.4890 C.3       9 GLL5        0.0000 
     69 CA         23.4218   74.0965   18.3080 C.3       3 GLC5        0.0000 
     70 CA         23.7570   72.9020   19.7350 C.3       6 GLP5        0.0000 
     71 CA         19.3920   79.3195   17.8582 C.3       3 GLC5        0.0000 
     72 CA         20.8800   77.7280   17.5060 C.3       9 GLL5        0.0000 
     73 CA         18.4540   80.6730   18.7040 C.3       6 GLP5        0.0000 
     74 CA         25.3571   73.3804   14.1769 C.3       3 GLC5        0.0000 
     75 CA         19.0950   76.6997   17.6422 C.3       3 GLC5        0.0000 
     76 CA         20.6780   76.0040   15.8950 C.3       9 GLL5        0.0000 
     77 CA         17.9440   76.1410   18.9440 C.3       6 GLP5        0.0000 
@<TRIPOS>BOND
@<TRIPOS>SUBSTRUCTURE
     1 ALC1       53 GROUP        1 X    ALC  0     ROOT ALC X 1
     2 SEC2       50 GROUP        1 X    SEC  0     **** SEC X 2
     3 GLC5        1 GROUP        1 X    GLC  0     **** GLC X 6
     4 ALP1       55 GROUP        1 Y    ALP  0     ROOT ALP Y 8
     5 SEP2       52 GROUP        1 Y    SEP  0     **** SEP Y 9
     6 GLP5        3 GROUP        1 Y    GLP  0     **** GLP Y 13
     7 ALL1       54 GROUP        1 Z    ALL  0     ROOT ALL Z 15
     8 SEL2       51 GROUP        1 Z    SEL  0     **** SEL Z 16
     9 GLL5        2 GROUP        1 Z    GLL  0     **** GLL Z 20
@<TRIPOS>SET

